data_image0
_chemical_formula_structural       H3CHCHFeS2FeS2FeSFeS3FeS2FeS2FeSFeS3FeS2FeS2FeSFeS3FeS2FeS2FeSFeS3FeS2FeS2Fe2S3FeS2FeS2FeSFeSFeS3HFeS2C3H2C3H2CHSHC2H3C6H5FeH5C6H4C6H4C6H4C6H4C7NH2C6H4C6H4C6H4C6H12C3H2C2FeNHNC4H12NC4H12C2H4NC4H12CNC4H3C4H4CH9SH3C2H4SH3NC4H13NHC2H2NC4H13CSHCNC4H12NC4H7FeC3HCNSFeCH4FeHSCHCH4CSCSH2CHCHNH6CH7NH2CH2SH2CH4CNHCH2CH8CH2NH3C2HCH3SC2FeS2FeS2FeSFeS3FeSFeS2FeSFeS3H2SC2HCH2FeS2FeS2FeSFeS3FeS2FeS2FeSFeS2H4S3H4NHFeSHFeS2FeSFeS3FeS2FeS2FeSFeS3FeS2FeS2FeSFeS3FeS2FeS2FeSFeS3C6H4C6H4C6H6CH8CHCNH7C6H4C6H4C7H4C6H4C6H4C6H4C2H3C6H4C6H5C6H4C6H4C6H4C6H4NC4H12FeC2H5CH2C3H3NC4H13CH2CHCNC4H12NC4H12CH2NCH3C2H2C2HCNCH7NH6NC4H12NC4H12NH4CHC2H4CNH4CH2SCHC2H10NCHCH4CHCHCHCH4CH3C2HCH2NH2CHCH7CHC2H2CH5CNH2CH3CH2CH2CHCH4CFeS2FeS2FeSFeCS2FeS2FeS2FeSFeS3FeH2FeS2CFeS3FeS2FeS2FeSFeS3FeS2FeS2FeSFeS3HFeS2FeS2FeSFeS3FeS2FeS2FeSFeS3CH2SH3FeSCFeS2Fe2HFeHS2FeS2FeSHFeSFeS3H4CHCH2C6H10C4HSH3C6H4C6H2C6H4C2HC3H4C6H4C5H4NC6H4C6H7C5HCH3FeHC6H4C6H4C6H6C6H4C6H4C6H4NC4H12SH6FeHCH2CNH2NHCH8CH3CH3CNC3H2NH3CNC4H11SH3C3H4CH2FeHCNC4H18CH10NC4H11FeH4C2H2CH3SHCHCH2NC2H3CHNH2CH3SC2H2NH2CH2C2HSH2C2H4C2HCHCHCHCHCNH4C2H4C2H3NH3NC2HC2H2C2HSNCHSHCHSC2HCH2CSHNHCSCHCH3CHCH2CSCSC2HNCH5NH5S2H2C2HC3H3C2HCH3CH3CH2CH2CH7SHCH2FeS2FeS2FeSFeS2HFeS2FeS2FeSFeS3FeS2FeHCFeCHS2FeHSFeCSH2S2FeS2FeS2FeSFeS3HFeS2FeHFeS4HSHC8H3C7H4CH2CH7FeHCNCHC2HNH3CHC6H4C6H4C6H6CH3C6H4C6H4C4HCH5NHC2HCHCH5NC4H7SH8CH3SCHFeH3CH2C2SCHCH4CH3CH2C2H3CNH2CH3C2H2CH3CHNCH2C3FeC2HCHSCH8CSCNHNHC5H4NHCHNC4H13NH3CH2NFeH7C2H2CHSCH5CH5S3H2SHS2FeSHCFeHSFeSFeHS2HCH2CH2SH5C4HCHSC3H4CH2CHC2HCHC2HCH2CHCSHCFeSH2CHCFeHCHSH2CHSFe2CHSH4SH2FeNHCFeH2CHNHFeSFeS2FeSFeS3FeS2FeS2FeSFeS3FeSFeS2FeSFeS3FeS2FeS2FeSFeS3FeS2FeS2Fe2S3FeS2FeS2FeSFeS3FeS2FeS2FeHFeS3FeS2FeS2Fe2S3FeS2FeS2FeSFeS3H4FeS2FeS2FeSFeS3FeSHFeS2FeSFeS3HSH2SHFeSFeSH2FeS2FeS2FeHFeS3CH3SHCH4CH2CH3C3HCHCH2CH6C3H5C6H4C6H4C6H4C2H2C2H4CH2NHCH2C3H5C6H7SC6HCHNHCH2C6H4C6H5C2H2C6H4C6H4C7H4C6H4C6H4C6H4C6H4NC6H4C6H4C6H4C6H4C6H4C6H4NH2CH4C2H2SCNH2NC4H12NC4H10CH4C2H3NC3H3NCH3CH3CH4CH2CNCHCH5NH4NH4CHCHC2H4NHCH6CH3CHNH2CH2CH3CH3CHNCHCH6CHCHSCH4SNCHC5H3CH3NCFeHC3FeH3CHNH2CHCHC5H4NH5CHCH2CH4C3H2C2FeH3SH3C2SH4CHC2H3SH9C2HCH4CH2NCH2SH6CHCH2CSH3NCH3CSCH2C3NH2CH7CHNC2H4SHC2HC2SH2SHCHC4SHSC4HC2HCH3CH2NH6C3H2SH11CH2CH3CNH2CH4CH8CHCH3FeH2NC3H3CH8NCHSH3C3H3C2H5CNHC3H10CH4C2HNCHCFeS2FeS2FeSFeS3Fe2HSFeS2FeS2FeS2FeSFeS3FeS2FeS2FeSFeS3FeS2FeS2FeSFeS3FeS2FeS2FeSFeS3H2SFeS2FeSHFeSFeS3FeS2FeS2FeSCSFeH2CH2C6H4CH2CHC2H2C6H4C2H4SH2C6H4C6H4C6H4C6H4C6H4C6H4C6H3C6H4C6H4C6H4C6H5CHC3H3NC4H12NC4H12NC4H12NC4H14NCH4CH3NCNHNC4H12SHCH3SHSCH5NCNC4H12NC4H5CH5CNC4H12NC4H12CH2CH10CHCH4CH2CH7CH4CNHC3HCH4CHSHC6H3C2H3CH4CNH3CFeS2FeS2FeSFeS3FeS2FeS2FeSFeS3H2CSHFeS2FeS2FeSFeS3FeS2FeS2FeSFeS3FeS2FeS2FeSFeS3FeS2FeS2FeSFeS3H2FeS2FeS2FeSFeS3FeS2FeS2FeSFeS3H2C4NCH3CH4CNHCHC6H4C2HC6H4C6H4C6H4C6H4C6H4C6H4C2H5CHC6H5NCH3CH3C6H4C6H4C6H4C6H4C6H4C6H5CH2C2H3C3HCHCHC2H3FeH3NC4H15NC4H12NC4H12NC4H12NC4H13C2H2CNH4NH2C2HNC4H12NC4H16CHCHSHNCHC3H3NH10C2H4C3SHCHNHCH3CH6CH2C3H6CH4NHCHCHCH5CH2C2HC3HN2H2CHC2H3CHC2H2CH7NCHCH10CHCNH7CH3NH4CH3CHCHCH3C2H4FeS2FeS2FeSFeS3FeS2FeS2FeSFeS3CSCSHFeSHCSFeS2FeS2FeSFeS3FeS2FeS2FeSFeS3HFeS2FeS2FeSFeS3FeS2FeS2FeSFeS3HCSHSHFe2S2FeS2Fe2SFeS3FeS2FeS2FeSFeS3C6H3C6H4CH2C3HC3H2C6H4CH2CH5C7H4C3HCH2C6H4C6H2CHC6H4C6H5CH2NCHCHC3H2C6H4C6H4C6H4C6H4C6H4C6H9CHSNC4H14CNC4H14NC2H6NC4H12NC4H8SNH4CH2CH3CH2N2C2NC3H11NC4H12NC4H14CHNCH6NC4H13CH4CHFeCH2FeH3C3SHCH5SH3NC2HC4H4SFeHN2C2H2SH6FeHC2H2C2H3CH4C2H2CHC2S2C2FeH4NH3CHCHCSH4SCH2CH4FeH8C2FeCHSH4CH3CH5C2HCH3CH5FeS2FeS2FeSFeS3FeS2FeS2FeSFeS3FeS2FeS2C2FeS2FeCSFeHSC2SHFeS2FeS2FeSFeS3FeS2Fe2HFeS3H2CHCHC5H3SHC4HCH4C4H2CH2S2NC3HC2H2CHC6H4C6H4C2HC3H2CHC6H4C6H4C2HCH2C6H8CH3FeHCH4CH2CNC4H14CH2NHCH3C3H4CH3C2HNH6NHNH3CH5CH4CNH4C2H2C2HNCNC2H3CH5SH3CH2C2H2SCH6CNH2CH4CHCHSH2CSHCNCH2CHCH5CH3CSCH2CH2SHCHCHC2H3CH2SHSFe2SHS2FeSFeSHSCH3C2HC4SCH4CHCHCHSNHCH3C3H4FeHCS2HCHCH3C2HCH2CHNCHFe2H2CHCHC2H2NCHCH3CH5SCH4SHC2NCHFeSH2CHC2HFeS2FeSFeS3FeS2FeS2FeSFeS3FeSFeS2FeSFeS3FeS2FeS2FeSFeS3FeSHFeS2FeSFeS3H2FeS2FeS2FeSFeS2FeS2FeS2FeSFeS3FeS2FeS2FeSFeS3FeS2FeCSFeHFeHS2HFeS2FeS2FeSFeHS2HSHS2CHFeSCSFeS2FeCHFeSFeS3FeS2FeS2FeSFeS3H4CFeS2FeS2FeSFeS3C5H4C7H6CH2C4H5C5H2C3FeC2H4C6H9NHCH4CH2CHC5HCH2CNC6H4CH3C2H4C6H5C6H6C2HSH4C6H4C6H4C6H5C2HC7H4C6H4C6H4C6H4C6H4NHNC6H4C6H4C6H4C6H4C6H4C6H5CHNC4H10NC4H12NC4H12C2H6NC4H12NC4H10NC4H12NC4H12NC4H12C2H10CH2CH2CH8CH4C2H2NCHCHCH2NHCHC2H6C6HC2HNCH13NH4SH3CH2C2H5CHCH6C2H3SH3C2NH4CHCHSFeCHCHCH2CHCNH3CH2FeC2H3SHC3H2C3H3NH2C4H3NH6SC2H2SCH4CH4CH2C3H5NH2CFeCHCHCNHCH5CHCH3C2HCH7NC2HCH2N2SCH2C3SHCH2CHSH3SH2NH2SH2C3H5SH2CH3CH2SCNH2CNH3NH5CH3CNCHCHSH3CH7NHCHCH3CHC2HCHC2H3NCH2CHCNH2CH2CHCHCH4C2H7CHNH2CHCHC3H3NCSH3FeCSFeS2CFeS3FeS2FeS2FeSFeS3FeSFeSCFe2S2FeSFeHSCHS2FeS2FeS2FeSFeS3FeS2FeS2FeSFeS3FeS2FeS2FeSFeS3FeS2FeS2FeSFeS3H2SH3CFeS2FeS2FeSFeS3FeS2FeS2FeSFeS3CHSC6H4C6H4SH2C7H4C6H4C6H4C6H4C6H4C6H4C6H4C6H4C6H7CHC3HNH2C6H4C6H4C6H4CH2CH2C6H4CN2CH5FeCSHC3H4CH6C3HCH6NC4H12NC4H12CH4CH3C3SCSC2HCH4CHNSNC4H12FeH2SHC3H2CH2FeC2H11CHNC4H9CHC2H2NSH2SCH5CH2CH11CH3CHSNC2H3SCH2CNCHSH8CH4CH4NC2H3CFeCH2CHCH2NCH2CH5C2H3C2N2HCH3C2H2NCH3C3H3CH7CH6SCH2CHSFeHNH4CFeH3C2H2CH2NH2CH4CH7CH4C2NCH2CH3CHSC2H3CNCHC4H2CH2C2H7C2HSH2C2HNH3SCSHFeSH2CFeS2FeS2FeSFeS3H2SHSHCSFeSFeS2Fe2CS2FeS2FeS2Fe2S4FeS2FeS2FeCFeS3HCH2SHC5H2C6H4C7H4C6H2CHC3H4CH2CSCHNC3H5C6H4C6H4C6H5C5H3CH3FeHCHCH3SHCHCH3CH2SHCN2H3C3H2FeHCH4CNC4H14CHCNH2CHCH2C3H5SH3CHNCHC2H7CH4NH2C3H7SCHC3H2CHFeH2NCNH5SHCH2CH2NH4CH5NC2H3C2H2SHS2H3CHC3H3FeH9CH4CHCFeHCHCH2C2NCHCSFeHSNHFeHS2CSCSHFeSFeSCSH4SHSCHS2H4CFeH4C2H3FeSC6HCH4CH3C6H4CSH2NFeC3H2NHSC3H3CHFeHSH2FeH6CH2FeCHC2FeH2CNCH2SCH4CH4CNH2C2H2CFeSH2FeSHFeS2Fe2S2FeS2FeS2FeSFeS3FeS2FeS2FeSFeS3FeS2H2FeS2FeS2FeSFeS3FeS2FeSFeSHSFeS2FeS2FeSFeS5FeS2FeS2FeSFeS3FeS2FeS2FeHFeS3FeS2FeS2FeSFeS3FeSHFeS2Fe2S3H2CSH3FeSH2FeSHFeSFeHFeS2H2CHC2H4NH5C6H4CHC7H4C6H4C6H4C6H6SCH2C6H4C6H4C6H4C6H4C6H4C7H3C6H5C3H2C6H4C6H3SHCHC2HSNC7H4C6H4C6H4C4SHC6H4C6H2SNC4H12NC4HC2HC2H3CHC2H2CSHCH3NC4H12NC5HSH9NC4H12NC4H7SH4SNC2H5NCH2CH2CSHCH2CH2C2HCHCHCNC4H12NC4H12NC4H12NC4H10C2SCHCSHSHC2SCFeC2H3CFeCHFeH3NC2H5CH3SH3CH3NH2CHC2SNH6FeNHNCH3CNCHC2HC2H2CH8CH5SH4S2C2H11C2H2CNH2CHCHCH3CH3FeHCHCH7SC2H2CSHC2HCH2SHCH3FeH2CH2SH2CH2CH3SH25C2NH5CH9FeS2FeS2FeSFeS3Fe2S2FeS2HFeS2FeS2FeSFeS3FeS2FeS2FeSFeS3FeS2FeS2FeSFeS3FeS2FeS2FeSFeS5FeS2FeS2FeSFeS3FeS2FeS2Fe2S3C2NHC2H2C6H5C2H4C8H4C6H4C6H4C6H4C6H4C6H4C6H4CH3C2HCNHC6H4C6H4C6H4C6H4C6H4SC5H2CNH2CNC4H12NC4H12NC4H12NC4H12CH3NC4H15CH14C2H4C2HC2H3CH4SHCNHCH2NC4H12NC4H25CH2CH3NH3NC2HNCH2CH5C2H2CH5CSCHNHCH4C2H6CH4C2H2C5HCH10CH4FeS2FeS2FeSFeS3FeS2FeS2FeSFeS3H3SHFeS2FeS2FeSFeS3FeS2FeS2FeSFeS3HNFeS2FeS2FeHFeS3FeS2FeS2FeSFeS3FeS2FeS2FeSFeS3FeS2FeS2FeSFeS3H2CSH3C2HCHC6H4C6H4C6H5NHCH2C7H4C6H4C3H2CH4C6H4C6H4C6H3C6H5C7H4C6H4C6H4C6H4C6H4C6H4CNC4H3CH8CH2NH2C2H3CH2NC4H12NC4H11NC4H10NC3HCH6CH3CNC4H12NC4H9NC4H12NC4H13CNH2CH2NC2H6CH5CHC2H4CH4NCH4C2H7CHCH6CHSH4C3HNH2CH2CH5CHCHC2H3NFeH8SC3H2CHC3HCH7SCHCH8NCH4CHC2H2CH11SH2C2H2FeS2FeS2FeSFeS3FeS2FeS2FeSFeSFeS2FeS2FeH3S2FeHSFeHSC2H2S2FeSFeS2FeSFeS3FeS2FeS2FeSFeS3FeS2FeS2FeSFeS3FeS2FeS2FeSFeS3HFeS2FeS2FeS2FeSFeS3FeS2FeS2FeSFeS4HSC6H4C6H5C6H4C6H4C6H4C6H4C6H4C6H4C6H4C6H4C6H6C6H4C6H4C6H4C6H4C6H4C4H13C6H3SCH4CHCFeHCHNHC5H5NC4H12NC4H9NC4H12CHSHCNC4H11CH3C2HNC3H7NH2CHCNFeH2NC4H12NC4H14CNHCH7CH2CHC2H3SC3H6CNCHC2H2CHCHCH4C2H6SHNH3NSCH2CHNC3H4CH3C2H2FeCNH2SCH6CH4C2NH3C2H4SCH5CH6FeHCH2CH6NCH3CHNCH3CH2C2H4C3H3NH2SCSFeHCHCH2FeSH4CH2SH2SH3SH3CH3CH3C3H4CH3NCHCH2CHC3H4CHFeHFeHSNH3SCSFeSH2SFeS2FeS2FeSFeHS2CSH2FeS2FeSFe2CS2FeS2FeSFeSFeS3Fe2S2FeSFeS2HCSCNHC3H2C7H3C6H4C6H4C2H5CH2C5H2C6H4C6H4C6H4C6H3CHSH3CH3SHCSHN2H2C4H2CSHCH2S2H4CHCHSCN2H2CH2CH6FeCHCH3C2H3SC4H4C2HC3H3CNC2NH3NHC2H5CHNC4H13C2HSHC2H4CHNC4H12SHCHCH3SH7CH2SHCH4NH3CH9CH3CHCFeHC2HCHCFeHC2H4C2S2HC2NHCH2SH2CFeS4FeSFeSCSFeS2FeSHFe2S2H2C6H4CHSCNCH2CH5C4SH4FeHNCH4CH3FeH5CHCFeN2CH3C2H2CHCH2CS2CH2NH3CHSH2CH3CHCH5CFeC2H2CHCH2CH2CH2C2H4CHCHFeS2FeS2FeS2FeSFeS3FeS3HFeSCHFeS2FeS2FeSFeS3FeSHFeS2FeSFeHS2H3SHFeSFeSH2FeHFeS2HS2HS2FeS2FeS2FeCFeS3FeS2FeS2FeSFeS3HFeS2FeS2FeSFeS3FeS2FeS2FeSFeS3FeHCHSCFeSFeHSNFeS2FeS2FeSFeNS2H4C2H4C6H4C6H3S2HC6H4C6H4C6H4C7H4C6H5SH7C6H9CHC2H2C6H4C6H6C6H4C6HSH2C6H4C6H4C6H4C6H4C6H4C6H4C6H4C6H4C6H3NC4H12NC4H12NC4H12CH5NH3FeSCSH5SH3NC4H12NC4H15CHNFeH2SC2HCHCSNC4H12NC4H10NHCH2CHCHCHCNH5FeHCH7CH2C2H2NH4CH2CH3SC2H2CNH3CH2CH2C3FeHC2H2CHCH2C2HCHFeSCHCSH5C2HSC2NH5CHCH3SCSFeHNCNH5CNCHCH5CHC3H2CHSCNHSH2SCHSCH2C2HSH4CH3NH2CFeH2C2H4SHCH6CH3C2SH8CSH4NSHC2HFeHC2H2NCHFeH2CH2CH4C2HSCH4CH3CHNCH2CHCSCHCSHCHCH7FeSHFeSHFeSFeS3FeS2FeS2FeSFeS3FeS2FeS2FeHFeS3FeS2FeS2FeSFeS3FeS2FeS2FeSFeS3FeSFeS2FeSFeS3FeS2FeS2Fe2S3FeS2FeS2FeSFeS2C6H8C6H10C6H4C6H4C6H4C6H3C7H4C6H4C6H4C6H4C6H4CSHC3HCH2C6H6CH3CH6NHC2NC4H12NC4H13NC4H14CH4CHNCH2C2H2C2H4NC4H12NC4H4NHCHC2NH2CH3NC2H2C4HCH4CHNH2CH2CH3C3HC4H4C2H3CH5CHCHCH4SH3CH3C2H10NCH4NH4CH5C2HNHC2H3SH2NCH6CH4CH4FeS2FeSFeSFeS3FeS2FeS2FeSFeS3CFeS2FeS2FeSFeS3FeS2FeS2FeSFeS3FeS2FeHSH2FeS3FeS2FeS2FeSFeS3FeSFeS2FeSFeS3FeS2FeS2FeSFeS3HC3H2SH3C6H4C7H4C6H4C6H4C6H4C6H4C6H4C6H7CNHCH4CHNHC6H4C6H4C3NHCH2NC6H4C6H4C6H5NC4H12NC4H12NC4H12NC4H12NC4H17CH3NC4H8CH6C2H3C2SHNC2H2CH2CH4CNH4C3H2CH7CH5CH2CHCHCH3SCH5C5H4CH4C2H3FeCNHCH3CH5CH6NH2CH2CH2CHC2H2NH3CHCHC2H2CH3SH3CH3CH8
_chemical_formula_sum              "H6144 C3840 Fe768 S1536 N384"
_cell_length_a       126.031
_cell_length_b       127.007
_cell_length_c       127.215
_cell_angle_alpha    74.6957
_cell_angle_beta     74.6752
_cell_angle_gamma    74.6843

_space_group_name_H-M_alt    "P 1"
_space_group_IT_number       1

loop_
  _space_group_symop_operation_xyz
  'x, y, z'

loop_
  _atom_site_type_symbol
  _atom_site_label
  _atom_site_symmetry_multiplicity
  _atom_site_fract_x
  _atom_site_fract_y
  _atom_site_fract_z
  _atom_site_occupancy
  H   H1        1.0  0.32231  0.31887  0.09295  1.0000
  H   H2        1.0  0.31498  0.32195  0.11663  1.0000
  H   H3        1.0  0.30382  0.31464  0.12349  1.0000
  C   C1        1.0  0.32808  0.32227  0.09542  1.0000
  H   H4        1.0  0.31005  0.32030  0.13139  1.0000
  C   C2        1.0  0.30729  0.32187  0.12339  1.0000
  H   H5        1.0  0.21162  0.05524  0.43644  1.0000
  Fe  Fe1       1.0  0.10998  0.20329  0.41421  1.0000
  S   S1        1.0  0.11245  0.18598  0.41137  1.0000
  S   S2        1.0  0.10035  0.21801  0.40374  1.0000
  Fe  Fe2       1.0  0.11938  0.19494  0.43506  1.0000
  S   S3        1.0  0.12240  0.17695  0.43439  1.0000
  S   S4        1.0  0.12309  0.19951  0.44936  1.0000
  Fe  Fe3       1.0  0.12915  0.18264  0.41618  1.0000
  S   S5        1.0  0.14541  0.17338  0.40698  1.0000
  Fe  Fe4       1.0  0.10558  0.18163  0.42972  1.0000
  S   S6        1.0  0.09359  0.17003  0.43655  1.0000
  S   S7        1.0  0.12740  0.20050  0.41712  1.0000
  S   S8        1.0  0.10181  0.19911  0.43229  1.0000
  Fe  Fe5       1.0  0.08730  0.30236  0.39740  1.0000
  S   S9        1.0  0.08669  0.28487  0.40655  1.0000
  S   S10       1.0  0.08971  0.31521  0.40526  1.0000
  Fe  Fe6       1.0  0.08337  0.29860  0.37641  1.0000
  S   S11       1.0  0.08259  0.28050  0.38375  1.0000
  S   S12       1.0  0.08064  0.30613  0.35884  1.0000
  Fe  Fe7       1.0  0.07206  0.28675  0.39895  1.0000
  S   S13       1.0  0.05786  0.28005  0.41147  1.0000
  Fe  Fe8       1.0  0.09730  0.27994  0.39085  1.0000
  S   S14       1.0  0.11205  0.26570  0.39360  1.0000
  S   S15       1.0  0.07158  0.30486  0.39114  1.0000
  S   S16       1.0  0.09917  0.29742  0.38210  1.0000
  Fe  Fe9       1.0  0.30144  0.09090  0.37212  1.0000
  S   S17       1.0  0.28321  0.09601  0.37097  1.0000
  S   S18       1.0  0.31320  0.09803  0.35663  1.0000
  Fe  Fe10      1.0  0.29613  0.07758  0.39583  1.0000
  S   S19       1.0  0.27765  0.08141  0.39644  1.0000
  S   S20       1.0  0.30147  0.06642  0.41131  1.0000
  Fe  Fe11      1.0  0.28262  0.07823  0.37916  1.0000
  S   S21       1.0  0.27276  0.06930  0.37341  1.0000
  Fe  Fe12      1.0  0.27996  0.09877  0.38828  1.0000
  S   S22       1.0  0.26757  0.11260  0.39555  1.0000
  S   S23       1.0  0.30105  0.07274  0.37909  1.0000
  S   S24       1.0  0.29821  0.09527  0.38889  1.0000
  Fe  Fe13      1.0  0.18841  0.11984  0.42402  1.0000
  S   S25       1.0  0.20716  0.11873  0.42049  1.0000
  S   S26       1.0  0.17447  0.13118  0.43357  1.0000
  Fe  Fe14      1.0  0.19050  0.10005  0.41417  1.0000
  S   S27       1.0  0.20910  0.09739  0.40945  1.0000
  S   S28       1.0  0.18096  0.08873  0.41148  1.0000
  Fe  Fe15      1.0  0.20825  0.10027  0.42620  1.0000
  S   S29       1.0  0.22139  0.08706  0.43377  1.0000
  Fe  Fe16      1.0  0.20678  0.11585  0.40392  1.0000
  S   S30       1.0  0.21838  0.12079  0.38764  1.0000
  S   S31       1.0  0.18963  0.10150  0.43147  1.0000
  S   S32       1.0  0.18799  0.11843  0.40691  1.0000
  Fe  Fe17      1.0  0.24699  0.02444  0.41605  1.0000
  S   S33       1.0  0.23599  0.01764  0.40930  1.0000
  S   S34       1.0  0.26512  0.02541  0.40913  1.0000
  Fe  Fe18      1.0  0.22942  0.02874  0.43659  1.0000
  S   S35       1.0  0.21677  0.02225  0.43193  1.0000
  S   S36       1.0  0.22473  0.03683  0.45139  1.0000
  Fe  Fe19      1.0  0.23110  0.00848  0.42691  1.0000
  Fe  Fe20      1.0  0.22247  0.03189  0.41476  1.0000
  S   S37       1.0  0.20908  0.04068  0.40491  1.0000
  S   S38       1.0  0.24328  0.01407  0.43331  1.0000
  S   S39       1.0  0.23395  0.03960  0.41975  1.0000
  Fe  Fe21      1.0  0.27346  0.07742  0.46758  1.0000
  S   S40       1.0  0.25960  0.07290  0.46300  1.0000
  S   S41       1.0  0.28456  0.08753  0.45423  1.0000
  Fe  Fe22      1.0  0.03708  0.20659  0.42734  1.0000
  S   S42       1.0  0.04641  0.21946  0.42678  1.0000
  S   S43       1.0  0.04580  0.18945  0.42448  1.0000
  Fe  Fe23      1.0  0.01419  0.22198  0.43201  1.0000
  S   S44       1.0  0.02172  0.23622  0.43206  1.0000
  Fe  Fe24      1.0  0.03410  0.23117  0.41704  1.0000
  S   S45       1.0  0.04066  0.24228  0.40104  1.0000
  Fe  Fe25      1.0  0.03343  0.22318  0.44185  1.0000
  S   S46       1.0  0.04066  0.22303  0.45634  1.0000
  S   S47       1.0  0.02579  0.21796  0.41623  1.0000
  S   S48       1.0  0.02480  0.20932  0.44319  1.0000
  H   H6        1.0  0.03957  0.18855  0.47425  1.0000
  Fe  Fe26      1.0  0.08575  0.28110  0.46326  1.0000
  S   S49       1.0  0.08600  0.29935  0.45721  1.0000
  S   S50       1.0  0.08354  0.27186  0.45168  1.0000
  C   C3        1.0  0.04525  0.23490  0.45654  1.0000
  C   C4        1.0  0.05587  0.24334  0.46436  1.0000
  C   C5        1.0  0.05240  0.23393  0.46369  1.0000
  H   H7        1.0  0.06126  0.24255  0.47000  1.0000
  H   H8        1.0  0.05515  0.22590  0.46886  1.0000
  C   C6        1.0  0.23614  0.03748  0.45653  1.0000
  C   C7        1.0  0.24435  0.04690  0.46578  1.0000
  C   C8        1.0  0.23518  0.04610  0.46192  1.0000
  H   H9        1.0  0.00194  0.25336  0.40991  1.0000
  H   H10       1.0  0.22740  0.05223  0.46303  1.0000
  C   C9        1.0  0.22264  0.08764  0.44693  1.0000
  H   H11       1.0  0.10787  0.28231  0.34116  1.0000
  S   S51       1.0  0.23213  0.09001  0.47809  1.0000
  H   H12       1.0  0.29615  0.06359  0.35942  1.0000
  C   C10       1.0  0.22042  0.09791  0.46122  1.0000
  C   C11       1.0  0.21802  0.09731  0.45123  1.0000
  H   H13       1.0  0.23622  0.07187  0.46742  1.0000
  H   H14       1.0  0.21732  0.10554  0.46435  1.0000
  H   H15       1.0  0.21304  0.10446  0.44666  1.0000
  C   C12       1.0  0.18907  0.07542  0.40980  1.0000
  C   C13       1.0  0.19942  0.07122  0.41313  1.0000
  C   C14       1.0  0.20559  0.06046  0.41188  1.0000
  C   C15       1.0  0.20153  0.05401  0.40703  1.0000
  C   C16       1.0  0.19125  0.05828  0.40364  1.0000
  C   C17       1.0  0.18499  0.06886  0.40515  1.0000
  H   H16       1.0  0.20260  0.07621  0.41674  1.0000
  H   H17       1.0  0.21355  0.05724  0.41444  1.0000
  H   H18       1.0  0.18810  0.05339  0.39983  1.0000
  H   H19       1.0  0.17703  0.07206  0.40253  1.0000
  H   H20       1.0  0.01614  0.25178  0.39243  1.0000
  Fe  Fe27      1.0  0.24895  0.07832  0.47859  1.0000
  H   H21       1.0  0.18535  0.00393  0.42335  1.0000
  H   H22       1.0  0.23245  0.07083  0.44964  1.0000
  H   H23       1.0  0.04188  0.26286  0.44594  1.0000
  H   H24       1.0  0.03807  0.19954  0.46217  1.0000
  H   H25       1.0  0.29042  0.03698  0.44299  1.0000
  C   C18       1.0  0.27086  0.05682  0.38295  1.0000
  C   C19       1.0  0.26178  0.05212  0.38355  1.0000
  C   C20       1.0  0.25979  0.04257  0.39173  1.0000
  C   C21       1.0  0.26725  0.03739  0.39889  1.0000
  C   C22       1.0  0.27658  0.04184  0.39795  1.0000
  C   C23       1.0  0.27822  0.05172  0.39021  1.0000
  H   H26       1.0  0.25613  0.05599  0.37786  1.0000
  H   H27       1.0  0.25265  0.03906  0.39234  1.0000
  H   H28       1.0  0.28252  0.03766  0.40325  1.0000
  H   H29       1.0  0.28533  0.05523  0.38970  1.0000
  C   C24       1.0  0.29685  0.07245  0.42314  1.0000
  C   C25       1.0  0.29660  0.06554  0.43377  1.0000
  C   C26       1.0  0.29253  0.07013  0.44334  1.0000
  C   C27       1.0  0.28930  0.08170  0.44230  1.0000
  C   C28       1.0  0.28987  0.08866  0.43167  1.0000
  C   C29       1.0  0.29338  0.08402  0.42211  1.0000
  H   H30       1.0  0.29951  0.05662  0.43464  1.0000
  H   H31       1.0  0.29219  0.06472  0.45151  1.0000
  H   H32       1.0  0.28752  0.09763  0.43081  1.0000
  H   H33       1.0  0.29367  0.08943  0.41395  1.0000
  C   C30       1.0  0.25402  0.11507  0.39301  1.0000
  C   C31       1.0  0.24482  0.11980  0.40049  1.0000
  C   C32       1.0  0.23387  0.12159  0.39883  1.0000
  C   C33       1.0  0.23210  0.11903  0.38948  1.0000
  C   C34       1.0  0.24131  0.11449  0.38187  1.0000
  C   C35       1.0  0.25226  0.11231  0.38375  1.0000
  H   H34       1.0  0.24616  0.12212  0.40755  1.0000
  H   H35       1.0  0.22682  0.12529  0.40460  1.0000
  H   H36       1.0  0.23997  0.11254  0.37461  1.0000
  H   H37       1.0  0.25934  0.10878  0.37789  1.0000
  C   C36       1.0  0.05335  0.26954  0.40831  1.0000
  C   C37       1.0  0.05602  0.26766  0.39747  1.0000
  C   C38       1.0  0.05209  0.25927  0.39522  1.0000
  C   C39       1.0  0.04569  0.25266  0.40384  1.0000
  C   C40       1.0  0.04332  0.25437  0.41470  1.0000
  C   C41       1.0  0.04697  0.26291  0.41690  1.0000
  H   H38       1.0  0.06083  0.27284  0.39079  1.0000
  H   H39       1.0  0.05395  0.25799  0.38679  1.0000
  H   H40       1.0  0.03847  0.24927  0.42142  1.0000
  H   H41       1.0  0.04487  0.26436  0.42528  1.0000
  C   C42       1.0  0.08969  0.31081  0.41954  1.0000
  C   C43       1.0  0.30554  0.07455  0.47058  1.0000
  C   C44       1.0  0.08490  0.31509  0.43796  1.0000
  C   C45       1.0  0.08825  0.30378  0.44265  1.0000
  C   C46       1.0  0.09287  0.29610  0.43571  1.0000
  C   C47       1.0  0.09342  0.29958  0.42418  1.0000
  C   C48       1.0  0.06633  0.28816  0.43336  1.0000
  N   N1        1.0  0.27891  0.04115  0.43197  1.0000
  H   H42       1.0  0.09603  0.28748  0.43922  1.0000
  H   H43       1.0  0.09680  0.29363  0.41887  1.0000
  C   C49       1.0  0.15328  0.16138  0.41428  1.0000
  C   C50       1.0  0.16428  0.15692  0.40917  1.0000
  C   C51       1.0  0.17083  0.14753  0.41494  1.0000
  C   C52       1.0  0.16643  0.14265  0.42591  1.0000
  C   C53       1.0  0.15540  0.14703  0.43098  1.0000
  C   C54       1.0  0.14880  0.15626  0.42513  1.0000
  H   H44       1.0  0.16779  0.16080  0.40075  1.0000
  H   H45       1.0  0.17936  0.14423  0.41097  1.0000
  H   H46       1.0  0.15192  0.14321  0.43943  1.0000
  H   H47       1.0  0.14023  0.15935  0.42900  1.0000
  C   C55       1.0  0.11902  0.21402  0.44798  1.0000
  C   C56       1.0  0.11559  0.21876  0.45743  1.0000
  C   C57       1.0  0.11221  0.23039  0.45627  1.0000
  C   C58       1.0  0.11266  0.23725  0.44564  1.0000
  C   C59       1.0  0.11619  0.23253  0.43621  1.0000
  C   C60       1.0  0.11917  0.22092  0.43739  1.0000
  H   H48       1.0  0.11540  0.21343  0.46563  1.0000
  H   H49       1.0  0.10948  0.23404  0.46358  1.0000
  H   H50       1.0  0.11654  0.23782  0.42797  1.0000
  H   H51       1.0  0.12181  0.21734  0.43007  1.0000
  C   C61       1.0  0.05943  0.18431  0.42706  1.0000
  C   C62       1.0  0.06344  0.17276  0.42961  1.0000
  C   C63       1.0  0.07401  0.16841  0.43240  1.0000
  C   C64       1.0  0.08078  0.17559  0.43227  1.0000
  C   C65       1.0  0.07698  0.18714  0.42927  1.0000
  C   C66       1.0  0.06621  0.19149  0.42692  1.0000
  H   H52       1.0  0.05824  0.16716  0.42971  1.0000
  H   H53       1.0  0.07694  0.15946  0.43467  1.0000
  H   H54       1.0  0.08219  0.19272  0.42913  1.0000
  H   H55       1.0  0.06320  0.20037  0.42505  1.0000
  C   C67       1.0  0.10380  0.23114  0.40116  1.0000
  C   C68       1.0  0.09713  0.24045  0.39554  1.0000
  C   C69       1.0  0.09952  0.25107  0.39341  1.0000
  C   C70       1.0  0.10873  0.25244  0.39668  1.0000
  C   C71       1.0  0.11538  0.24315  0.40238  1.0000
  C   C72       1.0  0.11285  0.23251  0.40472  1.0000
  H   H56       1.0  0.09013  0.23947  0.39274  1.0000
  H   H57       1.0  0.09441  0.25813  0.38893  1.0000
  H   H58       1.0  0.12251  0.24415  0.40495  1.0000
  H   H59       1.0  0.11800  0.22538  0.40911  1.0000
  H   H60       1.0  0.10409  0.31310  0.33668  1.0000
  H   H61       1.0  0.26594  0.04975  0.44342  1.0000
  H   H62       1.0  0.19110  0.05530  0.46319  1.0000
  H   H63       1.0  0.31589  0.06568  0.35221  1.0000
  H   H64       1.0  0.20656  0.00427  0.39683  1.0000
  H   H65       1.0  0.19986  0.04697  0.45339  1.0000
  H   H66       1.0  0.17159  0.17546  0.43232  1.0000
  H   H67       1.0  0.16840  0.16546  0.44506  1.0000
  C   C73       1.0  0.19948  0.07384  0.45331  1.0000
  C   C74       1.0  0.22732  0.08882  0.46684  1.0000
  C   C75       1.0  0.25518  0.03010  0.45953  1.0000
  H   H68       1.0  0.20016  0.08165  0.44693  1.0000
  H   H69       1.0  0.20656  0.07202  0.45768  1.0000
  C   C76       1.0  0.24615  0.02945  0.45539  1.0000
  C   C77       1.0  0.04167  0.24531  0.44995  1.0000
  Fe  Fe28      1.0  0.08629  0.26080  0.48199  1.0000
  N   N2        1.0  0.30247  0.07940  0.48062  1.0000
  H   H70       1.0  0.18222  0.06842  0.44837  1.0000
  N   N3        1.0  0.15299  0.12175  0.41317  1.0000
  C   C78       1.0  0.15559  0.13263  0.40673  1.0000
  C   C79       1.0  0.15867  0.11307  0.40657  1.0000
  C   C80       1.0  0.14070  0.12258  0.41567  1.0000
  C   C81       1.0  0.15698  0.11875  0.42372  1.0000
  H   H71       1.0  0.15131  0.13941  0.41140  1.0000
  H   H72       1.0  0.15285  0.13511  0.39863  1.0000
  H   H73       1.0  0.16478  0.13241  0.40486  1.0000
  H   H74       1.0  0.15578  0.11494  0.39861  1.0000
  H   H75       1.0  0.16795  0.11231  0.40441  1.0000
  H   H76       1.0  0.15713  0.10468  0.41126  1.0000
  H   H77       1.0  0.13842  0.11452  0.42051  1.0000
  H   H78       1.0  0.13738  0.12490  0.40789  1.0000
  H   H79       1.0  0.13618  0.12907  0.42066  1.0000
  H   H80       1.0  0.15526  0.11055  0.42877  1.0000
  H   H81       1.0  0.15291  0.12512  0.42892  1.0000
  H   H82       1.0  0.16621  0.11813  0.42218  1.0000
  N   N4        1.0  0.08122  0.24641  0.43152  1.0000
  C   C82       1.0  0.08098  0.24424  0.44357  1.0000
  C   C83       1.0  0.06969  0.25109  0.42956  1.0000
  C   C84       1.0  0.08576  0.23583  0.42754  1.0000
  C   C85       1.0  0.08847  0.25447  0.42539  1.0000
  H   H83       1.0  0.08956  0.24088  0.44535  1.0000
  H   H84       1.0  0.07574  0.23805  0.44841  1.0000
  H   H85       1.0  0.07740  0.25198  0.44692  1.0000
  H   H86       1.0  0.06958  0.25293  0.42053  1.0000
  H   H87       1.0  0.06398  0.24522  0.43400  1.0000
  H   H88       1.0  0.06597  0.25905  0.43253  1.0000
  H   H89       1.0  0.08578  0.23711  0.41855  1.0000
  H   H90       1.0  0.08066  0.22946  0.43217  1.0000
  H   H91       1.0  0.09458  0.23222  0.42860  1.0000
  H   H92       1.0  0.08869  0.25643  0.41627  1.0000
  H   H93       1.0  0.09728  0.25111  0.42652  1.0000
  H   H94       1.0  0.08541  0.26246  0.42835  1.0000
  C   C86       1.0  0.28440  0.03331  0.44079  1.0000
  C   C87       1.0  0.27101  0.03597  0.42929  1.0000
  H   H95       1.0  0.26425  0.03393  0.43663  1.0000
  H   H96       1.0  0.27538  0.02806  0.42642  1.0000
  H   H97       1.0  0.29206  0.03630  0.41836  1.0000
  H   H98       1.0  0.14830  0.17963  0.42631  1.0000
  N   N5        1.0  0.12353  0.27367  0.41818  1.0000
  C   C88       1.0  0.13070  0.27135  0.40746  1.0000
  C   C89       1.0  0.12221  0.28555  0.41837  1.0000
  C   C90       1.0  0.12878  0.26653  0.42746  1.0000
  C   C91       1.0  0.11238  0.27125  0.41942  1.0000
  H   H99       1.0  0.13926  0.27291  0.40624  1.0000
  H   H100      1.0  0.12697  0.27667  0.40029  1.0000
  H   H101      1.0  0.13161  0.26251  0.40696  1.0000
  H   H102      1.0  0.13047  0.28772  0.41733  1.0000
  H   H103      1.0  0.11808  0.29119  0.41159  1.0000
  H   H104      1.0  0.11691  0.28753  0.42641  1.0000
  H   H105      1.0  0.12970  0.25750  0.42768  1.0000
  H   H106      1.0  0.12353  0.26808  0.43568  1.0000
  H   H107      1.0  0.13725  0.26804  0.42679  1.0000
  H   H108      1.0  0.10668  0.27292  0.42740  1.0000
  H   H109      1.0  0.11307  0.26235  0.41933  1.0000
  H   H110      1.0  0.10828  0.27640  0.41248  1.0000
  C   C92       1.0  0.28760  0.04381  0.42189  1.0000
  N   N6        1.0  0.05483  0.18964  0.46180  1.0000
  C   C93       1.0  0.06222  0.18351  0.46971  1.0000
  C   C94       1.0  0.05313  0.18180  0.45593  1.0000
  C   C95       1.0  0.06017  0.19838  0.45361  1.0000
  C   C96       1.0  0.04384  0.19487  0.46793  1.0000
  H   H111      1.0  0.05848  0.17684  0.47603  1.0000
  H   H112      1.0  0.06372  0.18922  0.47424  1.0000
  H   H113      1.0  0.07059  0.17946  0.46531  1.0000
  C   C97       1.0  0.31454  0.06726  0.34358  1.0000
  C   C98       1.0  0.29533  0.06502  0.35062  1.0000
  C   C99       1.0  0.18426  0.01194  0.41711  1.0000
  C   C100      1.0  0.19846  0.00377  0.40296  1.0000
  H   H114      1.0  0.05498  0.20295  0.44730  1.0000
  H   H115      1.0  0.28629  0.06867  0.35045  1.0000
  H   H116      1.0  0.29064  0.08737  0.34640  1.0000
  H   H117      1.0  0.11639  0.29024  0.35797  1.0000
  C   C101      1.0  0.30122  0.07423  0.33149  1.0000
  H   H118      1.0  0.14212  0.19115  0.43315  1.0000
  H   H119      1.0  0.03610  0.24615  0.44447  1.0000
  H   H120      1.0  0.12211  0.27926  0.34296  1.0000
  H   H121      1.0  0.31292  0.06745  0.47089  1.0000
  H   H122      1.0  0.27815  0.03123  0.44859  1.0000
  H   H123      1.0  0.15623  0.18986  0.42507  1.0000
  H   H124      1.0  0.10222  0.29230  0.35643  1.0000
  H   H125      1.0  0.06648  0.28820  0.42460  1.0000
  H   H126      1.0  0.12774  0.30154  0.32823  1.0000
  S   S52       1.0  0.07216  0.27488  0.47706  1.0000
  H   H127      1.0  0.04476  0.20100  0.47231  1.0000
  H   H128      1.0  0.05068  0.30349  0.45249  1.0000
  H   H129      1.0  0.04559  0.29352  0.42951  1.0000
  C   C102      1.0  0.04619  0.29409  0.43793  1.0000
  C   C103      1.0  0.27267  0.05149  0.43590  1.0000
  H   H130      1.0  0.29410  0.04707  0.42376  1.0000
  H   H131      1.0  0.11891  0.28576  0.32945  1.0000
  H   H132      1.0  0.04897  0.17518  0.46181  1.0000
  H   H133      1.0  0.18131  0.01885  0.42174  1.0000
  S   S53       1.0  0.27910  0.06038  0.47751  1.0000
  H   H134      1.0  0.06865  0.19478  0.44910  1.0000
  H   H135      1.0  0.26277  0.02368  0.45888  1.0000
  H   H136      1.0  0.28395  0.05028  0.41525  1.0000
  N   N7        1.0  0.24108  0.07988  0.39773  1.0000
  C   C104      1.0  0.23887  0.08962  0.40285  1.0000
  C   C105      1.0  0.24852  0.07041  0.40360  1.0000
  C   C106      1.0  0.24653  0.08284  0.38585  1.0000
  C   C107      1.0  0.23036  0.07669  0.39860  1.0000
  H   H137      1.0  0.23307  0.09682  0.39878  1.0000
  H   H138      1.0  0.24676  0.09243  0.40205  1.0000
  H   H139      1.0  0.23491  0.08773  0.41185  1.0000
  H   H140      1.0  0.24991  0.06276  0.40033  1.0000
  H   H141      1.0  0.25693  0.07227  0.40257  1.0000
  H   H142      1.0  0.24484  0.06836  0.41268  1.0000
  H   H143      1.0  0.24829  0.07574  0.38164  1.0000
  H   H144      1.0  0.25469  0.08523  0.38485  1.0000
  H   H145      1.0  0.24115  0.09005  0.38125  1.0000
  H   H146      1.0  0.23177  0.06920  0.39501  1.0000
  H   H147      1.0  0.22464  0.08353  0.39401  1.0000
  H   H148      1.0  0.22585  0.07470  0.40744  1.0000
  H   H149      1.0  0.20613  0.05211  0.46156  1.0000
  N   N8        1.0  0.11395  0.29661  0.34111  1.0000
  H   H150      1.0  0.06570  0.29915  0.44901  1.0000
  C   C108      1.0  0.29278  0.08889  0.47966  1.0000
  C   C109      1.0  0.20364  0.01286  0.41474  1.0000
  H   H151      1.0  0.21134  0.06994  0.43301  1.0000
  H   H152      1.0  0.20530  0.00488  0.42091  1.0000
  N   N9        1.0  0.06970  0.21699  0.39616  1.0000
  C   C110      1.0  0.06996  0.22247  0.40497  1.0000
  C   C111      1.0  0.07967  0.20777  0.39496  1.0000
  C   C112      1.0  0.06983  0.22529  0.38553  1.0000
  C   C113      1.0  0.05936  0.21248  0.39915  1.0000
  H   H153      1.0  0.07744  0.22631  0.40273  1.0000
  H   H154      1.0  0.07039  0.21641  0.41302  1.0000
  H   H155      1.0  0.06240  0.22927  0.40633  1.0000
  H   H156      1.0  0.07965  0.20328  0.38855  1.0000
  H   H157      1.0  0.08763  0.21090  0.39245  1.0000
  H   H158      1.0  0.08000  0.20153  0.40295  1.0000
  H   H159      1.0  0.06960  0.22151  0.37865  1.0000
  H   H160      1.0  0.07753  0.22885  0.38302  1.0000
  H   H161      1.0  0.06242  0.23239  0.38624  1.0000
  H   H162      1.0  0.05884  0.20843  0.39261  1.0000
  H   H163      1.0  0.05167  0.21917  0.40029  1.0000
  H   H164      1.0  0.05902  0.20607  0.40704  1.0000
  H   H165      1.0  0.16409  0.16512  0.43281  1.0000
  C   C114      1.0  0.25441  0.03900  0.46445  1.0000
  S   S54       1.0  0.10001  0.26792  0.46897  1.0000
  H   H166      1.0  0.06600  0.30998  0.42967  1.0000
  C   C115      1.0  0.19310  0.02382  0.40079  1.0000
  N   N10       1.0  0.25343  0.10176  0.43406  1.0000
  C   C116      1.0  0.24217  0.10892  0.43342  1.0000
  C   C117      1.0  0.25823  0.10497  0.44189  1.0000
  C   C118      1.0  0.26088  0.10313  0.42290  1.0000
  C   C119      1.0  0.25243  0.08998  0.43805  1.0000
  H   H167      1.0  0.23815  0.10651  0.42784  1.0000
  H   H168      1.0  0.24264  0.11786  0.43015  1.0000
  H   H169      1.0  0.23643  0.10826  0.44178  1.0000
  H   H170      1.0  0.26671  0.09970  0.44256  1.0000
  H   H171      1.0  0.25915  0.11381  0.43913  1.0000
  H   H172      1.0  0.25285  0.10393  0.45044  1.0000
  H   H173      1.0  0.26945  0.09783  0.42300  1.0000
  H   H174      1.0  0.26189  0.11192  0.41957  1.0000
  H   H175      1.0  0.25748  0.10078  0.41681  1.0000
  H   H176      1.0  0.24719  0.08865  0.44661  1.0000
  H   H177      1.0  0.26083  0.08431  0.43831  1.0000
  H   H178      1.0  0.24840  0.08736  0.43263  1.0000
  N   N11       1.0  0.15429  0.17846  0.44101  1.0000
  C   C120      1.0  0.14598  0.17192  0.44829  1.0000
  C   C121      1.0  0.15599  0.18610  0.44710  1.0000
  C   C122      1.0  0.15007  0.18506  0.43094  1.0000
  C   C123      1.0  0.16507  0.17080  0.43768  1.0000
  H   H179      1.0  0.14449  0.16604  0.44400  1.0000
  H   H180      1.0  0.13770  0.17746  0.45085  1.0000
  H   H181      1.0  0.14883  0.16692  0.45603  1.0000
  H   H182      1.0  0.16208  0.19130  0.44182  1.0000
  H   H183      1.0  0.14793  0.19193  0.44977  1.0000
  H   H184      1.0  0.15921  0.18143  0.45474  1.0000
  H   H185      1.0  0.26864  0.05770  0.42937  1.0000
  Fe  Fe29      1.0  0.26412  0.05632  0.47423  1.0000
  C   C124      1.0  0.11582  0.28549  0.33854  1.0000
  C   C125      1.0  0.12458  0.30067  0.33740  1.0000
  C   C126      1.0  0.05202  0.25380  0.45801  1.0000
  H   H186      1.0  0.28908  0.02536  0.43818  1.0000
  C   C127      1.0  0.22897  0.07837  0.45289  1.0000
  N   N12       1.0  0.19486  0.01309  0.40889  1.0000
  S   S55       1.0  0.26629  0.04047  0.46830  1.0000
  Fe  Fe30      1.0  0.09667  0.25810  0.45833  1.0000
  C   C128      1.0  0.08405  0.31922  0.35210  1.0000
  H   H187      1.0  0.00443  0.20608  0.42345  1.0000
  H   H188      1.0  0.26686  0.04159  0.42253  1.0000
  H   H189      1.0  0.24684  0.02259  0.45154  1.0000
  H   H190      1.0  0.19083  0.06053  0.43815  1.0000
  Fe  Fe31      1.0  0.07107  0.26447  0.46570  1.0000
  H   H191      1.0  0.04777  0.18619  0.44971  1.0000
  S   S56       1.0  0.10882  0.25178  0.44385  1.0000
  C   C129      1.0  0.21069  0.06261  0.44003  1.0000
  H   H192      1.0  0.29473  0.09550  0.47214  1.0000
  C   C130      1.0  0.04493  0.25476  0.45081  1.0000
  H   H193      1.0  0.19149  0.07554  0.45949  1.0000
  H   H194      1.0  0.06117  0.20470  0.45770  1.0000
  H   H195      1.0  0.02040  0.23705  0.39714  1.0000
  H   H196      1.0  0.19062  0.07511  0.43598  1.0000
  C   C131      1.0  0.19917  0.05429  0.45697  1.0000
  S   S57       1.0  0.05574  0.26586  0.45898  1.0000
  C   C132      1.0  0.05764  0.29711  0.44896  1.0000
  S   S58       1.0  0.08409  0.24975  0.47162  1.0000
  H   H197      1.0  0.12340  0.30902  0.33934  1.0000
  H   H198      1.0  0.28540  0.08619  0.47882  1.0000
  C   C133      1.0  0.19048  0.06725  0.44244  1.0000
  H   H199      1.0  0.21804  0.06108  0.44395  1.0000
  C   C134      1.0  0.10998  0.29578  0.35327  1.0000
  H   H200      1.0  0.30757  0.08088  0.46282  1.0000
  N   N13       1.0  0.19995  0.06450  0.44819  1.0000
  H   H201      1.0  0.00668  0.23873  0.41487  1.0000
  H   H202      1.0  0.24364  0.05354  0.46991  1.0000
  H   H203      1.0  0.29236  0.07819  0.33078  1.0000
  H   H204      1.0  0.20104  0.02510  0.39467  1.0000
  H   H205      1.0  0.06129  0.17759  0.45137  1.0000
  H   H206      1.0  0.27832  0.05548  0.43826  1.0000
  C   C135      1.0  0.05788  0.30778  0.43014  1.0000
  H   H207      1.0  0.07458  0.28959  0.43353  1.0000
  H   H208      1.0  0.06555  0.27968  0.43835  1.0000
  H   H209      1.0  0.05748  0.30780  0.42148  1.0000
  H   H210      1.0  0.05099  0.31455  0.43309  1.0000
  H   H211      1.0  0.18669  0.02426  0.39604  1.0000
  H   H212      1.0  0.09709  0.30203  0.33821  1.0000
  H   H213      1.0  0.05716  0.28891  0.45478  1.0000
  N   N14       1.0  0.05699  0.29680  0.43761  1.0000
  H   H214      1.0  0.04526  0.28587  0.44359  1.0000
  H   H215      1.0  0.10788  0.30508  0.32608  1.0000
  C   C136      1.0  0.23121  0.07895  0.46288  1.0000
  H   H216      1.0  0.30084  0.08227  0.35502  1.0000
  H   H217      1.0  0.32031  0.07274  0.33811  1.0000
  S   S59       1.0  0.26253  0.08429  0.48228  1.0000
  H   H218      1.0  0.20115  0.01981  0.41929  1.0000
  H   H219      1.0  0.17744  0.01206  0.41299  1.0000
  C   C137      1.0  0.08572  0.31862  0.42641  1.0000
  H   H220      1.0  0.31724  0.05912  0.34090  1.0000
  H   H221      1.0  0.00206  0.22991  0.39106  1.0000
  H   H222      1.0  0.30490  0.08919  0.34087  1.0000
  H   H223      1.0  0.19024  0.03103  0.40502  1.0000
  C   C138      1.0  0.10540  0.30452  0.33525  1.0000
  N   N15       1.0  0.30268  0.07244  0.34303  1.0000
  H   H224      1.0  0.32547  0.07568  0.36438  1.0000
  C   C139      1.0  0.32924  0.07859  0.35574  1.0000
  H   H225      1.0  0.30669  0.07978  0.32557  1.0000
  H   H226      1.0  0.21174  0.01386  0.40879  1.0000
  C   C140      1.0  0.29961  0.08329  0.34645  1.0000
  H   H227      1.0  0.29741  0.05671  0.34837  1.0000
  H   H228      1.0  0.13127  0.29488  0.34158  1.0000
  H   H229      1.0  0.19213  0.00377  0.39830  1.0000
  H   H230      1.0  0.30344  0.06621  0.32863  1.0000
  H   H231      1.0  0.31466  0.08982  0.47414  1.0000
  H   H232      1.0  0.19968  0.99554  0.40885  1.0000
  H   H233      1.0  0.03890  0.30049  0.44095  1.0000
  H   H234      1.0  0.22773  0.99647  0.40866  1.0000
  C   C141      1.0  0.32492  0.08924  0.35008  1.0000
  H   H235      1.0  0.10789  0.30411  0.35548  1.0000
  H   H236      1.0  0.08147  0.32109  0.44328  1.0000
  N   N16       1.0  0.00252  0.24298  0.39874  1.0000
  H   H237      1.0  0.09239  0.32006  0.36450  1.0000
  H   H238      1.0  0.32663  0.10126  0.33452  1.0000
  H   H239      1.0  0.29847  0.07137  0.46967  1.0000
  C   C142      1.0  0.01422  0.24358  0.39283  1.0000
  C   C143      1.0  0.32996  0.09300  0.33892  1.0000
  H   H240      1.0  0.07647  0.32082  0.33825  1.0000
  C   C144      1.0  0.31212  0.08336  0.48159  1.0000
  H   H241      1.0  0.31957  0.07640  0.48240  1.0000
  H   H242      1.0  0.01588  0.24237  0.38415  1.0000
  H   H243      1.0  0.00617  0.22512  0.40429  1.0000
  S   S60       1.0  0.22914  0.99049  0.43213  1.0000
  C   C145      1.0  0.00056  0.23181  0.39945  1.0000
  C   C146      1.0  0.00071  0.24495  0.41008  1.0000
  Fe  Fe32      1.0  0.26256  0.08315  0.56937  1.0000
  S   S61       1.0  0.28082  0.07772  0.56189  1.0000
  S   S62       1.0  0.24976  0.07236  0.57520  1.0000
  Fe  Fe33      1.0  0.26442  0.10684  0.56721  1.0000
  S   S63       1.0  0.28283  0.10362  0.55953  1.0000
  S   S64       1.0  0.25479  0.12317  0.57153  1.0000
  Fe  Fe34      1.0  0.27825  0.09390  0.54943  1.0000
  S   S65       1.0  0.28321  0.09634  0.53061  1.0000
  Fe  Fe35      1.0  0.28358  0.08785  0.57276  1.0000
  S   S66       1.0  0.29627  0.08120  0.58388  1.0000
  S   S67       1.0  0.25971  0.09855  0.55616  1.0000
  S   S68       1.0  0.26546  0.09187  0.58116  1.0000
  Fe  Fe36      1.0  0.23783  0.01497  0.64097  1.0000
  S   S69       1.0  0.25533  0.01697  0.64018  1.0000
  Fe  Fe37      1.0  0.22966  0.03974  0.63247  1.0000
  S   S70       1.0  0.24630  0.04393  0.63045  1.0000
  S   S71       1.0  0.21505  0.05313  0.62767  1.0000
  Fe  Fe38      1.0  0.25338  0.02834  0.62371  1.0000
  S   S72       1.0  0.26721  0.02875  0.60857  1.0000
  Fe  Fe39      1.0  0.24693  0.03244  0.64707  1.0000
  S   S73       1.0  0.25120  0.03910  0.65995  1.0000
  S   S74       1.0  0.23665  0.02525  0.62394  1.0000
  S   S75       1.0  0.22956  0.02931  0.64967  1.0000
  H   H244      1.0  0.32755  0.06889  0.60855  1.0000
  H   H245      1.0  0.28147  0.09047  0.68341  1.0000
  S   S76       1.0  0.27208  0.06218  0.50869  1.0000
  C   C147      1.0  0.22303  0.99906  0.62914  1.0000
  C   C148      1.0  0.27968  0.09364  0.69118  1.0000
  H   H246      1.0  0.24410  0.09330  0.53040  1.0000
  C   C149      1.0  0.09130  0.23258  0.59604  1.0000
  H   H247      1.0  0.08917  0.23850  0.58834  1.0000
  H   H248      1.0  0.09966  0.21383  0.58766  1.0000
  Fe  Fe40      1.0  0.09106  0.28110  0.56984  1.0000
  S   S77       1.0  0.09478  0.26326  0.57868  1.0000
  S   S78       1.0  0.08281  0.29279  0.58168  1.0000
  Fe  Fe41      1.0  0.09928  0.27494  0.54674  1.0000
  S   S79       1.0  0.10374  0.25666  0.55408  1.0000
  S   S80       1.0  0.10111  0.28124  0.52810  1.0000
  Fe  Fe42      1.0  0.08732  0.25992  0.56612  1.0000
  S   S81       1.0  0.07546  0.24820  0.57134  1.0000
  Fe  Fe43      1.0  0.11073  0.26211  0.56578  1.0000
  S   S82       1.0  0.12679  0.25379  0.57161  1.0000
  S   S83       1.0  0.08234  0.27790  0.55802  1.0000
  S   S84       1.0  0.10762  0.28027  0.55762  1.0000
  Fe  Fe44      1.0  0.02725  0.25709  0.61432  1.0000
  S   S85       1.0  0.02250  0.24113  0.61490  1.0000
  S   S86       1.0  0.02966  0.27042  0.59894  1.0000
  Fe  Fe45      1.0  0.03084  0.25044  0.63809  1.0000
  S   S87       1.0  0.02573  0.23405  0.64087  1.0000
  S   S88       1.0  0.03856  0.25265  0.65140  1.0000
  Fe  Fe46      1.0  0.03664  0.23303  0.62398  1.0000
  S   S89       1.0  0.04957  0.21742  0.62115  1.0000
  Fe  Fe47      1.0  0.01197  0.24363  0.63162  1.0000
  S   S90       1.0  0.04241  0.24882  0.62165  1.0000
  S   S91       1.0  0.01600  0.26027  0.63053  1.0000
  H   H249      1.0  0.05525  0.23218  0.66724  1.0000
  H   H250      1.0  0.29744  0.07408  0.49840  1.0000
  H   H251      1.0  0.08663  0.21896  0.61596  1.0000
  H   H252      1.0  0.07045  0.23057  0.60757  1.0000
  S   S92       1.0  0.32049  0.08260  0.67329  1.0000
  S   S93       1.0  0.23258  0.99820  0.64680  1.0000
  S   S94       1.0  0.08797  0.25375  0.49999  1.0000
  H   H253      1.0  0.06568  0.31656  0.64382  1.0000
  H   H254      1.0  0.26014  0.07435  0.55083  1.0000
  H   H255      1.0  0.23370  0.07786  0.53413  1.0000
  H   H256      1.0  0.23886  0.05491  0.58927  1.0000
  N   N17       1.0  0.19797  0.02668  0.64497  1.0000
  H   H257      1.0  0.05160  0.31718  0.65167  1.0000
  Fe  Fe48      1.0  0.30864  0.08437  0.66153  1.0000
  S   S95       1.0  0.29433  0.07521  0.66912  1.0000
  H   H258      1.0  0.10416  0.30933  0.70348  1.0000
  Fe  Fe49      1.0  0.30135  0.09179  0.63879  1.0000
  S   S96       1.0  0.28668  0.08348  0.64497  1.0000
  S   S97       1.0  0.30484  0.10091  0.62075  1.0000
  Fe  Fe50      1.0  0.28392  0.09039  0.66015  1.0000
  S   S98       1.0  0.26633  0.09830  0.66771  1.0000
  Fe  Fe51      1.0  0.29841  0.06916  0.65315  1.0000
  S   S99       1.0  0.29861  0.05249  0.64978  1.0000
  S   S100      1.0  0.29775  0.09997  0.65348  1.0000
  S   S101      1.0  0.31356  0.07699  0.64608  1.0000
  Fe  Fe52      1.0  0.20547  0.10852  0.64161  1.0000
  S   S102      1.0  0.21962  0.10676  0.62688  1.0000
  S   S103      1.0  0.20403  0.09219  0.65360  1.0000
  Fe  Fe53      1.0  0.19924  0.13374  0.63453  1.0000
  S   S104      1.0  0.21314  0.13384  0.61927  1.0000
  S   S105      1.0  0.18987  0.15145  0.63561  1.0000
  Fe  Fe54      1.0  0.20769  0.11927  0.61725  1.0000
  S   S106      1.0  0.20727  0.11662  0.60063  1.0000
  Fe  Fe55      1.0  0.22389  0.12136  0.63024  1.0000
  S   S107      1.0  0.24238  0.12109  0.62714  1.0000
  S   S108      1.0  0.19293  0.11989  0.63166  1.0000
  S   S109      1.0  0.21059  0.12236  0.64583  1.0000
  Fe  Fe56      1.0  0.10254  0.29011  0.63424  1.0000
  S   S110      1.0  0.09248  0.27678  0.64085  1.0000
  S   S111      1.0  0.11173  0.29139  0.61622  1.0000
  Fe  Fe57      1.0  0.09611  0.29826  0.65652  1.0000
  S   S112      1.0  0.08548  0.28529  0.66461  1.0000
  S   S113      1.0  0.09409  0.31248  0.66565  1.0000
  Fe  Fe58      1.0  0.09969  0.27351  0.65600  1.0000
  S   S114      1.0  0.10460  0.25557  0.66465  1.0000
  Fe  Fe59      1.0  0.07924  0.28963  0.64872  1.0000
  S   S115      1.0  0.06097  0.29330  0.64744  1.0000
  S   S116      1.0  0.11090  0.28599  0.64895  1.0000
  S   S117      1.0  0.08881  0.30336  0.64098  1.0000
  Fe  Fe60      1.0  0.12845  0.21041  0.63175  1.0000
  S   S118      1.0  0.12093  0.19806  0.64594  1.0000
  S   S119      1.0  0.13704  0.22249  0.63464  1.0000
  Fe  Fe61      1.0  0.12178  0.20237  0.61460  1.0000
  S   S120      1.0  0.11355  0.18937  0.62735  1.0000
  S   S121      1.0  0.12124  0.20506  0.59660  1.0000
  Fe  Fe62      1.0  0.10649  0.20275  0.63729  1.0000
  S   S122      1.0  0.08881  0.20733  0.64687  1.0000
  Fe  Fe63      1.0  0.12886  0.18584  0.63471  1.0000
  S   S123      1.0  0.13697  0.16810  0.64170  1.0000
  S   S124      1.0  0.11341  0.21610  0.62390  1.0000
  S   S125      1.0  0.13764  0.19785  0.62111  1.0000
  C   C150      1.0  0.11353  0.24662  0.65604  1.0000
  C   C151      1.0  0.10964  0.23802  0.65420  1.0000
  C   C152      1.0  0.11682  0.23057  0.64764  1.0000
  C   C153      1.0  0.12798  0.23158  0.64307  1.0000
  C   C154      1.0  0.13194  0.24005  0.64506  1.0000
  C   C155      1.0  0.12470  0.24762  0.65145  1.0000
  H   H259      1.0  0.10106  0.23712  0.65787  1.0000
  H   H260      1.0  0.11370  0.22403  0.64621  1.0000
  H   H261      1.0  0.14058  0.24084  0.64158  1.0000
  H   H262      1.0  0.12778  0.25415  0.65298  1.0000
  C   C156      1.0  0.17515  0.15584  0.63732  1.0000
  C   C157      1.0  0.17058  0.16711  0.63336  1.0000
  C   C158      1.0  0.15890  0.17090  0.63436  1.0000
  C   C159      1.0  0.15169  0.16351  0.63968  1.0000
  C   C160      1.0  0.15626  0.15226  0.64371  1.0000
  C   C161      1.0  0.16797  0.14840  0.64246  1.0000
  H   H263      1.0  0.17612  0.17289  0.62937  1.0000
  H   H264      1.0  0.15545  0.17954  0.63113  1.0000
  H   H265      1.0  0.15071  0.14651  0.64786  1.0000
  H   H266      1.0  0.17142  0.13972  0.64562  1.0000
  C   C162      1.0  0.24874  0.11552  0.63871  1.0000
  C   C163      1.0  0.24236  0.11355  0.64959  1.0000
  C   C164      1.0  0.24775  0.10867  0.65861  1.0000
  C   C165      1.0  0.25952  0.10571  0.65674  1.0000
  C   C166      1.0  0.26585  0.10800  0.64590  1.0000
  C   C167      1.0  0.26049  0.11283  0.63692  1.0000
  H   H267      1.0  0.23328  0.11575  0.65105  1.0000
  H   H268      1.0  0.24280  0.10700  0.66700  1.0000
  H   H269      1.0  0.27493  0.10607  0.64440  1.0000
  H   H270      1.0  0.26551  0.11434  0.62858  1.0000
  H   H271      1.0  0.21524  0.99942  0.61577  1.0000
  H   H272      1.0  0.33282  0.07674  0.69076  1.0000
  C   C168      1.0  0.11262  0.30979  0.67527  1.0000
  H   H273      1.0  0.10803  0.31326  0.71953  1.0000
  H   H274      1.0  0.25200  0.06377  0.55494  1.0000
  H   H275      1.0  0.06981  0.21892  0.60250  1.0000
  H   H276      1.0  0.29779  0.06554  0.61399  1.0000
  H   H277      1.0  0.11602  0.30211  0.67226  1.0000
  H   H278      1.0  0.07117  0.23197  0.59301  1.0000
  H   H279      1.0  0.25665  0.08321  0.52695  1.0000
  H   H280      1.0  0.31748  0.04571  0.63053  1.0000
  C   C169      1.0  0.09532  0.30908  0.70797  1.0000
  H   H281      1.0  0.07279  0.30768  0.66119  1.0000
  C   C170      1.0  0.29675  0.10076  0.68531  1.0000
  N   N18       1.0  0.08629  0.22267  0.59856  1.0000
  H   H282      1.0  0.19414  0.99227  0.57979  1.0000
  H   H283      1.0  0.12658  0.30799  0.68295  1.0000
  H   H284      1.0  0.04349  0.20577  0.66180  1.0000
  H   H285      1.0  0.14954  0.27048  0.52244  1.0000
  H   H286      1.0  0.23071  0.08931  0.54819  1.0000
  H   H287      1.0  0.26133  0.06541  0.54158  1.0000
  H   H288      1.0  0.08649  0.20966  0.59058  1.0000
  C   C171      1.0  0.04499  0.26399  0.64959  1.0000
  C   C172      1.0  0.03921  0.27503  0.64676  1.0000
  C   C173      1.0  0.04417  0.28394  0.64617  1.0000
  C   C174      1.0  0.05496  0.28190  0.64838  1.0000
  C   C175      1.0  0.06077  0.27086  0.65116  1.0000
  C   C176      1.0  0.05575  0.26195  0.65186  1.0000
  H   H289      1.0  0.03078  0.27668  0.64530  1.0000
  H   H290      1.0  0.03958  0.29244  0.64410  1.0000
  H   H291      1.0  0.06905  0.26918  0.65297  1.0000
  H   H292      1.0  0.06020  0.25345  0.65428  1.0000
  C   C177      1.0  0.06083  0.21476  0.62785  1.0000
  C   C178      1.0  0.06787  0.20414  0.62922  1.0000
  C   C179      1.0  0.07677  0.20187  0.63474  1.0000
  C   C180      1.0  0.07868  0.21026  0.63881  1.0000
  C   C181      1.0  0.07187  0.22095  0.63713  1.0000
  C   C182      1.0  0.06292  0.22317  0.63175  1.0000
  H   H293      1.0  0.06630  0.19760  0.62620  1.0000
  H   H294      1.0  0.08199  0.19356  0.63607  1.0000
  H   H295      1.0  0.07345  0.22750  0.64013  1.0000
  H   H296      1.0  0.05758  0.23136  0.63078  1.0000
  C   C183      1.0  0.18644  0.02554  0.64559  1.0000
  C   C184      1.0  0.12599  0.23999  0.57822  1.0000
  C   C185      1.0  0.12973  0.23521  0.58819  1.0000
  C   C186      1.0  0.12837  0.22441  0.59387  1.0000
  C   C187      1.0  0.12367  0.21825  0.58933  1.0000
  C   C188      1.0  0.12037  0.22289  0.57912  1.0000
  C   C189      1.0  0.12129  0.23384  0.57370  1.0000
  H   H297      1.0  0.13348  0.23992  0.59163  1.0000
  H   H298      1.0  0.13106  0.22079  0.60169  1.0000
  H   H299      1.0  0.11691  0.21809  0.57550  1.0000
  H   H300      1.0  0.11850  0.23744  0.56595  1.0000
  C   C190      1.0  0.09091  0.29274  0.59110  1.0000
  C   C191      1.0  0.10265  0.28973  0.58849  1.0000
  C   C192      1.0  0.10896  0.28992  0.59602  1.0000
  C   C193      1.0  0.10358  0.29248  0.60647  1.0000
  C   C194      1.0  0.09182  0.29534  0.60916  1.0000
  C   C195      1.0  0.08553  0.29578  0.60136  1.0000
  H   H301      1.0  0.10688  0.28758  0.58052  1.0000
  H   H302      1.0  0.11805  0.28802  0.59374  1.0000
  H   H303      1.0  0.08760  0.29744  0.61715  1.0000
  H   H304      1.0  0.07648  0.29845  0.60331  1.0000
  C   C196      1.0  0.09805  0.27338  0.52007  1.0000
  C   C197      1.0  0.09757  0.26212  0.52421  1.0000
  C   C198      1.0  0.09481  0.25614  0.51780  1.0000
  C   C199      1.0  0.09238  0.26137  0.50726  1.0000
  C   C200      1.0  0.09305  0.27257  0.50303  1.0000
  C   C201      1.0  0.09593  0.27853  0.50940  1.0000
  H   H305      1.0  0.09933  0.25800  0.53232  1.0000
  H   H306      1.0  0.09447  0.24743  0.52103  1.0000
  H   H307      1.0  0.09122  0.27669  0.49490  1.0000
  H   H308      1.0  0.09634  0.28723  0.50610  1.0000
  C   C202      1.0  0.06230  0.25459  0.57825  1.0000
  C   C203      1.0  0.05406  0.24833  0.58363  1.0000
  C   C204      1.0  0.04383  0.25326  0.58977  1.0000
  C   C205      1.0  0.04159  0.26460  0.59001  1.0000
  C   C206      1.0  0.04954  0.27101  0.58402  1.0000
  C   C207      1.0  0.06003  0.26590  0.57854  1.0000
  H   H309      1.0  0.05565  0.23960  0.58335  1.0000
  H   H310      1.0  0.03767  0.24828  0.59431  1.0000
  H   H311      1.0  0.04783  0.27978  0.58416  1.0000
  H   H312      1.0  0.06637  0.27075  0.57476  1.0000
  C   C208      1.0  0.07390  0.22619  0.60049  1.0000
  C   C209      1.0  0.25082  0.08681  0.53394  1.0000
  H   H313      1.0  0.08823  0.23717  0.60296  1.0000
  H   H314      1.0  0.24675  0.06808  0.53129  1.0000
  H   H315      1.0  0.25241  0.06314  0.64928  1.0000
  C   C210      1.0  0.26457  0.04242  0.65715  1.0000
  C   C211      1.0  0.27291  0.03971  0.64798  1.0000
  C   C212      1.0  0.28340  0.04268  0.64586  1.0000
  C   C213      1.0  0.28542  0.04881  0.65259  1.0000
  C   C214      1.0  0.27701  0.05165  0.66165  1.0000
  C   C215      1.0  0.26674  0.04824  0.66407  1.0000
  H   H316      1.0  0.27136  0.03515  0.64265  1.0000
  H   H317      1.0  0.28992  0.04022  0.63898  1.0000
  H   H318      1.0  0.27859  0.05615  0.66702  1.0000
  H   H319      1.0  0.26047  0.05007  0.67135  1.0000
  C   C216      1.0  0.21165  0.06386  0.63508  1.0000
  C   C217      1.0  0.21494  0.06196  0.64521  1.0000
  C   C218      1.0  0.21219  0.07060  0.65105  1.0000
  C   C219      1.0  0.20665  0.08129  0.64654  1.0000
  C   C220      1.0  0.20349  0.08323  0.63633  1.0000
  C   C221      1.0  0.20577  0.07445  0.63073  1.0000
  H   H320      1.0  0.21943  0.05380  0.64866  1.0000
  H   H321      1.0  0.21440  0.06901  0.65905  1.0000
  H   H322      1.0  0.19914  0.09146  0.63284  1.0000
  H   H323      1.0  0.20315  0.07596  0.62292  1.0000
  H   H324      1.0  0.22402  0.00761  0.62621  1.0000
  C   C222      1.0  0.24104  0.12203  0.57854  1.0000
  C   C223      1.0  0.23663  0.11314  0.57817  1.0000
  C   C224      1.0  0.22588  0.11192  0.58440  1.0000
  C   C225      1.0  0.21974  0.11931  0.59136  1.0000
  C   C226      1.0  0.22402  0.12838  0.59145  1.0000
  C   C227      1.0  0.23460  0.12981  0.58496  1.0000
  H   H325      1.0  0.24152  0.10716  0.57315  1.0000
  H   H326      1.0  0.22253  0.10497  0.58420  1.0000
  H   H327      1.0  0.21916  0.13435  0.59647  1.0000
  H   H328      1.0  0.23792  0.13678  0.58515  1.0000
  C   C228      1.0  0.29641  0.08897  0.59346  1.0000
  C   C229      1.0  0.28999  0.08705  0.60436  1.0000
  C   C230      1.0  0.29227  0.09089  0.61281  1.0000
  C   C231      1.0  0.30085  0.09684  0.61034  1.0000
  C   C232      1.0  0.30672  0.09938  0.59929  1.0000
  C   C233      1.0  0.30463  0.09532  0.59093  1.0000
  H   H329      1.0  0.28370  0.08204  0.60640  1.0000
  H   H330      1.0  0.28753  0.08907  0.62125  1.0000
  H   H331      1.0  0.31332  0.10401  0.59728  1.0000
  H   H332      1.0  0.30978  0.09667  0.58260  1.0000
  C   C234      1.0  0.28049  0.08677  0.52434  1.0000
  C   C235      1.0  0.28119  0.07555  0.52966  1.0000
  C   C236      1.0  0.27902  0.06804  0.52452  1.0000
  C   C237      1.0  0.27571  0.07175  0.51424  1.0000
  C   C238      1.0  0.27507  0.08297  0.50885  1.0000
  C   C239      1.0  0.27763  0.09041  0.51382  1.0000
  H   H333      1.0  0.28360  0.07262  0.53767  1.0000
  H   H334      1.0  0.27971  0.05933  0.52864  1.0000
  H   H335      1.0  0.27245  0.08593  0.50096  1.0000
  H   H336      1.0  0.27708  0.09910  0.50967  1.0000
  C   C240      1.0  0.25493  0.05970  0.58364  1.0000
  C   C241      1.0  0.26617  0.05688  0.58466  1.0000
  C   C242      1.0  0.27006  0.04710  0.59200  1.0000
  C   C243      1.0  0.26263  0.04032  0.59859  1.0000
  C   C244      1.0  0.25137  0.04318  0.59761  1.0000
  C   C245      1.0  0.24756  0.05276  0.59001  1.0000
  H   H337      1.0  0.27188  0.06225  0.57993  1.0000
  H   H338      1.0  0.27875  0.04497  0.59282  1.0000
  H   H339      1.0  0.24561  0.03793  0.60262  1.0000
  H   H340      1.0  0.23427  0.07691  0.55849  1.0000
  N   N19       1.0  0.06376  0.26537  0.54018  1.0000
  C   C246      1.0  0.05638  0.26195  0.53497  1.0000
  C   C247      1.0  0.06894  0.27433  0.53216  1.0000
  C   C248      1.0  0.07267  0.25567  0.54330  1.0000
  C   C249      1.0  0.05707  0.26950  0.55028  1.0000
  H   H341      1.0  0.06121  0.25880  0.52730  1.0000
  H   H342      1.0  0.04954  0.26906  0.53250  1.0000
  H   H343      1.0  0.05239  0.25515  0.54077  1.0000
  H   H344      1.0  0.07494  0.27685  0.53560  1.0000
  H   H345      1.0  0.07371  0.27161  0.52428  1.0000
  H   H346      1.0  0.06249  0.28193  0.52988  1.0000
  H   H347      1.0  0.07873  0.25805  0.54678  1.0000
  H   H348      1.0  0.07753  0.25197  0.53601  1.0000
  H   H349      1.0  0.06911  0.24897  0.54977  1.0000
  H   H350      1.0  0.05318  0.26290  0.55659  1.0000
  H   H351      1.0  0.05020  0.27678  0.54830  1.0000
  H   H352      1.0  0.06242  0.27218  0.55435  1.0000
  Fe  Fe64      1.0  0.26698  0.06684  0.49201  1.0000
  C   C250      1.0  0.31827  0.07019  0.61159  1.0000
  C   C251      1.0  0.06547  0.31301  0.66566  1.0000
  H   H353      1.0  0.29963  0.06742  0.62690  1.0000
  H   H354      1.0  0.32055  0.10673  0.66853  1.0000
  H   H355      1.0  0.29904  0.09780  0.67736  1.0000
  H   H356      1.0  0.12885  0.27756  0.52672  1.0000
  H   H357      1.0  0.18168  0.03317  0.64083  1.0000
  C   C252      1.0  0.13931  0.26901  0.54401  1.0000
  H   H358      1.0  0.31354  0.05667  0.60122  1.0000
  H   H359      1.0  0.14736  0.25753  0.52109  1.0000
  C   C253      1.0  0.31764  0.05245  0.60845  1.0000
  C   C254      1.0  0.12804  0.26895  0.53136  1.0000
  C   C255      1.0  0.13640  0.25157  0.54223  1.0000
  H   H360      1.0  0.03406  0.23077  0.66157  1.0000
  H   H361      1.0  0.28529  0.11517  0.69850  1.0000
  H   H362      1.0  0.09939  0.30397  0.72870  1.0000
  N   N20       1.0  0.26849  0.12490  0.59751  1.0000
  C   C256      1.0  0.27925  0.11837  0.60048  1.0000
  C   C257      1.0  0.26342  0.13339  0.60443  1.0000
  C   C258      1.0  0.26072  0.11733  0.59948  1.0000
  C   C259      1.0  0.27055  0.13050  0.58562  1.0000
  H   H363      1.0  0.28330  0.11195  0.59533  1.0000
  H   H364      1.0  0.27803  0.11393  0.60938  1.0000
  H   H365      1.0  0.28534  0.12377  0.59919  1.0000
  H   H366      1.0  0.26193  0.12948  0.61346  1.0000
  H   H367      1.0  0.26893  0.13939  0.60300  1.0000
  H   H368      1.0  0.25510  0.13822  0.60262  1.0000
  H   H369      1.0  0.25242  0.12202  0.59752  1.0000
  H   H370      1.0  0.25911  0.11284  0.60835  1.0000
  H   H371      1.0  0.26414  0.11101  0.59415  1.0000
  H   H372      1.0  0.26260  0.13556  0.58310  1.0000
  H   H373      1.0  0.27419  0.12433  0.58012  1.0000
  H   H374      1.0  0.27650  0.13617  0.58376  1.0000
  H   H375      1.0  0.24172  0.08790  0.55530  1.0000
  C   C260      1.0  0.14813  0.26206  0.52716  1.0000
  H   H376      1.0  0.05114  0.21608  0.68300  1.0000
  H   H377      1.0  0.03582  0.23046  0.67511  1.0000
  C   C261      1.0  0.05609  0.22645  0.66165  1.0000
  H   H378      1.0  0.07694  0.32059  0.72889  1.0000
  C   C262      1.0  0.03668  0.22509  0.66917  1.0000
  N   N21       1.0  0.11690  0.25628  0.61525  1.0000
  C   C263      1.0  0.11976  0.25891  0.62468  1.0000
  C   C264      1.0  0.10499  0.26143  0.61493  1.0000
  C   C265      1.0  0.11866  0.24405  0.61674  1.0000
  C   C266      1.0  0.12420  0.26074  0.60473  1.0000
  H   H379      1.0  0.12866  0.25509  0.62527  1.0000
  H   H380      1.0  0.11429  0.25584  0.63274  1.0000
  H   H381      1.0  0.11866  0.26807  0.62381  1.0000
  H   H382      1.0  0.09927  0.25804  0.62267  1.0000
  H   H383      1.0  0.10333  0.27060  0.61425  1.0000
  H   H384      1.0  0.10261  0.26002  0.60766  1.0000
  H   H385      1.0  0.11647  0.24175  0.60984  1.0000
  H   H386      1.0  0.11344  0.24039  0.62473  1.0000
  H   H387      1.0  0.12758  0.23990  0.61697  1.0000
  H   H388      1.0  0.12351  0.26985  0.60370  1.0000
  H   H389      1.0  0.12195  0.25942  0.59733  1.0000
  H   H390      1.0  0.13321  0.25668  0.60455  1.0000
  N   N22       1.0  0.23802  0.07871  0.60903  1.0000
  C   C267      1.0  0.23650  0.09046  0.60292  1.0000
  C   C268      1.0  0.23112  0.07291  0.60566  1.0000
  C   C269      1.0  0.23442  0.07832  0.62113  1.0000
  C   C270      1.0  0.25001  0.07316  0.60639  1.0000
  H   H391      1.0  0.24153  0.09518  0.60524  1.0000
  H   H392      1.0  0.22752  0.09489  0.60468  1.0000
  H   H393      1.0  0.23917  0.09101  0.59375  1.0000
  H   H394      1.0  0.23229  0.06392  0.60985  1.0000
  H   H395      1.0  0.22199  0.07667  0.60784  1.0000
  H   H396      1.0  0.23338  0.07336  0.59651  1.0000
  H   H397      1.0  0.23516  0.06956  0.62597  1.0000
  H   H398      1.0  0.22548  0.08264  0.62332  1.0000
  H   H399      1.0  0.23948  0.08256  0.62397  1.0000
  H   H400      1.0  0.25140  0.06410  0.61034  1.0000
  H   H401      1.0  0.25544  0.07703  0.60921  1.0000
  H   H402      1.0  0.25310  0.07381  0.59727  1.0000
  C   C271      1.0  0.09924  0.31274  0.72407  1.0000
  H   H403      1.0  0.18654  0.01833  0.64210  1.0000
  H   H404      1.0  0.23707  0.06538  0.54440  1.0000
  N   N23       1.0  0.04832  0.21867  0.66649  1.0000
  C   C272      1.0  0.25530  0.07006  0.54773  1.0000
  H   H405      1.0  0.28331  0.08671  0.69751  1.0000
  H   H406      1.0  0.06355  0.26127  0.61470  1.0000
  H   H407      1.0  0.25565  0.09108  0.53708  1.0000
  C   C273      1.0  0.23781  0.08329  0.55155  1.0000
  C   C274      1.0  0.30230  0.06171  0.62094  1.0000
  H   H408      1.0  0.19296  0.03529  0.65857  1.0000
  H   H409      1.0  0.14050  0.27761  0.53977  1.0000
  C   C275      1.0  0.20398  0.01636  0.65135  1.0000
  C   C276      1.0  0.24064  0.07209  0.53796  1.0000
  H   H410      1.0  0.30083  0.09394  0.69144  1.0000
  C   C277      1.0  0.05861  0.32177  0.64876  1.0000
  N   N24       1.0  0.31462  0.05951  0.61680  1.0000
  C   C278      1.0  0.04906  0.21191  0.65837  1.0000
  H   H411      1.0  0.04645  0.21725  0.65062  1.0000
  H   H412      1.0  0.30636  0.06333  0.49143  1.0000
  H   H413      1.0  0.15578  0.25752  0.53051  1.0000
  H   H414      1.0  0.13178  0.26981  0.55092  1.0000
  H   H415      1.0  0.20598  0.03751  0.64926  1.0000
  H   H416      1.0  0.29186  0.06796  0.49044  1.0000
  H   H417      1.0  0.19988  0.03632  0.62815  1.0000
  N   N25       1.0  0.13798  0.26290  0.53619  1.0000
  H   H418      1.0  0.20457  0.00891  0.64800  1.0000
  H   H419      1.0  0.12876  0.25192  0.54904  1.0000
  H   H420      1.0  0.05781  0.20718  0.65590  1.0000
  H   H421      1.0  0.04578  0.20527  0.68069  1.0000
  H   H422      1.0  0.32688  0.05058  0.60514  1.0000
  H   H423      1.0  0.30066  0.10805  0.68384  1.0000
  N   N26       1.0  0.17919  0.14996  0.60511  1.0000
  C   C279      1.0  0.18314  0.15933  0.60663  1.0000
  C   C280      1.0  0.18894  0.14186  0.60049  1.0000
  C   C281      1.0  0.17136  0.15426  0.59737  1.0000
  C   C282      1.0  0.17331  0.14438  0.61598  1.0000
  H   H424      1.0  0.17601  0.16551  0.61028  1.0000
  H   H425      1.0  0.18757  0.16378  0.59859  1.0000
  H   H426      1.0  0.18913  0.15634  0.61237  1.0000
  H   H427      1.0  0.19498  0.13847  0.60616  1.0000
  H   H428      1.0  0.18634  0.13459  0.59931  1.0000
  H   H429      1.0  0.19366  0.14571  0.59228  1.0000
  H   H430      1.0  0.16390  0.16039  0.60065  1.0000
  H   H431      1.0  0.16821  0.14738  0.59608  1.0000
  H   H432      1.0  0.17552  0.15852  0.58906  1.0000
  H   H433      1.0  0.17040  0.13711  0.61524  1.0000
  H   H434      1.0  0.16581  0.15021  0.61969  1.0000
  H   H435      1.0  0.17894  0.14122  0.62206  1.0000
  N   N27       1.0  0.15196  0.19408  0.65572  1.0000
  C   C283      1.0  0.14278  0.20300  0.65980  1.0000
  C   C284      1.0  0.16158  0.19249  0.66097  1.0000
  C   C285      1.0  0.15557  0.19734  0.64349  1.0000
  C   C286      1.0  0.14794  0.18352  0.65859  1.0000
  H   H436      1.0  0.13541  0.20451  0.65595  1.0000
  H   H437      1.0  0.14549  0.21112  0.65764  1.0000
  H   H438      1.0  0.13979  0.20088  0.66899  1.0000
  H   H439      1.0  0.16866  0.18582  0.65807  1.0000
  H   H440      1.0  0.16483  0.20029  0.65893  1.0000
  H   H441      1.0  0.15914  0.19003  0.67021  1.0000
  H   H442      1.0  0.16269  0.19097  0.64014  1.0000
  H   H443      1.0  0.15828  0.20548  0.64097  1.0000
  H   H444      1.0  0.14857  0.19836  0.63927  1.0000
  H   H445      1.0  0.14481  0.18096  0.66773  1.0000
  H   H446      1.0  0.15474  0.17656  0.65589  1.0000
  H   H447      1.0  0.14094  0.18426  0.65447  1.0000
  N   N28       1.0  0.24614  0.07807  0.54280  1.0000
  H   H448      1.0  0.28545  0.10114  0.70632  1.0000
  H   H449      1.0  0.07969  0.30649  0.72703  1.0000
  H   H450      1.0  0.09508  0.30020  0.71194  1.0000
  H   H451      1.0  0.13542  0.24667  0.53660  1.0000
  C   C287      1.0  0.08000  0.31524  0.72255  1.0000
  H   H452      1.0  0.27254  0.10990  0.70288  1.0000
  C   C288      1.0  0.28179  0.10764  0.69970  1.0000
  C   C289      1.0  0.09038  0.21698  0.58907  1.0000
  H   H453      1.0  0.09886  0.21211  0.60750  1.0000
  H   H454      1.0  0.08837  0.22271  0.58122  1.0000
  H   H455      1.0  0.05432  0.23179  0.65358  1.0000
  H   H456      1.0  0.12661  0.26458  0.52550  1.0000
  C   C290      1.0  0.08957  0.21493  0.60864  1.0000
  N   N29       1.0  0.28441  0.10364  0.68921  1.0000
  H   H457      1.0  0.28273  0.12023  0.67899  1.0000
  H   H458      1.0  0.10063  0.23018  0.59472  1.0000
  H   H459      1.0  0.03056  0.21952  0.67285  1.0000
  H   H460      1.0  0.09008  0.31182  0.70154  1.0000
  C   C291      1.0  0.05149  0.21122  0.67675  1.0000
  H   H461      1.0  0.12027  0.26981  0.53794  1.0000
  H   H462      1.0  0.20457  0.02142  0.62931  1.0000
  S   S126      1.0  0.25235  0.06130  0.48962  1.0000
  C   C292      1.0  0.21809  0.99439  0.62321  1.0000
  H   H463      1.0  0.08600  0.20732  0.61075  1.0000
  C   C293      1.0  0.22655  0.99269  0.63887  1.0000
  C   C294      1.0  0.06206  0.26881  0.60800  1.0000
  H   H464      1.0  0.06350  0.27314  0.62724  1.0000
  H   H465      1.0  0.05695  0.26703  0.60302  1.0000
  H   H466      1.0  0.29016  0.09275  0.48710  1.0000
  H   H467      1.0  0.25058  0.07595  0.63921  1.0000
  H   H468      1.0  0.05893  0.28798  0.62346  1.0000
  H   H469      1.0  0.07032  0.26992  0.60242  1.0000
  H   H470      1.0  0.18162  0.02418  0.65437  1.0000
  H   H471      1.0  0.21275  0.01685  0.65099  1.0000
  H   H472      1.0  0.21275  0.02933  0.63248  1.0000
  H   H473      1.0  0.14662  0.26461  0.54797  1.0000
  N   N30       1.0  0.05624  0.27882  0.61269  1.0000
  C   C295      1.0  0.06285  0.28031  0.62002  1.0000
  H   H474      1.0  0.06341  0.28996  0.59825  1.0000
  C   C296      1.0  0.05509  0.28875  0.60355  1.0000
  H   H475      1.0  0.07155  0.28102  0.61547  1.0000
  H   H476      1.0  0.25150  0.08439  0.66480  1.0000
  H   H477      1.0  0.23892  0.06904  0.64584  1.0000
  H   H478      1.0  0.14362  0.24682  0.54622  1.0000
  C   C297      1.0  0.24642  0.07117  0.64718  1.0000
  H   H479      1.0  0.07394  0.31790  0.71690  1.0000
  C   C298      1.0  0.32023  0.05370  0.62622  1.0000
  H   H480      1.0  0.19973  0.01473  0.66031  1.0000
  C   C299      1.0  0.32485  0.10252  0.67529  1.0000
  H   H481      1.0  0.28142  0.10977  0.67257  1.0000
  C   C300      1.0  0.04494  0.27737  0.61920  1.0000
  H   H482      1.0  0.04039  0.28465  0.62308  1.0000
  H   H483      1.0  0.04992  0.28799  0.59803  1.0000
  H   H484      1.0  0.25770  0.08520  0.65027  1.0000
  H   H485      1.0  0.31587  0.07585  0.61759  1.0000
  C   C301      1.0  0.20403  0.02849  0.63320  1.0000
  H   H486      1.0  0.06502  0.22188  0.66010  1.0000
  H   H487      1.0  0.04544  0.26978  0.62598  1.0000
  H   H488      1.0  0.05098  0.29649  0.60681  1.0000
  C   C302      1.0  0.27946  0.11249  0.68063  1.0000
  C   C303      1.0  0.25351  0.07989  0.65787  1.0000
  H   H489      1.0  0.23927  0.09347  0.64526  1.0000
  C   C304      1.0  0.19743  0.03633  0.64968  1.0000
  H   H490      1.0  0.27037  0.09550  0.69405  1.0000
  H   H491      1.0  0.03964  0.27645  0.61387  1.0000
  N   N31       1.0  0.24330  0.07749  0.65616  1.0000
  H   H492      1.0  0.19306  0.04427  0.64497  1.0000
  H   H493      1.0  0.25979  0.07211  0.66000  1.0000
  C   C305      1.0  0.23539  0.08810  0.65299  1.0000
  H   H494      1.0  0.22995  0.06911  0.66569  1.0000
  C   C306      1.0  0.23784  0.07081  0.66659  1.0000
  H   H495      1.0  0.22768  0.08660  0.65146  1.0000
  H   H496      1.0  0.06023  0.20621  0.67495  1.0000
  H   H497      1.0  0.23263  0.09299  0.65967  1.0000
  H   H498      1.0  0.23563  0.07519  0.67363  1.0000
  H   H499      1.0  0.24339  0.06256  0.66900  1.0000
  H   H500      1.0  0.06813  0.31415  0.67290  1.0000
  H   H501      1.0  0.27012  0.11468  0.68314  1.0000
  C   C307      1.0  0.32603  0.09094  0.67905  1.0000
  H   H502      1.0  0.31490  0.04437  0.61210  1.0000
  C   C308      1.0  0.11862  0.31317  0.68134  1.0000
  C   C309      1.0  0.33182  0.08567  0.68775  1.0000
  H   H503      1.0  0.32954  0.05178  0.62344  1.0000
  H   H504      1.0  0.31813  0.05886  0.63262  1.0000
  C   C310      1.0  0.29942  0.07082  0.49064  1.0000
  H   H505      1.0  0.05863  0.30822  0.66886  1.0000
  H   H506      1.0  0.09678  0.31815  0.73030  1.0000
  H   H507      1.0  0.29934  0.05389  0.62541  1.0000
  H   H508      1.0  0.31435  0.07467  0.60433  1.0000
  H   H509      1.0  0.20613  0.99501  0.56893  1.0000
  C   C311      1.0  0.10228  0.31634  0.67309  1.0000
  N   N32       1.0  0.09149  0.31625  0.71628  1.0000
  H   H510      1.0  0.00401  0.22721  0.62117  1.0000
  H   H511      1.0  0.20491  0.99055  0.59428  1.0000
  C   C312      1.0  0.32939  0.10867  0.68020  1.0000
  H   H512      1.0  0.31003  0.08715  0.48905  1.0000
  H   H513      1.0  0.32846  0.11760  0.67716  1.0000
  H   H514      1.0  0.21675  0.99362  0.58331  1.0000
  C   C313      1.0  0.11442  0.32312  0.68539  1.0000
  H   H515      1.0  0.29635  0.31718  0.84863  1.0000
  H   H516      1.0  0.31615  0.30574  0.88291  1.0000
  C   C314      1.0  0.32240  0.31083  0.87929  1.0000
  H   H517      1.0  0.30067  0.30901  0.86123  1.0000
  H   H518      1.0  0.29735  0.31755  0.87739  1.0000
  C   C315      1.0  0.31930  0.32242  0.87866  1.0000
  H   H519      1.0  0.32758  0.31624  0.90852  1.0000
  C   C316      1.0  0.29423  0.31609  0.85787  1.0000
  H   H520      1.0  0.28595  0.31356  0.86096  1.0000
  H   H521      1.0  0.28266  0.32257  0.87710  1.0000
  H   H522      1.0  0.33187  0.29567  0.91140  1.0000
  H   H523      1.0  0.31192  0.32251  0.85982  1.0000
  C   C317      1.0  0.33355  0.30579  0.87519  1.0000
  Fe  Fe65      1.0  0.29886  0.38107  0.08204  1.0000
  S   S127      1.0  0.31495  0.38223  0.08560  1.0000
  S   S128      1.0  0.29414  0.39026  0.06573  1.0000
  Fe  Fe66      1.0  0.29044  0.36993  0.10562  1.0000
  S   S129      1.0  0.30563  0.37033  0.11139  1.0000
  S   S130      1.0  0.27585  0.36271  0.11661  1.0000
  Fe  Fe67      1.0  0.30402  0.38769  0.10100  1.0000
  S   S131      1.0  0.30849  0.40122  0.10629  1.0000
  Fe  Fe68      1.0  0.31533  0.36473  0.09558  1.0000
  C   C318      1.0  0.13135  0.38770  0.16902  1.0000
  S   S132      1.0  0.28785  0.38784  0.09673  1.0000
  S   S133      1.0  0.30016  0.36297  0.09053  1.0000
  Fe  Fe69      1.0  0.19904  0.41412  0.12641  1.0000
  S   S134      1.0  0.19034  0.39968  0.13200  1.0000
  S   S135      1.0  0.19032  0.43136  0.11946  1.0000
  Fe  Fe70      1.0  0.22056  0.40054  0.13364  1.0000
  S   S136      1.0  0.21370  0.38497  0.14016  1.0000
  S   S137      1.0  0.23800  0.40213  0.13331  1.0000
  Fe  Fe71      1.0  0.20712  0.39013  0.12439  1.0000
  S   S138      1.0  0.21137  0.37840  0.11277  1.0000
  Fe  Fe72      1.0  0.19766  0.39600  0.14723  1.0000
  S   S139      1.0  0.18889  0.39176  0.16533  1.0000
  S   S140      1.0  0.21508  0.40498  0.11740  1.0000
  S   S141      1.0  0.20521  0.41121  0.14209  1.0000
  Fe  Fe73      1.0  0.10695  0.39832  0.21282  1.0000
  H   H524      1.0  0.21189  0.54859  0.12749  1.0000
  H   H525      1.0  0.23779  0.39999  0.08147  1.0000
  Fe  Fe74      1.0  0.12740  0.40783  0.19934  1.0000
  S   S142      1.0  0.12790  0.41598  0.21289  1.0000
  S   S143      1.0  0.13670  0.41008  0.18127  1.0000
  C   C319      1.0  0.27075  0.58196  0.98665  1.0000
  Fe  Fe75      1.0  0.10912  0.42080  0.21513  1.0000
  S   S144      1.0  0.09751  0.43676  0.21872  1.0000
  S   S145      1.0  0.12551  0.39122  0.21073  1.0000
  S   S146      1.0  0.10880  0.41426  0.20057  1.0000
  Fe  Fe76      1.0  0.25410  0.55063  0.10394  1.0000
  S   S147      1.0  0.27153  0.54560  0.09424  1.0000
  S   S148      1.0  0.23880  0.55492  0.09656  1.0000
  Fe  Fe77      1.0  0.26196  0.54797  0.12514  1.0000
  S   S149      1.0  0.28013  0.54245  0.11730  1.0000
  S   S150      1.0  0.25685  0.54843  0.14333  1.0000
  Fe  Fe78      1.0  0.27622  0.55653  0.10294  1.0000
  S   S151      1.0  0.28530  0.57033  0.09296  1.0000
  Fe  Fe79      1.0  0.27360  0.53210  0.10945  1.0000
  S   S152      1.0  0.28045  0.51376  0.10922  1.0000
  S   S153      1.0  0.25852  0.56267  0.11134  1.0000
  S   S154      1.0  0.25576  0.53650  0.11857  1.0000
  Fe  Fe80      1.0  0.25073  0.59534  0.04423  1.0000
  S   S155      1.0  0.23475  0.60618  0.03964  1.0000
  S   S156      1.0  0.25577  0.57673  0.04645  1.0000
  Fe  Fe81      1.0  0.26120  0.61480  0.04302  1.0000
  S   S157      1.0  0.24637  0.62747  0.03769  1.0000
  S   S158      1.0  0.27716  0.61675  0.04672  1.0000
  Fe  Fe82      1.0  0.23611  0.61643  0.05106  1.0000
  S   S159      1.0  0.22207  0.62447  0.06344  1.0000
  Fe  Fe83      1.0  0.24624  0.61618  0.02661  1.0000
  S   S160      1.0  0.24526  0.62164  0.00827  1.0000
  S   S161      1.0  0.25094  0.60448  0.05700  1.0000
  S   S162      1.0  0.26220  0.60464  0.03062  1.0000
  H   H526      1.0  0.24489  0.38691  0.07765  1.0000
  Fe  Fe84      1.0  0.22980  0.40164  0.02970  1.0000
  S   S163      1.0  0.24438  0.40480  0.03478  1.0000
  S   S164      1.0  0.23493  0.39844  0.01209  1.0000
  Fe  Fe85      1.0  0.21521  0.40154  0.05306  1.0000
  S   S165      1.0  0.22881  0.40394  0.05986  1.0000
  S   S166      1.0  0.19912  0.40155  0.06581  1.0000
  Fe  Fe86      1.0  0.23150  0.41681  0.04420  1.0000
  S   S167      1.0  0.23186  0.43379  0.04615  1.0000
  Fe  Fe87      1.0  0.24020  0.39169  0.04995  1.0000
  S   S168      1.0  0.25273  0.37715  0.05699  1.0000
  S   S169      1.0  0.21726  0.41510  0.03770  1.0000
  S   S170      1.0  0.22629  0.38789  0.04460  1.0000
  Fe  Fe88      1.0  0.25734  0.44913  0.08703  1.0000
  S   S171      1.0  0.27108  0.45541  0.09012  1.0000
  S   S172      1.0  0.26219  0.43490  0.07806  1.0000
  Fe  Fe89      1.0  0.23939  0.46119  0.10340  1.0000
  S   S173      1.0  0.25155  0.46819  0.10821  1.0000
  S   S174      1.0  0.22121  0.46573  0.11157  1.0000
  Fe  Fe90      1.0  0.25886  0.47192  0.08994  1.0000
  S   S175      1.0  0.26466  0.48815  0.08157  1.0000
  Fe  Fe91      1.0  0.26266  0.45129  0.10804  1.0000
  S   S176      1.0  0.27306  0.44304  0.12089  1.0000
  S   S177      1.0  0.24581  0.46611  0.08494  1.0000
  S   S178      1.0  0.24982  0.44386  0.10510  1.0000
  C   C320      1.0  0.23257  0.39090  0.99484  1.0000
  H   H527      1.0  0.13372  0.37404  0.19543  1.0000
  H   H528      1.0  0.11721  0.37355  0.17537  1.0000
  S   S179      1.0  0.12352  0.61950  0.20753  1.0000
  H   H529      1.0  0.23564  0.61335  0.09239  1.0000
  H   H530      1.0  0.30266  0.64230  0.07128  1.0000
  H   H531      1.0  0.31954  0.64596  0.12456  1.0000
  Fe  Fe92      1.0  0.13790  0.62393  0.21171  1.0000
  S   S180      1.0  0.15415  0.62821  0.20055  1.0000
  C   C321      1.0  0.26715  0.58624  0.13820  1.0000
  Fe  Fe93      1.0  0.29693  0.61947  0.11006  1.0000
  S   S181      1.0  0.27880  0.62606  0.10931  1.0000
  S   S182      1.0  0.30178  0.60073  0.11510  1.0000
  Fe  Fe94      1.0  0.30192  0.64285  0.10667  1.0000
  Fe  Fe95      1.0  0.27938  0.63712  0.12008  1.0000
  H   H532      1.0  0.02236  0.63617  0.21712  1.0000
  Fe  Fe96      1.0  0.28506  0.63905  0.09503  1.0000
  H   H533      1.0  0.24174  0.62623  0.98598  1.0000
  S   S183      1.0  0.29718  0.62978  0.12191  1.0000
  S   S184      1.0  0.30339  0.63172  0.09480  1.0000
  Fe  Fe97      1.0  0.21732  0.60353  0.14718  1.0000
  S   S185      1.0  0.20377  0.59741  0.14367  1.0000
  S   S186      1.0  0.22850  0.59286  0.15866  1.0000
  Fe  Fe98      1.0  0.21271  0.62581  0.13168  1.0000
  S   S187      1.0  0.19871  0.62179  0.12666  1.0000
  H   H534      1.0  0.22556  0.63325  0.09092  1.0000
  Fe  Fe99      1.0  0.19339  0.61455  0.14495  1.0000
  S   S188      1.0  0.17471  0.61731  0.15248  1.0000
  Fe  Fe100     1.0  0.21022  0.60515  0.12588  1.0000
  S   S189      1.0  0.21398  0.59552  0.11244  1.0000
  S   S190      1.0  0.20648  0.62010  0.15004  1.0000
  S   S191      1.0  0.22470  0.60978  0.12931  1.0000
  H   H535      1.0  0.29802  0.65216  0.12513  1.0000
  H   H536      1.0  0.25181  0.62923  0.10095  1.0000
  H   H537      1.0  0.06866  0.46015  0.20454  1.0000
  H   H538      1.0  0.24593  0.63731  0.07238  1.0000
  C   C322      1.0  0.29527  0.33409  0.11118  1.0000
  H   H539      1.0  0.02839  0.60102  0.21908  1.0000
  C   C323      1.0  0.22989  0.61660  0.98617  1.0000
  H   H540      1.0  0.16535  0.60358  0.20278  1.0000
  H   H541      1.0  0.03567  0.60637  0.22625  1.0000
  C   C324      1.0  0.15967  0.62532  0.18712  1.0000
  C   C325      1.0  0.17137  0.62345  0.18309  1.0000
  C   C326      1.0  0.17612  0.62089  0.17251  1.0000
  C   C327      1.0  0.16915  0.62044  0.16579  1.0000
  C   C328      1.0  0.15744  0.62246  0.16976  1.0000
  C   C329      1.0  0.15271  0.62487  0.18040  1.0000
  H   H542      1.0  0.17680  0.62381  0.18826  1.0000
  H   H543      1.0  0.18515  0.61919  0.16960  1.0000
  H   H544      1.0  0.15201  0.62215  0.16457  1.0000
  H   H545      1.0  0.14367  0.62648  0.18336  1.0000
  H   H546      1.0  0.28262  0.34013  0.12999  1.0000
  H   H547      1.0  0.24893  0.58165  0.99296  1.0000
  H   H548      1.0  0.25744  0.64773  0.11451  1.0000
  H   H549      1.0  0.21638  0.55305  0.14347  1.0000
  H   H550      1.0  0.15455  0.57618  0.19822  1.0000
  H   H551      1.0  0.17388  0.58978  0.20542  1.0000
  C   C330      1.0  0.22699  0.39439  0.00483  1.0000
  C   C331      1.0  0.21540  0.39497  0.00841  1.0000
  C   C332      1.0  0.20941  0.39242  0.00178  1.0000
  C   C333      1.0  0.25269  0.63958  0.13168  1.0000
  H   H552      1.0  0.13899  0.38616  0.18737  1.0000
  S   S192      1.0  0.21906  0.64148  0.12332  1.0000
  H   H553      1.0  0.21100  0.39762  0.01612  1.0000
  H   H554      1.0  0.20040  0.39309  0.00447  1.0000
  H   H555      1.0  0.25712  0.38207  0.01654  1.0000
  C   C334      1.0  0.24037  0.43397  0.05499  1.0000
  C   C335      1.0  0.23947  0.44391  0.05831  1.0000
  C   C336      1.0  0.24593  0.44420  0.06564  1.0000
  C   C337      1.0  0.25352  0.43461  0.06944  1.0000
  C   C338      1.0  0.25446  0.42466  0.06610  1.0000
  C   C339      1.0  0.24781  0.42430  0.05897  1.0000
  H   H556      1.0  0.23378  0.45142  0.05517  1.0000
  H   H557      1.0  0.24524  0.45192  0.06810  1.0000
  H   H558      1.0  0.26040  0.41724  0.06896  1.0000
  H   H559      1.0  0.24860  0.41664  0.05636  1.0000
  C   C340      1.0  0.27625  0.62446  0.05673  1.0000
  C   C341      1.0  0.28358  0.62051  0.06420  1.0000
  C   C342      1.0  0.28358  0.62691  0.07171  1.0000
  C   C343      1.0  0.27647  0.63745  0.07154  1.0000
  C   C344      1.0  0.26912  0.64137  0.06411  1.0000
  C   C345      1.0  0.26890  0.63484  0.05683  1.0000
  H   H560      1.0  0.28935  0.61252  0.06410  1.0000
  H   H561      1.0  0.28928  0.62381  0.07740  1.0000
  C   C346      1.0  0.21951  0.61621  0.07692  1.0000
  C   C347      1.0  0.21280  0.62124  0.08570  1.0000
  C   C348      1.0  0.21114  0.61497  0.09666  1.0000
  C   C349      1.0  0.21596  0.60357  0.09882  1.0000
  C   C350      1.0  0.22254  0.59850  0.09003  1.0000
  C   C351      1.0  0.22439  0.60482  0.07910  1.0000
  H   H562      1.0  0.20893  0.63003  0.08401  1.0000
  H   H563      1.0  0.20595  0.61892  0.10337  1.0000
  H   H564      1.0  0.22631  0.58970  0.09169  1.0000
  H   H565      1.0  0.22944  0.60085  0.07235  1.0000
  C   C352      1.0  0.23606  0.61728  0.00263  1.0000
  C   C353      1.0  0.23636  0.62061  0.99112  1.0000
  H   H566      1.0  0.05391  0.46556  0.22070  1.0000
  C   C354      1.0  0.22276  0.60946  0.99274  1.0000
  C   C355      1.0  0.22218  0.60642  0.00430  1.0000
  C   C356      1.0  0.22891  0.61018  0.00921  1.0000
  H   H567      1.0  0.25386  0.63878  0.08775  1.0000
  H   H568      1.0  0.20804  0.57740  0.13159  1.0000
  H   H569      1.0  0.21662  0.60098  0.00946  1.0000
  H   H570      1.0  0.22852  0.60759  0.01808  1.0000
  C   C357      1.0  0.24929  0.56108  0.14711  1.0000
  C   C358      1.0  0.24858  0.56243  0.15785  1.0000
  C   C359      1.0  0.24229  0.57227  0.16127  1.0000
  C   C360      1.0  0.23642  0.58069  0.15408  1.0000
  C   C361      1.0  0.23709  0.57936  0.14331  1.0000
  C   C362      1.0  0.24369  0.56963  0.13977  1.0000
  H   H571      1.0  0.25290  0.55583  0.16355  1.0000
  H   H572      1.0  0.24181  0.57326  0.16959  1.0000
  H   H573      1.0  0.23255  0.58582  0.13771  1.0000
  H   H574      1.0  0.24425  0.56863  0.13148  1.0000
  C   C363      1.0  0.28872  0.57905  0.09977  1.0000
  C   C364      1.0  0.29154  0.57497  0.11023  1.0000
  C   C365      1.0  0.29552  0.58170  0.11487  1.0000
  C   C366      1.0  0.29634  0.59267  0.10926  1.0000
  C   C367      1.0  0.16602  0.59232  0.18716  1.0000
  H   H575      1.0  0.29857  0.48156  0.11426  1.0000
  H   H576      1.0  0.29118  0.56644  0.11450  1.0000
  H   H577      1.0  0.29815  0.57834  0.12274  1.0000
  H   H578      1.0  0.26125  0.58198  0.13658  1.0000
  N   N33       1.0  0.26407  0.59850  0.13441  1.0000
  C   C368      1.0  0.26816  0.49583  0.08943  1.0000
  C   C369      1.0  0.27504  0.50353  0.08391  1.0000
  C   C370      1.0  0.27825  0.50959  0.08991  1.0000
  C   C371      1.0  0.27459  0.50800  0.10148  1.0000
  C   C372      1.0  0.26747  0.50050  0.10699  1.0000
  C   C373      1.0  0.26422  0.49447  0.10097  1.0000
  H   H579      1.0  0.27815  0.50462  0.07499  1.0000
  H   H580      1.0  0.28392  0.51519  0.08562  1.0000
  H   H581      1.0  0.26467  0.49919  0.11596  1.0000
  H   H582      1.0  0.25871  0.48876  0.10529  1.0000
  C   C374      1.0  0.24287  0.56063  0.08237  1.0000
  C   C375      1.0  0.25251  0.55516  0.07595  1.0000
  C   C376      1.0  0.25600  0.55982  0.06469  1.0000
  C   C377      1.0  0.25018  0.57026  0.05996  1.0000
  C   C378      1.0  0.24050  0.57573  0.06633  1.0000
  C   C379      1.0  0.23668  0.57077  0.07748  1.0000
  H   H583      1.0  0.25729  0.54731  0.07962  1.0000
  H   H584      1.0  0.26348  0.55558  0.05976  1.0000
  H   H585      1.0  0.23596  0.58379  0.06266  1.0000
  H   H586      1.0  0.22913  0.57495  0.08237  1.0000
  H   H587      1.0  0.22864  0.42969  0.15185  1.0000
  H   H588      1.0  0.09256  0.60035  0.22596  1.0000
  H   H589      1.0  0.28500  0.32524  0.13181  1.0000
  C   C380      1.0  0.06635  0.62205  0.22616  1.0000
  C   C381      1.0  0.03453  0.61980  0.20618  1.0000
  C   C382      1.0  0.08076  0.39733  0.21395  1.0000
  C   C383      1.0  0.07953  0.40848  0.20831  1.0000
  C   C384      1.0  0.06887  0.41558  0.20917  1.0000
  H   H590      1.0  0.23112  0.63411  0.10220  1.0000
  C   C385      1.0  0.25874  0.38065  0.09207  1.0000
  H   H591      1.0  0.23477  0.44708  0.14041  1.0000
  H   H592      1.0  0.08674  0.41162  0.20305  1.0000
  H   H593      1.0  0.06800  0.42411  0.20455  1.0000
  Fe  Fe101     1.0  0.03454  0.41469  0.23348  1.0000
  H   H594      1.0  0.07773  0.45343  0.21421  1.0000
  C   C386      1.0  0.17424  0.39610  0.16972  1.0000
  C   C387      1.0  0.16722  0.40045  0.16205  1.0000
  C   C388      1.0  0.15568  0.40458  0.16575  1.0000
  C   C389      1.0  0.15110  0.40430  0.17713  1.0000
  C   C390      1.0  0.15804  0.39963  0.18484  1.0000
  C   C391      1.0  0.16959  0.39556  0.18112  1.0000
  H   H595      1.0  0.17071  0.40071  0.15328  1.0000
  H   H596      1.0  0.15031  0.40808  0.15977  1.0000
  H   H597      1.0  0.15456  0.39935  0.19363  1.0000
  H   H598      1.0  0.17499  0.39213  0.18710  1.0000
  C   C392      1.0  0.21293  0.45604  0.11318  1.0000
  C   C393      1.0  0.20127  0.45975  0.11435  1.0000
  C   C394      1.0  0.19440  0.45217  0.11597  1.0000
  C   C395      1.0  0.19912  0.44079  0.11681  1.0000
  C   C396      1.0  0.21077  0.43703  0.11574  1.0000
  C   C397      1.0  0.21770  0.44467  0.11372  1.0000
  H   H599      1.0  0.19757  0.46853  0.11391  1.0000
  H   H600      1.0  0.18541  0.45512  0.11672  1.0000
  H   H601      1.0  0.21448  0.42825  0.11639  1.0000
  H   H602      1.0  0.22667  0.44174  0.11278  1.0000
  C   C398      1.0  0.20791  0.38499  0.09979  1.0000
  C   C399      1.0  0.19891  0.39417  0.09884  1.0000
  C   C400      1.0  0.19601  0.39907  0.08843  1.0000
  C   C401      1.0  0.20241  0.39510  0.07890  1.0000
  C   C402      1.0  0.21164  0.38618  0.07981  1.0000
  C   C403      1.0  0.21424  0.38099  0.09027  1.0000
  H   H603      1.0  0.19396  0.39723  0.10618  1.0000
  H   H604      1.0  0.18884  0.40593  0.08775  1.0000
  H   H605      1.0  0.21658  0.38307  0.07248  1.0000
  H   H606      1.0  0.22114  0.37384  0.09098  1.0000
  H   H607      1.0  0.25199  0.36471  0.12486  1.0000
  H   H608      1.0  0.30837  0.42186  0.05503  1.0000
  C   C404      1.0  0.28258  0.38663  0.06343  1.0000
  C   C405      1.0  0.27546  0.39451  0.05697  1.0000
  C   C406      1.0  0.26621  0.39169  0.05503  1.0000
  C   C407      1.0  0.26420  0.38090  0.05935  1.0000
  C   C408      1.0  0.27133  0.37301  0.06578  1.0000
  C   C409      1.0  0.28044  0.37591  0.06793  1.0000
  H   H609      1.0  0.27708  0.40282  0.05349  1.0000
  H   H610      1.0  0.26072  0.39783  0.05008  1.0000
  H   H611      1.0  0.26979  0.36466  0.06914  1.0000
  H   H612      1.0  0.28595  0.36977  0.07285  1.0000
  C   C410      1.0  0.28243  0.43102  0.11714  1.0000
  C   C411      1.0  0.29245  0.42722  0.12101  1.0000
  C   C412      1.0  0.30031  0.41799  0.11767  1.0000
  C   C413      1.0  0.29801  0.41223  0.11083  1.0000
  C   C414      1.0  0.28779  0.41576  0.10728  1.0000
  C   C415      1.0  0.28011  0.42533  0.11021  1.0000
  H   H613      1.0  0.29427  0.43150  0.12641  1.0000
  H   H614      1.0  0.30820  0.41526  0.12044  1.0000
  H   H615      1.0  0.28593  0.41126  0.10209  1.0000
  H   H616      1.0  0.27238  0.42822  0.10717  1.0000
  C   C416      1.0  0.26545  0.37330  0.12203  1.0000
  C   C417      1.0  0.26825  0.38305  0.12259  1.0000
  C   C418      1.0  0.25981  0.39178  0.12626  1.0000
  C   C419      1.0  0.24852  0.39084  0.12931  1.0000
  C   C420      1.0  0.24575  0.38104  0.12881  1.0000
  C   C421      1.0  0.25421  0.37224  0.12528  1.0000
  H   H617      1.0  0.27693  0.38385  0.12030  1.0000
  H   H618      1.0  0.26209  0.39930  0.12657  1.0000
  H   H619      1.0  0.23709  0.38022  0.13113  1.0000
  H   H620      1.0  0.20117  0.56600  0.13387  1.0000
  N   N34       1.0  0.20855  0.42978  0.07944  1.0000
  C   C422      1.0  0.20046  0.42856  0.09025  1.0000
  C   C423      1.0  0.21887  0.42105  0.08031  1.0000
  C   C424      1.0  0.21140  0.44091  0.07652  1.0000
  C   C425      1.0  0.20354  0.42857  0.07066  1.0000
  H   H621      1.0  0.19252  0.43497  0.08995  1.0000
  H   H622      1.0  0.20399  0.42948  0.09703  1.0000
  H   H623      1.0  0.19819  0.42022  0.09276  1.0000
  H   H624      1.0  0.22521  0.42188  0.07233  1.0000
  H   H625      1.0  0.22282  0.42163  0.08694  1.0000
  H   H626      1.0  0.21700  0.41255  0.08228  1.0000
  H   H627      1.0  0.21718  0.44221  0.06820  1.0000
  H   H628      1.0  0.21563  0.44198  0.08272  1.0000
  H   H629      1.0  0.20376  0.44770  0.07613  1.0000
  H   H630      1.0  0.19582  0.43511  0.06960  1.0000
  H   H631      1.0  0.20115  0.42033  0.07264  1.0000
  H   H632      1.0  0.20955  0.42920  0.06242  1.0000
  S   S193      1.0  0.12493  0.58756  0.22107  1.0000
  H   H633      1.0  0.13382  0.39549  0.16907  1.0000
  H   H634      1.0  0.31921  0.33940  0.09125  1.0000
  H   H635      1.0  0.12089  0.36688  0.18861  1.0000
  H   H636      1.0  0.18284  0.65306  0.16270  1.0000
  H   H637      1.0  0.24531  0.42426  0.12440  1.0000
  H   H638      1.0  0.28420  0.46378  0.12656  1.0000
  Fe  Fe102     1.0  0.11255  0.62837  0.22107  1.0000
  H   H639      1.0  0.12473  0.39016  0.16402  1.0000
  C   C426      1.0  0.30311  0.46614  0.10186  1.0000
  H   H640      1.0  0.32910  0.65282  0.13544  1.0000
  H   H641      1.0  0.07773  0.61272  0.21429  1.0000
  C   C427      1.0  0.32625  0.33385  0.09455  1.0000
  N   N35       1.0  0.18253  0.65186  0.14622  1.0000
  H   H642      1.0  0.09791  0.58561  0.22951  1.0000
  H   H643      1.0  0.24091  0.61443  0.10375  1.0000
  N   N36       1.0  0.24374  0.43035  0.13912  1.0000
  H   H644      1.0  0.25047  0.60969  0.09180  1.0000
  C   C428      1.0  0.25085  0.42967  0.14693  1.0000
  H   H645      1.0  0.20512  0.57403  0.12002  1.0000
  H   H646      1.0  0.23664  0.41633  0.14907  1.0000
  H   H647      1.0  0.24614  0.43424  0.15368  1.0000
  H   H648      1.0  0.25398  0.42085  0.15091  1.0000
  H   H649      1.0  0.25838  0.43334  0.14253  1.0000
  H   H650      1.0  0.14279  0.59680  0.20753  1.0000
  H   H651      1.0  0.17470  0.58715  0.18664  1.0000
  H   H652      1.0  0.27899  0.58270  0.98771  1.0000
  C   C429      1.0  0.23205  0.64055  0.12652  1.0000
  H   H653      1.0  0.23911  0.36131  0.02265  1.0000
  H   H654      1.0  0.24275  0.36667  0.04335  1.0000
  H   H655      1.0  0.28720  0.59331  0.08614  1.0000
  C   C430      1.0  0.24904  0.39820  0.09731  1.0000
  H   H656      1.0  0.24014  0.38036  0.10855  1.0000
  H   H657      1.0  0.00258  0.40090  0.22675  1.0000
  H   H658      1.0  0.07196  0.43835  0.23033  1.0000
  C   C431      1.0  0.08565  0.62418  0.21783  1.0000
  N   N37       1.0  0.12732  0.38173  0.18048  1.0000
  C   C432      1.0  0.08421  0.63259  0.22364  1.0000
  C   C433      1.0  0.23879  0.38378  0.09990  1.0000
  C   C434      1.0  0.15872  0.57914  0.20327  1.0000
  H   H659      1.0  0.23056  0.38983  0.10044  1.0000
  H   H660      1.0  0.23788  0.37676  0.09673  1.0000
  N   N38       1.0  0.26163  0.59120  0.99008  1.0000
  H   H661      1.0  0.30347  0.47188  0.09353  1.0000
  H   H662      1.0  0.03252  0.62683  0.22468  1.0000
  H   H663      1.0  0.26069  0.37690  0.10047  1.0000
  C   C435      1.0  0.18123  0.64729  0.15834  1.0000
  N   N39       1.0  0.17255  0.43268  0.15201  1.0000
  C   C436      1.0  0.17588  0.42462  0.16193  1.0000
  C   C437      1.0  0.18165  0.43876  0.14602  1.0000
  C   C438      1.0  0.16214  0.44070  0.15554  1.0000
  C   C439      1.0  0.17051  0.42665  0.14451  1.0000
  H   H664      1.0  0.16898  0.42031  0.16695  1.0000
  H   H665      1.0  0.17804  0.42879  0.16752  1.0000
  H   H666      1.0  0.18334  0.41802  0.15958  1.0000
  H   H667      1.0  0.17945  0.44483  0.13842  1.0000
  H   H668      1.0  0.18345  0.44345  0.15137  1.0000
  H   H669      1.0  0.18959  0.43296  0.14316  1.0000
  H   H670      1.0  0.16337  0.44542  0.16122  1.0000
  H   H671      1.0  0.15511  0.43635  0.16010  1.0000
  H   H672      1.0  0.16852  0.43239  0.13667  1.0000
  H   H673      1.0  0.16337  0.42237  0.14853  1.0000
  H   H674      1.0  0.17805  0.42020  0.14203  1.0000
  S   S194      1.0  0.33211  0.35272  0.09616  1.0000
  H   H675      1.0  0.08383  0.45158  0.23271  1.0000
  H   H676      1.0  0.15364  0.57792  0.21197  1.0000
  H   H677      1.0  0.26109  0.62447  0.08891  1.0000
  C   C440      1.0  0.24191  0.36913  0.02190  1.0000
  C   C441      1.0  0.12687  0.57859  0.23381  1.0000
  C   C442      1.0  0.06498  0.63037  0.23204  1.0000
  H   H678      1.0  0.16679  0.60114  0.18363  1.0000
  H   H679      1.0  0.23906  0.64897  0.11007  1.0000
  H   H680      1.0  0.32397  0.65184  0.06583  1.0000
  H   H681      1.0  0.07201  0.38458  0.22451  1.0000
  C   C443      1.0  0.29420  0.65268  0.13397  1.0000
  H   H682      1.0  0.10350  0.59509  0.23367  1.0000
  H   H683      1.0  0.25317  0.62295  0.07354  1.0000
  Fe  Fe103     1.0  0.12585  0.60478  0.22171  1.0000
  H   H684      1.0  0.05334  0.39744  0.22695  1.0000
  C   C444      1.0  0.06062  0.40053  0.22174  1.0000
  N   N40       1.0  0.24194  0.52472  0.08261  1.0000
  C   C445      1.0  0.23798  0.51426  0.08452  1.0000
  C   C446      1.0  0.24616  0.52478  0.09239  1.0000
  C   C447      1.0  0.23254  0.53441  0.08096  1.0000
  C   C448      1.0  0.25110  0.52541  0.07257  1.0000
  H   H685      1.0  0.23482  0.51387  0.07727  1.0000
  H   H686      1.0  0.23107  0.51342  0.09202  1.0000
  H   H687      1.0  0.24490  0.50679  0.08580  1.0000
  H   H688      1.0  0.24920  0.53253  0.09130  1.0000
  H   H689      1.0  0.23949  0.52424  0.10012  1.0000
  H   H690      1.0  0.25330  0.51765  0.09382  1.0000
  H   H691      1.0  0.22554  0.53426  0.08843  1.0000
  H   H692      1.0  0.22909  0.53462  0.07369  1.0000
  H   H693      1.0  0.23529  0.54243  0.07942  1.0000
  H   H694      1.0  0.25443  0.53310  0.07095  1.0000
  H   H695      1.0  0.24815  0.52554  0.06501  1.0000
  H   H696      1.0  0.25824  0.51813  0.07344  1.0000
  H   H697      1.0  0.11961  0.39690  0.18644  1.0000
  H   H698      1.0  0.31133  0.34264  0.11391  1.0000
  H   H699      1.0  0.25581  0.40253  0.09191  1.0000
  H   H700      1.0  0.03308  0.62815  0.20052  1.0000
  H   H701      1.0  0.11039  0.39152  0.18164  1.0000
  H   H702      1.0  0.16719  0.57363  0.20339  1.0000
  C   C449      1.0  0.29225  0.46163  0.12056  1.0000
  H   H703      1.0  0.24557  0.63145  0.14822  1.0000
  H   H704      1.0  0.25107  0.39500  0.10572  1.0000
  H   H705      1.0  0.26528  0.57661  0.06780  1.0000
  H   H706      1.0  0.29130  0.48708  0.10297  1.0000
  H   H707      1.0  0.29195  0.56934  0.04713  1.0000
  H   H708      1.0  0.14359  0.59568  0.19361  1.0000
  H   H709      1.0  0.23476  0.37478  0.02627  1.0000
  H   H710      1.0  0.27501  0.56724  0.07591  1.0000
  H   H711      1.0  0.28279  0.47483  0.09679  1.0000
  H   H712      1.0  0.25367  0.41532  0.13398  1.0000
  N   N41       1.0  0.21889  0.56259  0.12662  1.0000
  C   C450      1.0  0.21826  0.55334  0.12196  1.0000
  C   C451      1.0  0.22729  0.56870  0.11884  1.0000
  C   C452      1.0  0.22229  0.55807  0.13749  1.0000
  C   C453      1.0  0.20779  0.57029  0.12813  1.0000
  H   H713      1.0  0.22653  0.54739  0.12075  1.0000
  H   H714      1.0  0.21599  0.55652  0.11362  1.0000
  H   H715      1.0  0.22496  0.57237  0.11057  1.0000
  H   H716      1.0  0.22819  0.57566  0.12210  1.0000
  H   H717      1.0  0.23565  0.56306  0.11732  1.0000
  H   H718      1.0  0.22247  0.56490  0.14139  1.0000
  H   H719      1.0  0.23089  0.55263  0.13657  1.0000
  H   H720      1.0  0.15937  0.44687  0.14825  1.0000
  H   H721      1.0  0.24732  0.35327  0.03961  1.0000
  H   H722      1.0  0.29628  0.43059  0.08240  1.0000
  H   H723      1.0  0.27708  0.59502  0.05811  1.0000
  Fe  Fe104     1.0  0.12444  0.39986  0.22440  1.0000
  H   H724      1.0  0.31115  0.64581  0.05763  1.0000
  H   H725      1.0  0.25719  0.35981  0.04221  1.0000
  H   H726      1.0  0.29925  0.46169  0.12434  1.0000
  H   H727      1.0  0.26335  0.63802  0.05098  1.0000
  C   C454      1.0  0.30412  0.34185  0.12116  1.0000
  C   C455      1.0  0.23394  0.42529  0.14517  1.0000
  H   H728      1.0  0.16194  0.58993  0.18163  1.0000
  H   H729      1.0  0.31042  0.42915  0.06445  1.0000
  C   C456      1.0  0.30393  0.42726  0.06116  1.0000
  H   H730      1.0  0.28582  0.43734  0.07407  1.0000
  H   H731      1.0  0.28233  0.42730  0.06139  1.0000
  H   H732      1.0  0.25838  0.37371  0.08845  1.0000
  S   S195      1.0  0.26551  0.63909  0.13500  1.0000
  H   H733      1.0  0.26596  0.38440  0.08682  1.0000
  C   C457      1.0  0.28740  0.41946  0.06551  1.0000
  H   H734      1.0  0.29138  0.41416  0.05922  1.0000
  C   C458      1.0  0.25297  0.63004  0.09181  1.0000
  H   H735      1.0  0.05668  0.44147  0.20790  1.0000
  H   H736      1.0  0.14814  0.60691  0.19612  1.0000
  N   N42       1.0  0.29589  0.42174  0.07024  1.0000
  C   C459      1.0  0.24261  0.61568  0.09452  1.0000
  C   C460      1.0  0.23980  0.44218  0.13402  1.0000
  H   H737      1.0  0.24700  0.44622  0.12932  1.0000
  H   H738      1.0  0.25834  0.59723  0.12039  1.0000
  H   H739      1.0  0.28139  0.41497  0.07210  1.0000
  C   C461      1.0  0.25536  0.37757  0.02540  1.0000
  H   H740      1.0  0.25922  0.35150  0.02091  1.0000
  N   N43       1.0  0.24345  0.62733  0.08904  1.0000
  H   H741      1.0  0.03541  0.61338  0.20132  1.0000
  H   H742      1.0  0.02083  0.60684  0.23101  1.0000
  C   C462      1.0  0.07664  0.61909  0.21892  1.0000
  H   H743      1.0  0.22853  0.42552  0.13941  1.0000
  H   H744      1.0  0.28356  0.48364  0.11698  1.0000
  H   H745      1.0  0.25205  0.60056  0.14969  1.0000
  S   S196      1.0  0.21462  0.60417  0.98674  1.0000
  C   C463      1.0  0.24574  0.39359  0.08136  1.0000
  C   C464      1.0  0.10066  0.44196  0.22877  1.0000
  H   H746      1.0  0.24627  0.59915  0.13885  1.0000
  H   H747      1.0  0.29360  0.60537  0.09466  1.0000
  N   N44       1.0  0.24807  0.38906  0.09266  1.0000
  H   H748      1.0  0.25263  0.39755  0.07562  1.0000
  H   H749      1.0  0.24104  0.40456  0.09818  1.0000
  C   C465      1.0  0.25265  0.60275  0.14050  1.0000
  H   H750      1.0  0.29956  0.43526  0.05654  1.0000
  H   H751      1.0  0.18575  0.63572  0.14240  1.0000
  C   C466      1.0  0.07381  0.63576  0.23061  1.0000
  C   C467      1.0  0.24530  0.62862  0.07683  1.0000
  H   H752      1.0  0.25013  0.61199  0.13804  1.0000
  S   S197      1.0  0.28386  0.65090  0.10586  1.0000
  H   H753      1.0  0.09361  0.62181  0.21231  1.0000
  H   H754      1.0  0.26692  0.58383  0.14732  1.0000
  C   C468      1.0  0.29283  0.57695  0.06461  1.0000
  C   C469      1.0  0.13642  0.37864  0.18677  1.0000
  H   H755      1.0  0.29545  0.56879  0.07017  1.0000
  H   H756      1.0  0.27745  0.56838  0.05146  1.0000
  H   H757      1.0  0.30002  0.57831  0.05751  1.0000
  H   H758      1.0  0.30627  0.40529  0.07031  1.0000
  C   C470      1.0  0.28496  0.56831  0.05453  1.0000
  C   C471      1.0  0.01453  0.62052  0.21268  1.0000
  H   H759      1.0  0.17259  0.64576  0.16221  1.0000
  C   C472      1.0  0.26425  0.60123  0.12234  1.0000
  H   H760      1.0  0.27577  0.58277  0.13383  1.0000
  C   C473      1.0  0.29023  0.42911  0.07824  1.0000
  H   H761      1.0  0.28726  0.55993  0.05987  1.0000
  C   C474      1.0  0.30200  0.41113  0.07606  1.0000
  H   H762      1.0  0.26186  0.61040  0.11923  1.0000
  C   C475      1.0  0.27221  0.60377  0.13658  1.0000
  H   H763      1.0  0.27234  0.60182  0.14561  1.0000
  C   C476      1.0  0.02765  0.60779  0.22343  1.0000
  N   N45       1.0  0.28265  0.57726  0.06076  1.0000
  H   H764      1.0  0.28651  0.59013  0.04630  1.0000
  H   H765      1.0  0.27173  0.58189  0.07569  1.0000
  H   H766      1.0  0.29131  0.58353  0.06947  1.0000
  H   H767      1.0  0.29616  0.40682  0.08296  1.0000
  C   C477      1.0  0.09563  0.59349  0.23262  1.0000
  C   C478      1.0  0.14801  0.59789  0.19897  1.0000
  H   H768      1.0  0.27220  0.58851  0.04990  1.0000
  H   H769      1.0  0.27279  0.59826  0.11748  1.0000
  H   H770      1.0  0.27009  0.61304  0.13389  1.0000
  H   H771      1.0  0.14407  0.37328  0.18268  1.0000
  C   C479      1.0  0.27326  0.57565  0.07045  1.0000
  C   C480      1.0  0.27950  0.58820  0.05343  1.0000
  H   H772      1.0  0.30847  0.41246  0.07980  1.0000
  H   H773      1.0  0.28373  0.42539  0.08489  1.0000
  H   H774      1.0  0.00738  0.62007  0.22000  1.0000
  N   N46       1.0  0.15947  0.59097  0.19876  1.0000
  H   H775      1.0  0.11423  0.38489  0.19479  1.0000
  H   H776      1.0  0.28092  0.60083  0.13203  1.0000
  H   H777      1.0  0.29302  0.45291  0.11978  1.0000
  N   N47       1.0  0.02528  0.61893  0.21612  1.0000
  C   C481      1.0  0.29298  0.59694  0.09905  1.0000
  C   C482      1.0  0.02445  0.62762  0.22224  1.0000
  H   H778      1.0  0.26290  0.37631  0.02894  1.0000
  C   C483      1.0  0.07122  0.39328  0.22041  1.0000
  C   C484      1.0  0.11746  0.38906  0.18608  1.0000
  H   H779      1.0  0.23436  0.44303  0.12810  1.0000
  H   H780      1.0  0.22748  0.63196  0.14356  1.0000
  C   C485      1.0  0.23290  0.63497  0.09299  1.0000
  C   C486      1.0  0.28935  0.59008  0.09424  1.0000
  H   H781      1.0  0.28340  0.46056  0.10408  1.0000
  S   S198      1.0  0.09423  0.38858  0.21333  1.0000
  N   N48       1.0  0.29244  0.46946  0.10964  1.0000
  C   C487      1.0  0.29144  0.48091  0.11102  1.0000
  H   H782      1.0  0.27471  0.47159  0.11072  1.0000
  S   S199      1.0  0.12668  0.63428  0.22396  1.0000
  H   H783      1.0  0.30410  0.45754  0.10062  1.0000
  C   C488      1.0  0.25043  0.42421  0.13034  1.0000
  H   H784      1.0  0.25782  0.42783  0.12549  1.0000
  S   S200      1.0  0.04634  0.42101  0.21783  1.0000
  C   C489      1.0  0.05945  0.41171  0.21611  1.0000
  C   C490      1.0  0.28292  0.46912  0.10509  1.0000
  H   H785      1.0  0.31050  0.46628  0.10503  1.0000
  C   C491      1.0  0.12404  0.37152  0.18008  1.0000
  H   H786      1.0  0.13129  0.36576  0.17596  1.0000
  H   H787      1.0  0.13887  0.38248  0.16458  1.0000
  C   C492      1.0  0.24052  0.64500  0.11835  1.0000
  S   S201      1.0  0.14086  0.60852  0.22504  1.0000
  H   H788      1.0  0.07569  0.44573  0.20524  1.0000
  N   N49       1.0  0.06169  0.44870  0.21885  1.0000
  H   H789      1.0  0.18721  0.63917  0.16012  1.0000
  C   C493      1.0  0.05315  0.44765  0.21336  1.0000
  S   S202      1.0  0.27669  0.64610  0.08026  1.0000
  C   C494      1.0  0.24420  0.63516  0.13986  1.0000
  H   H790      1.0  0.23326  0.64384  0.08910  1.0000
  C   C495      1.0  0.31645  0.65510  0.07187  1.0000
  H   H791      1.0  0.26363  0.64954  0.06390  1.0000
  H   H792      1.0  0.20041  0.64533  0.14289  1.0000
  H   H793      1.0  0.26921  0.35780  0.02355  1.0000
  C   C496      1.0  0.22659  0.38843  0.98822  1.0000
  H   H794      1.0  0.28845  0.64669  0.13732  1.0000
  C   C497      1.0  0.24975  0.36138  0.03841  1.0000
  H   H795      1.0  0.04979  0.45574  0.20813  1.0000
  H   H796      1.0  0.23827  0.62665  0.07445  1.0000
  C   C498      1.0  0.25091  0.64431  0.12087  1.0000
  S   S203      1.0  0.10572  0.40535  0.22754  1.0000
  C   C499      1.0  0.19421  0.65336  0.14140  1.0000
  S   S204      1.0  0.09519  0.63936  0.22222  1.0000
  C   C500      1.0  0.16507  0.59455  0.20568  1.0000
  C   C501      1.0  0.26140  0.35961  0.02028  1.0000
  H   H797      1.0  0.26338  0.36359  0.01127  1.0000
  N   N50       1.0  0.25210  0.36692  0.02650  1.0000
  C   C502      1.0  0.23398  0.63543  0.13722  1.0000
  H   H798      1.0  0.24340  0.37332  0.01292  1.0000
  H   H799      1.0  0.24378  0.59636  0.99143  1.0000
  H   H800      1.0  0.24156  0.39028  0.99208  1.0000
  H   H801      1.0  0.29505  0.65634  0.08303  1.0000
  H   H802      1.0  0.29118  0.32727  0.11133  1.0000
  N   N51       1.0  0.29896  0.33249  0.12170  1.0000
  H   H803      1.0  0.24849  0.38326  0.02993  1.0000
  H   H804      1.0  0.16054  0.59333  0.21455  1.0000
  H   H805      1.0  0.28910  0.34212  0.10959  1.0000
  H   H806      1.0  0.11805  0.43339  0.22676  1.0000
  H   H807      1.0  0.25761  0.60911  0.98573  1.0000
  S   S205      1.0  0.05549  0.61488  0.22833  1.0000
  S   S206      1.0  0.31287  0.65590  0.10282  1.0000
  H   H808      1.0  0.01779  0.62703  0.22999  1.0000
  H   H809      1.0  0.04274  0.61859  0.20857  1.0000
  C   C503      1.0  0.06563  0.43781  0.22593  1.0000
  C   C504      1.0  0.32210  0.65388  0.12128  1.0000
  H   H810      1.0  0.06273  0.45795  0.23038  1.0000
  C   C505      1.0  0.26059  0.59103  0.00198  1.0000
  C   C506      1.0  0.09215  0.44920  0.23451  1.0000
  C   C507      1.0  0.28910  0.33223  0.13109  1.0000
  H   H811      1.0  0.01476  0.61400  0.20820  1.0000
  H   H812      1.0  0.29789  0.34991  0.12032  1.0000
  H   H813      1.0  0.29151  0.33124  0.13916  1.0000
  C   C508      1.0  0.25093  0.58989  0.98840  1.0000
  C   C509      1.0  0.07134  0.45218  0.21031  1.0000
  H   H814      1.0  0.30114  0.64976  0.13862  1.0000
  C   C510      1.0  0.30403  0.64924  0.06395  1.0000
  H   H815      1.0  0.25377  0.59796  0.00477  1.0000
  H   H816      1.0  0.01250  0.62881  0.20709  1.0000
  H   H817      1.0  0.04589  0.44472  0.21959  1.0000
  C   C511      1.0  0.11141  0.43894  0.23122  1.0000
  H   H818      1.0  0.06974  0.43132  0.22089  1.0000
  H   H819      1.0  0.26848  0.59205  0.00358  1.0000
  H   H820      1.0  0.07358  0.59692  0.23458  1.0000
  C   C512      1.0  0.05665  0.45716  0.22580  1.0000
  H   H821      1.0  0.25850  0.58310  0.00742  1.0000
  H   H822      1.0  0.30732  0.34081  0.12881  1.0000
  C   C513      1.0  0.21495  0.38933  0.99155  1.0000
  H   H823      1.0  0.26906  0.57371  0.99161  1.0000
  H   H824      1.0  0.21708  0.41286  0.98722  1.0000
  C   C514      1.0  0.18004  0.64401  0.14090  1.0000
  H   H825      1.0  0.29629  0.65169  0.06044  1.0000
  H   H826      1.0  0.18108  0.64703  0.13172  1.0000
  H   H827      1.0  0.04912  0.45501  0.23213  1.0000
  H   H828      1.0  0.17130  0.64262  0.14431  1.0000
  H   H829      1.0  0.30248  0.33425  0.10391  1.0000
  H   H830      1.0  0.31547  0.64837  0.07948  1.0000
  H   H831      1.0  0.05852  0.43475  0.23226  1.0000
  S   S207      1.0  0.11374  0.61322  0.23480  1.0000
  H   H832      1.0  0.19562  0.65650  0.13220  1.0000
  C   C515      1.0  0.33377  0.33826  0.09760  1.0000
  H   H833      1.0  0.07259  0.64236  0.23499  1.0000
  H   H834      1.0  0.11378  0.57010  0.23492  1.0000
  Fe  Fe105     1.0  0.09586  0.36554  0.29062  1.0000
  S   S208      1.0  0.10605  0.36632  0.30227  1.0000
  S   S209      1.0  0.10267  0.35990  0.27438  1.0000
  Fe  Fe106     1.0  0.07409  0.37659  0.30360  1.0000
  S   S210      1.0  0.08214  0.37839  0.31656  1.0000
  S   S211      1.0  0.05619  0.38518  0.30314  1.0000
  Fe  Fe107     1.0  0.09567  0.38360  0.30224  1.0000
  S   S212      1.0  0.10362  0.39788  0.30099  1.0000
  Fe  Fe108     1.0  0.09187  0.36089  0.31595  1.0000
  S   S213      1.0  0.08681  0.38339  0.28928  1.0000
  S   S214      1.0  0.08244  0.35851  0.30421  1.0000
  H   H835      1.0  0.11007  0.57722  0.28942  1.0000
  Fe  Fe109     1.0  0.11273  0.55363  0.27735  1.0000
  S   S215      1.0  0.10791  0.54718  0.29583  1.0000
  S   S216      1.0  0.12942  0.55796  0.26859  1.0000
  Fe  Fe110     1.0  0.08954  0.55558  0.27369  1.0000
  S   S217      1.0  0.08281  0.54917  0.29174  1.0000
  S   S218      1.0  0.07834  0.56124  0.26133  1.0000
  Fe  Fe111     1.0  0.09214  0.56054  0.29489  1.0000
  S   S219      1.0  0.08247  0.57391  0.30475  1.0000
  Fe  Fe112     1.0  0.09904  0.53653  0.29075  1.0000
  S   S220      1.0  0.09886  0.51823  0.29778  1.0000
  S   S221      1.0  0.09775  0.56769  0.27680  1.0000
  S   S222      1.0  0.10511  0.54213  0.27236  1.0000
  Fe  Fe113     1.0  0.03285  0.60822  0.26767  1.0000
  S   S223      1.0  0.02872  0.60862  0.25146  1.0000
  S   S224      1.0  0.03479  0.59331  0.28150  1.0000
  Fe  Fe114     1.0  0.03593  0.63191  0.26147  1.0000
  H   H836      1.0  0.01502  0.35601  0.26137  1.0000
  C   C516      1.0  0.09179  0.58366  0.25172  1.0000
  Fe  Fe115     1.0  0.01782  0.62528  0.25369  1.0000
  C   C517      1.0  0.11362  0.44327  0.23934  1.0000
  H   H837      1.0  0.05899  0.54654  0.27027  1.0000
  S   S225      1.0  0.02101  0.62424  0.27062  1.0000
  S   S226      1.0  0.04800  0.61573  0.25983  1.0000
  Fe  Fe116     1.0  0.03275  0.39600  0.25366  1.0000
  H   H838      1.0  0.04762  0.53198  0.27488  1.0000
  S   S227      1.0  0.04085  0.37906  0.26210  1.0000
  Fe  Fe117     1.0  0.02452  0.42015  0.25611  1.0000
  C   C518      1.0  0.05982  0.53052  0.29624  1.0000
  S   S228      1.0  0.02225  0.43173  0.26759  1.0000
  H   H839      1.0  0.10987  0.46854  0.27257  1.0000
  H   H840      1.0  0.04840  0.40882  0.30292  1.0000
  S   S229      1.0  0.01655  0.40530  0.26218  1.0000
  S   S230      1.0  0.04127  0.41042  0.24904  1.0000
  Fe  Fe118     1.0  0.07206  0.45584  0.28700  1.0000
  S   S231      1.0  0.07747  0.44983  0.27103  1.0000
  S   S232      1.0  0.06744  0.44290  0.30228  1.0000
  Fe  Fe119     1.0  0.07341  0.47977  0.27581  1.0000
  S   S233      1.0  0.07866  0.47584  0.25877  1.0000
  S   S234      1.0  0.07166  0.49809  0.27536  1.0000
  Fe  Fe120     1.0  0.06572  0.46529  0.26459  1.0000
  S   S235      1.0  0.05644  0.46393  0.25236  1.0000
  Fe  Fe121     1.0  0.09002  0.46071  0.26638  1.0000
  S   S236      1.0  0.10715  0.45472  0.25643  1.0000
  S   S237      1.0  0.05911  0.47064  0.28097  1.0000
  S   S238      1.0  0.08591  0.46529  0.28311  1.0000
  H   H841      1.0  0.06391  0.38481  0.24747  1.0000
  Fe  Fe122     1.0  0.09748  0.62495  0.31320  1.0000
  S   S239      1.0  0.08923  0.63231  0.29861  1.0000
  S   S240      1.0  0.10609  0.60667  0.31636  1.0000
  Fe  Fe123     1.0  0.09662  0.64705  0.29680  1.0000
  H   H842      1.0  0.10602  0.38575  0.34980  1.0000
  Fe  Fe124     1.0  0.07509  0.64041  0.31058  1.0000
  S   S241      1.0  0.05711  0.64007  0.31106  1.0000
  S   S242      1.0  0.10635  0.63906  0.31042  1.0000
  S   S243      1.0  0.08283  0.63212  0.32550  1.0000
  S   S244      1.0  0.09680  0.35086  0.33218  1.0000
  H   H843      1.0  0.11802  0.59788  0.26362  1.0000
  S   S245      1.0  0.13077  0.61601  0.25437  1.0000
  H   H844      1.0  0.10719  0.60823  0.34199  1.0000
  C   C519      1.0  0.11221  0.64462  0.27214  1.0000
  C   C520      1.0  0.11420  0.64655  0.26049  1.0000
  C   C521      1.0  0.11992  0.63781  0.25493  1.0000
  C   C522      1.0  0.12412  0.62729  0.26097  1.0000
  C   C523      1.0  0.12276  0.62560  0.27254  1.0000
  C   C524      1.0  0.11655  0.63414  0.27815  1.0000
  C   C525      1.0  0.06921  0.65354  0.25620  1.0000
  C   C526      1.0  0.13615  0.57262  0.24949  1.0000
  H   H845      1.0  0.12638  0.61763  0.27722  1.0000
  H   H846      1.0  0.11521  0.63265  0.28712  1.0000
  H   H847      1.0  0.11607  0.37938  0.32138  1.0000
  C   C527      1.0  0.08496  0.33432  0.33556  1.0000
  C   C528      1.0  0.03210  0.44033  0.26376  1.0000
  C   C529      1.0  0.04262  0.43740  0.25691  1.0000
  C   C530      1.0  0.05039  0.44435  0.25402  1.0000
  C   C531      1.0  0.04756  0.45436  0.25774  1.0000
  C   C532      1.0  0.03717  0.45715  0.26484  1.0000
  C   C533      1.0  0.02949  0.45008  0.26792  1.0000
  H   H848      1.0  0.04478  0.42980  0.25384  1.0000
  H   H849      1.0  0.05851  0.44211  0.24871  1.0000
  H   H850      1.0  0.06726  0.39794  0.24653  1.0000
  H   H851      1.0  0.02137  0.45237  0.27325  1.0000
  C   C534      1.0  0.04594  0.64205  0.27896  1.0000
  H   H852      1.0  0.10277  0.47954  0.28002  1.0000
  H   H853      1.0  0.03045  0.41915  0.29695  1.0000
  C   C535      1.0  0.05311  0.64076  0.29857  1.0000
  H   H854      1.0  0.11628  0.59868  0.29291  1.0000
  H   H855      1.0  0.12443  0.57125  0.28409  1.0000
  H   H856      1.0  0.07469  0.37175  0.26799  1.0000
  H   H857      1.0  0.03636  0.43888  0.30221  1.0000
  H   H858      1.0  0.03812  0.54062  0.29667  1.0000
  H   H859      1.0  0.11327  0.60663  0.27971  1.0000
  H   H860      1.0  0.06233  0.63211  0.27384  1.0000
  Fe  Fe125     1.0  0.01162  0.40957  0.24562  1.0000
  H   H861      1.0  0.04642  0.44169  0.28261  1.0000
  C   C536      1.0  0.10498  0.45037  0.24524  1.0000
  N   N52       1.0  0.07914  0.38355  0.25282  1.0000
  C   C537      1.0  0.05148  0.52797  0.28227  1.0000
  H   H862      1.0  0.04539  0.52349  0.28872  1.0000
  C   C538      1.0  0.12889  0.56529  0.25492  1.0000
  C   C539      1.0  0.13219  0.58992  0.27749  1.0000
  H   H863      1.0  0.03649  0.65024  0.30384  1.0000
  N   N53       1.0  0.12022  0.58919  0.28012  1.0000
  H   H864      1.0  0.12118  0.63926  0.24598  1.0000
  H   H865      1.0  0.12192  0.44094  0.24121  1.0000
  H   H866      1.0  0.05935  0.43395  0.28656  1.0000
  C   C540      1.0  0.11070  0.38138  0.34289  1.0000
  H   H867      1.0  0.14242  0.57331  0.25353  1.0000
  C   C541      1.0  0.08931  0.58283  0.30790  1.0000
  C   C542      1.0  0.09958  0.57886  0.31134  1.0000
  C   C543      1.0  0.10459  0.58617  0.31412  1.0000
  C   C544      1.0  0.09938  0.59750  0.31345  1.0000
  C   C545      1.0  0.08905  0.60142  0.31014  1.0000
  C   C546      1.0  0.08405  0.59410  0.30742  1.0000
  H   H868      1.0  0.10357  0.57011  0.31201  1.0000
  H   H869      1.0  0.11252  0.58305  0.31678  1.0000
  H   H870      1.0  0.08486  0.61007  0.30975  1.0000
  H   H871      1.0  0.07610  0.59723  0.30486  1.0000
  C   C547      1.0  0.09235  0.51211  0.29092  1.0000
  C   C548      1.0  0.09051  0.50122  0.29541  1.0000
  C   C549      1.0  0.08459  0.49656  0.29045  1.0000
  C   C550      1.0  0.08046  0.50281  0.28100  1.0000
  C   C551      1.0  0.08274  0.51348  0.27625  1.0000
  C   C552      1.0  0.08866  0.51811  0.28117  1.0000
  H   H872      1.0  0.09337  0.49653  0.30295  1.0000
  H   H873      1.0  0.08280  0.48835  0.29422  1.0000
  H   H874      1.0  0.07975  0.51825  0.26880  1.0000
  H   H875      1.0  0.09015  0.52643  0.27757  1.0000
  C   C553      1.0  0.06613  0.57005  0.26693  1.0000
  C   C554      1.0  0.06504  0.57253  0.27728  1.0000
  C   C555      1.0  0.05514  0.57919  0.28203  1.0000
  C   C556      1.0  0.04652  0.58389  0.27614  1.0000
  C   C557      1.0  0.04768  0.58168  0.26564  1.0000
  C   C558      1.0  0.05741  0.57455  0.26112  1.0000
  H   H876      1.0  0.07186  0.56947  0.28163  1.0000
  H   H877      1.0  0.05435  0.58096  0.29009  1.0000
  H   H878      1.0  0.04103  0.58535  0.26106  1.0000
  H   H879      1.0  0.05823  0.57269  0.25309  1.0000
  H   H880      1.0  0.11918  0.37794  0.23679  1.0000
  H   H881      1.0  0.12105  0.57768  0.29580  1.0000
  C   C559      1.0  0.10964  0.37480  0.32714  1.0000
  H   H882      1.0  0.11583  0.62154  0.36036  1.0000
  H   H883      1.0  0.08382  0.39818  0.25405  1.0000
  H   H884      1.0  0.08289  0.33825  0.32750  1.0000
  C   C560      1.0  0.05173  0.38311  0.29204  1.0000
  C   C561      1.0  0.04361  0.39143  0.28724  1.0000
  C   C562      1.0  0.04024  0.39016  0.27808  1.0000
  C   C563      1.0  0.04463  0.38037  0.27396  1.0000
  C   C564      1.0  0.05254  0.37189  0.27894  1.0000
  C   C565      1.0  0.05627  0.37336  0.28784  1.0000
  H   H885      1.0  0.03999  0.39892  0.29052  1.0000
  H   H886      1.0  0.03419  0.39677  0.27427  1.0000
  H   H887      1.0  0.05595  0.36429  0.27580  1.0000
  H   H888      1.0  0.06249  0.36687  0.29159  1.0000
  C   C566      1.0  0.09369  0.41039  0.30199  1.0000
  C   C567      1.0  0.08253  0.41025  0.30747  1.0000
  C   C568      1.0  0.07464  0.42031  0.30805  1.0000
  C   C569      1.0  0.07770  0.43050  0.30253  1.0000
  C   C570      1.0  0.08885  0.43065  0.29700  1.0000
  C   C571      1.0  0.09691  0.42062  0.29703  1.0000
  H   H889      1.0  0.07996  0.40242  0.31138  1.0000
  H   H890      1.0  0.06610  0.42016  0.31259  1.0000
  H   H891      1.0  0.09130  0.43853  0.29287  1.0000
  H   H892      1.0  0.10559  0.42081  0.29303  1.0000
  C   C572      1.0  0.11155  0.36827  0.26482  1.0000
  C   C573      1.0  0.11720  0.37427  0.26849  1.0000
  C   C574      1.0  0.12390  0.38125  0.26071  1.0000
  C   C575      1.0  0.12435  0.38286  0.24930  1.0000
  H   H893      1.0  0.10505  0.49888  0.27160  1.0000
  C   C576      1.0  0.11261  0.36931  0.25337  1.0000
  H   H894      1.0  0.11661  0.37333  0.27731  1.0000
  H   H895      1.0  0.12864  0.38555  0.26352  1.0000
  H   H896      1.0  0.10239  0.41829  0.24822  1.0000
  H   H897      1.0  0.10854  0.36442  0.25049  1.0000
  H   H898      1.0  0.11728  0.38605  0.33768  1.0000
  N   N54       1.0  0.11194  0.48498  0.26346  1.0000
  H   H899      1.0  0.09414  0.48982  0.26402  1.0000
  C   C577      1.0  0.07917  0.37197  0.25917  1.0000
  C   C578      1.0  0.03869  0.64710  0.28747  1.0000
  H   H900      1.0  0.09199  0.60540  0.24831  1.0000
  C   C579      1.0  0.06036  0.63553  0.29013  1.0000
  H   H901      1.0  0.11519  0.55875  0.25380  1.0000
  C   C580      1.0  0.12230  0.48075  0.25575  1.0000
  H   H902      1.0  0.08553  0.58276  0.25975  1.0000
  H   H903      1.0  0.03764  0.42123  0.28263  1.0000
  H   H904      1.0  0.11006  0.63775  0.33277  1.0000
  H   H905      1.0  0.09898  0.33732  0.35368  1.0000
  H   H906      1.0  0.11775  0.47489  0.27814  1.0000
  N   N55       1.0  0.10572  0.41456  0.26474  1.0000
  C   C581      1.0  0.11458  0.40763  0.27076  1.0000
  C   C582      1.0  0.09489  0.41122  0.27035  1.0000
  C   C583      1.0  0.10876  0.41301  0.25311  1.0000
  C   C584      1.0  0.10464  0.42642  0.26474  1.0000
  H   H907      1.0  0.11318  0.40945  0.27915  1.0000
  H   H908      1.0  0.12308  0.40904  0.26613  1.0000
  H   H909      1.0  0.11470  0.39860  0.27210  1.0000
  H   H910      1.0  0.08798  0.41646  0.26615  1.0000
  H   H911      1.0  0.09539  0.40233  0.27038  1.0000
  H   H912      1.0  0.09249  0.41210  0.27920  1.0000
  H   H913      1.0  0.11699  0.41531  0.24865  1.0000
  S   S246      1.0  0.04218  0.64492  0.26595  1.0000
  H   H914      1.0  0.10960  0.40416  0.25277  1.0000
  H   H915      1.0  0.11275  0.42916  0.26086  1.0000
  H   H916      1.0  0.10204  0.42805  0.27332  1.0000
  H   H917      1.0  0.09820  0.43192  0.26005  1.0000
  H   H918      1.0  0.05422  0.42997  0.27654  1.0000
  H   H919      1.0  0.07789  0.39003  0.26717  1.0000
  H   H920      1.0  0.12144  0.58298  0.26566  1.0000
  H   H921      1.0  0.10431  0.59753  0.28849  1.0000
  C   C585      1.0  0.11323  0.59841  0.28555  1.0000
  H   H922      1.0  0.05393  0.52622  0.30316  1.0000
  H   H923      1.0  0.10152  0.47921  0.25621  1.0000
  H   H924      1.0  0.11369  0.50211  0.25800  1.0000
  S   S247      1.0  0.10355  0.65500  0.27918  1.0000
  C   C586      1.0  0.05271  0.41451  0.29579  1.0000
  H   H925      1.0  0.13761  0.58328  0.27304  1.0000
  Fe  Fe126     1.0  0.09093  0.64704  0.32167  1.0000
  H   H926      1.0  0.09844  0.36565  0.34703  1.0000
  H   H927      1.0  0.10755  0.58982  0.27138  1.0000
  H   H928      1.0  0.09162  0.39174  0.32623  1.0000
  C   C587      1.0  0.10216  0.48696  0.25832  1.0000
  H   H929      1.0  0.07044  0.53609  0.27482  1.0000
  H   H930      1.0  0.12362  0.63050  0.33550  1.0000
  C   C588      1.0  0.11459  0.63282  0.33950  1.0000
  C   C589      1.0  0.08441  0.60344  0.24696  1.0000
  S   S248      1.0  0.01816  0.42549  0.24023  1.0000
  C   C590      1.0  0.11662  0.59002  0.26973  1.0000
  H   H931      1.0  0.06060  0.41488  0.29786  1.0000
  C   C591      1.0  0.01392  0.37753  0.25125  1.0000
  H   H932      1.0  0.03726  0.42503  0.31077  1.0000
  H   H933      1.0  0.11956  0.61302  0.33347  1.0000
  H   H934      1.0  0.08939  0.37844  0.35036  1.0000
  H   H935      1.0  0.06518  0.54824  0.28069  1.0000
  C   C592      1.0  0.05672  0.63606  0.28039  1.0000
  H   H936      1.0  0.05512  0.41049  0.28847  1.0000
  H   H937      1.0  0.12001  0.49437  0.26965  1.0000
  H   H938      1.0  0.07506  0.36748  0.25549  1.0000
  C   C593      1.0  0.09403  0.33376  0.35030  1.0000
  H   H939      1.0  0.06743  0.52404  0.29401  1.0000
  H   H940      1.0  0.11506  0.37293  0.34666  1.0000
  C   C594      1.0  0.08645  0.38338  0.24166  1.0000
  C   C595      1.0  0.08131  0.32447  0.34168  1.0000
  H   H941      1.0  0.00182  0.38919  0.26685  1.0000
  H   H942      1.0  0.11396  0.36616  0.33046  1.0000
  H   H943      1.0  0.10592  0.62042  0.33114  1.0000
  C   C596      1.0  0.11070  0.61581  0.33776  1.0000
  N   N56       1.0  0.10989  0.62287  0.34562  1.0000
  H   H944      1.0  0.06761  0.64550  0.25568  1.0000
  H   H945      1.0  0.04653  0.55101  0.29316  1.0000
  C   C597      1.0  0.09142  0.33893  0.33982  1.0000
  H   H946      1.0  0.00954  0.38606  0.24773  1.0000
  H   H947      1.0  0.09281  0.63096  0.34457  1.0000
  H   H948      1.0  0.12535  0.61363  0.35056  1.0000
  C   C598      1.0  0.09746  0.39200  0.33131  1.0000
  C   C599      1.0  0.09795  0.62640  0.35092  1.0000
  H   H949      1.0  0.11380  0.63855  0.34508  1.0000
  H   H950      1.0  0.08095  0.61053  0.24070  1.0000
  C   C600      1.0  0.11631  0.61644  0.35429  1.0000
  H   H951      1.0  0.06253  0.53646  0.29953  1.0000
  H   H952      1.0  0.09419  0.61913  0.35585  1.0000
  H   H953      1.0  0.13353  0.59808  0.27204  1.0000
  C   C601      1.0  0.11869  0.37688  0.24562  1.0000
  H   H954      1.0  0.06186  0.38991  0.25987  1.0000
  N   N57       1.0  0.10307  0.38064  0.33619  1.0000
  C   C602      1.0  0.11886  0.57838  0.28770  1.0000
  H   H955      1.0  0.10411  0.37401  0.32204  1.0000
  H   H956      1.0  0.13527  0.58903  0.28517  1.0000
  C   C603      1.0  0.11053  0.47661  0.27401  1.0000
  C   C604      1.0  0.05164  0.43312  0.28440  1.0000
  C   C605      1.0  0.04191  0.43044  0.30365  1.0000
  Fe  Fe127     1.0  0.04264  0.61802  0.24383  1.0000
  C   C606      1.0  0.13498  0.57944  0.23905  1.0000
  C   C607      1.0  0.01392  0.36189  0.26687  1.0000
  H   H957      1.0  0.00440  0.60751  0.24869  1.0000
  C   C608      1.0  0.04217  0.64626  0.29732  1.0000
  H   H958      1.0  0.08788  0.36708  0.25933  1.0000
  S   S249      1.0  0.09024  0.65440  0.33674  1.0000
  C   C609      1.0  0.03533  0.42474  0.29028  1.0000
  H   H959      1.0  0.09692  0.63217  0.35653  1.0000
  H   H960      1.0  0.09410  0.57550  0.24910  1.0000
  H   H961      1.0  0.08861  0.37360  0.33859  1.0000
  H   H962      1.0  0.08296  0.32735  0.42283  1.0000
  H   H963      1.0  0.02957  0.43300  0.28849  1.0000
  H   H964      1.0  0.04929  0.43140  0.30628  1.0000
  H   H965      1.0  0.04029  0.54912  0.28283  1.0000
  H   H966      1.0  0.10366  0.39692  0.32565  1.0000
  C   C610      1.0  0.09450  0.37435  0.34338  1.0000
  S   S250      1.0  0.03153  0.63483  0.24478  1.0000
  C   C611      1.0  0.11995  0.57090  0.23901  1.0000
  N   N58       1.0  0.04541  0.42570  0.29353  1.0000
  H   H967      1.0  0.00186  0.37757  0.27851  1.0000
  N   N59       1.0  0.08089  0.65234  0.25732  1.0000
  H   H968      1.0  0.07006  0.59073  0.24908  1.0000
  C   C612      1.0  0.06755  0.38931  0.25163  1.0000
  C   C613      1.0  0.11273  0.49554  0.26576  1.0000
  C   C614      1.0  0.06263  0.54200  0.27770  1.0000
  C   C615      1.0  0.08340  0.38954  0.25880  1.0000
  C   C616      1.0  0.12077  0.56444  0.24968  1.0000
  H   H969      1.0  0.11299  0.60885  0.35904  1.0000
  H   H970      1.0  0.06871  0.63102  0.29116  1.0000
  H   H971      1.0  0.01490  0.38138  0.27068  1.0000
  H   H972      1.0  0.09955  0.58507  0.25327  1.0000
  N   N60       1.0  0.00767  0.37311  0.26244  1.0000
  H   H973      1.0  0.00948  0.35830  0.27534  1.0000
  C   C617      1.0  0.04442  0.54460  0.28997  1.0000
  H   H974      1.0  0.05896  0.52151  0.27967  1.0000
  N   N61       1.0  0.04618  0.60620  0.30276  1.0000
  C   C618      1.0  0.04204  0.59581  0.30829  1.0000
  C   C619      1.0  0.05045  0.60976  0.31076  1.0000
  C   C620      1.0  0.03688  0.61504  0.29897  1.0000
  C   C621      1.0  0.05533  0.60415  0.29303  1.0000
  H   H975      1.0  0.03521  0.59701  0.31574  1.0000
  H   H976      1.0  0.04891  0.58889  0.31104  1.0000
  H   H977      1.0  0.03858  0.59298  0.30256  1.0000
  H   H978      1.0  0.04365  0.61181  0.31798  1.0000
  H   H979      1.0  0.05720  0.60313  0.31410  1.0000
  H   H980      1.0  0.05399  0.61736  0.30683  1.0000
  H   H981      1.0  0.02978  0.61683  0.30605  1.0000
  H   H982      1.0  0.03348  0.61263  0.29289  1.0000
  H   H983      1.0  0.03972  0.62299  0.29479  1.0000
  H   H984      1.0  0.05902  0.61165  0.28900  1.0000
  H   H985      1.0  0.05219  0.60204  0.28660  1.0000
  H   H986      1.0  0.06222  0.59706  0.29544  1.0000
  H   H987      1.0  0.07798  0.60321  0.25489  1.0000
  N   N62       1.0  0.05459  0.53626  0.28655  1.0000
  H   H988      1.0  0.09246  0.39673  0.33786  1.0000
  H   H989      1.0  0.08786  0.64011  0.24703  1.0000
  H   H990      1.0  0.07849  0.58221  0.23941  1.0000
  C   C622      1.0  0.00651  0.38063  0.26996  1.0000
  H   H991      1.0  0.08159  0.63588  0.26767  1.0000
  H   H992      1.0  0.02248  0.36223  0.26754  1.0000
  N   N63       1.0  0.08717  0.59280  0.24318  1.0000
  Fe  Fe128     1.0  0.12853  0.61844  0.23687  1.0000
  H   H993      1.0  0.12987  0.47911  0.25935  1.0000
  H   H994      1.0  0.03492  0.46494  0.26765  1.0000
  H   H995      1.0  0.12359  0.48682  0.24766  1.0000
  H   H996      1.0  0.09540  0.37981  0.24210  1.0000
  H   H997      1.0  0.09773  0.64749  0.24806  1.0000
  H   H998      1.0  0.12189  0.47276  0.25390  1.0000
  H   H999      1.0  0.01483  0.37218  0.24527  1.0000
  C   C623      1.0  0.09030  0.32399  0.35646  1.0000
  C   C624      1.0  0.08883  0.64839  0.24761  1.0000
  H   H1000     1.0  0.09199  0.38517  0.26014  1.0000
  H   H1001     1.0  0.09164  0.64304  0.26871  1.0000
  C   C625      1.0  0.07688  0.59057  0.24148  1.0000
  H   H1002     1.0  0.11113  0.65471  0.25578  1.0000
  S   S251      1.0  0.13154  0.39278  0.23984  1.0000
  C   C626      1.0  0.08289  0.64420  0.26766  1.0000
  H   H1003     1.0  0.05706  0.63278  0.23760  1.0000
  H   H1004     1.0  0.03043  0.65189  0.28637  1.0000
  H   H1005     1.0  0.07719  0.64706  0.27516  1.0000
  H   H1006     1.0  0.02254  0.37800  0.25153  1.0000
  H   H1007     1.0  0.08750  0.65425  0.23962  1.0000
  C   C627      1.0  0.09427  0.45327  0.24279  1.0000
  H   H1008     1.0  0.10275  0.49345  0.25048  1.0000
  H   H1009     1.0  0.08751  0.45865  0.24725  1.0000
  H   H1010     1.0  0.06295  0.65636  0.26346  1.0000
  H   H1011     1.0  0.08607  0.39193  0.23637  1.0000
  H   H1012     1.0  0.08400  0.37824  0.23721  1.0000
  S   S252      1.0  0.02752  0.39923  0.23737  1.0000
  S   S253      1.0  0.08173  0.65596  0.30771  1.0000
  S   S254      1.0  0.00052  0.63121  0.24938  1.0000
  H   H1013     1.0  0.14042  0.58528  0.23504  1.0000
  H   H1014     1.0  0.15128  0.57977  0.72960  1.0000
  S   S255      1.0  0.10245  0.35229  0.70722  1.0000
  H   H1015     1.0  0.06643  0.61122  0.72102  1.0000
  S   S256      1.0  0.10522  0.62454  0.72165  1.0000
  S   S257      1.0  0.12918  0.35027  0.70666  1.0000
  Fe  Fe129     1.0  0.11291  0.36272  0.71029  1.0000
  S   S258      1.0  0.10992  0.38150  0.70420  1.0000
  H   H1016     1.0  0.07912  0.60233  0.71519  1.0000
  C   C628      1.0  0.06938  0.37221  0.73087  1.0000
  Fe  Fe130     1.0  0.11835  0.33918  0.70508  1.0000
  H   H1017     1.0  0.09050  0.58805  0.72770  1.0000
  S   S259      1.0  0.13058  0.60991  0.71453  1.0000
  Fe  Fe131     1.0  0.12083  0.62728  0.70873  1.0000
  S   S260      1.0  0.11737  0.63550  0.69149  1.0000
  Fe  Fe132     1.0  0.10101  0.34488  0.72544  1.0000
  H   H1018     1.0  0.04508  0.32655  0.66785  1.0000
  S   S261      1.0  0.12718  0.63532  0.71890  1.0000
  S   S262      1.0  0.10425  0.44132  0.72172  1.0000
  H   H1019     1.0  0.13281  0.64734  0.69465  1.0000
  C   C629      1.0  0.09160  0.39124  0.73240  1.0000
  H   H1020     1.0  0.15745  0.65247  0.65365  1.0000
  H   H1021     1.0  0.09020  0.33156  0.67540  1.0000
  C   C630      1.0  0.10412  0.32972  0.68313  1.0000
  H   H1022     1.0  0.12892  0.38675  0.73106  1.0000
  H   H1023     1.0  0.12374  0.58732  0.71776  1.0000
  S   S263      1.0  0.12368  0.41031  0.73052  1.0000
  H   H1024     1.0  0.10007  0.32923  0.70639  1.0000
  H   H1025     1.0  0.07436  0.33113  0.66092  1.0000
  H   H1026     1.0  0.11090  0.65152  0.67245  1.0000
  H   H1027     1.0  0.11318  0.49215  0.72296  1.0000
  H   H1028     1.0  0.08799  0.33374  0.71647  1.0000
  C   C631      1.0  0.11446  0.38944  0.71102  1.0000
  C   C632      1.0  0.11094  0.40112  0.70878  1.0000
  C   C633      1.0  0.11372  0.40761  0.71468  1.0000
  C   C634      1.0  0.12014  0.40248  0.72281  1.0000
  H   H1029     1.0  0.01617  0.38514  0.72934  1.0000
  C   C635      1.0  0.12100  0.38431  0.71906  1.0000
  H   H1030     1.0  0.10596  0.40516  0.70252  1.0000
  S   S264      1.0  0.12728  0.54689  0.72354  1.0000
  C   C636      1.0  0.07734  0.36225  0.73012  1.0000
  C   C637      1.0  0.08467  0.41109  0.72676  1.0000
  C   C638      1.0  0.12088  0.57999  0.72306  1.0000
  H   H1031     1.0  0.07073  0.39834  0.72767  1.0000
  H   H1032     1.0  0.13127  0.56889  0.71229  1.0000
  H   H1033     1.0  0.11099  0.41661  0.71287  1.0000
  H   H1034     1.0  0.14135  0.65400  0.64538  1.0000
  C   C639      1.0  0.11965  0.47516  0.73062  1.0000
  H   H1035     1.0  0.08518  0.36241  0.72410  1.0000
  H   H1036     1.0  0.06690  0.59664  0.72240  1.0000
  C   C640      1.0  0.12390  0.39081  0.72486  1.0000
  H   H1037     1.0  0.04950  0.33896  0.65916  1.0000
  C   C641      1.0  0.11678  0.65458  0.67513  1.0000
  C   C642      1.0  0.09810  0.32632  0.67710  1.0000
  H   H1038     1.0  0.10946  0.64968  0.70796  1.0000
  C   C643      1.0  0.08226  0.60829  0.73272  1.0000
  H   H1039     1.0  0.08977  0.64765  0.71372  1.0000
  C   C644      1.0  0.07148  0.32963  0.65399  1.0000
  C   C645      1.0  0.12508  0.56960  0.71994  1.0000
  H   H1040     1.0  0.08711  0.65555  0.72425  1.0000
  C   C646      1.0  0.07186  0.60271  0.72242  1.0000
  H   H1041     1.0  0.09244  0.41362  0.72687  1.0000
  H   H1042     1.0  0.10085  0.33752  0.68591  1.0000
  C   C647      1.0  0.12146  0.64822  0.68430  1.0000
  H   H1043     1.0  0.12384  0.37533  0.72079  1.0000
  C   C648      1.0  0.08285  0.58876  0.73449  1.0000
  S   S265      1.0  0.12211  0.32657  0.69362  1.0000
  H   H1044     1.0  0.06920  0.33781  0.64834  1.0000
  C   C649      1.0  0.05236  0.33074  0.66452  1.0000
  Fe  Fe133     1.0  0.11555  0.60813  0.72846  1.0000
  S   S266      1.0  0.11282  0.46943  0.72362  1.0000
  H   H1045     1.0  0.07114  0.37994  0.72544  1.0000
  H   H1046     1.0  0.05466  0.33240  0.67172  1.0000
  C   C650      1.0  0.08728  0.65628  0.71529  1.0000
  H   H1047     1.0  0.08544  0.40985  0.71822  1.0000
  C   C651      1.0  0.12905  0.65222  0.68770  1.0000
  Fe  Fe134     1.0  0.12530  0.34370  0.72530  1.0000
  H   H1048     1.0  0.07759  0.41829  0.72812  1.0000
  C   C652      1.0  0.11827  0.48682  0.72876  1.0000
  H   H1049     1.0  0.08625  0.33078  0.70407  1.0000
  S   S267      1.0  0.10965  0.35655  0.72881  1.0000
  H   H1050     1.0  0.16079  0.65110  0.63376  1.0000
  H   H1051     1.0  0.09164  0.38997  0.72404  1.0000
  C   C653      1.0  0.09142  0.32800  0.71055  1.0000
  H   H1052     1.0  0.10009  0.39238  0.73219  1.0000
  S   S268      1.0  0.11631  0.33140  0.72341  1.0000
  Fe  Fe135     1.0  0.10814  0.45250  0.73086  1.0000
  Fe  Fe136     1.0  0.13560  0.61781  0.72585  1.0000
  C   C654      1.0  0.12141  0.56007  0.72682  1.0000
  H   H1053     1.0  0.08983  0.60802  0.72581  1.0000
  S   S269      1.0  0.15345  0.61317  0.72803  1.0000
  H   H1054     1.0  0.09746  0.65565  0.69409  1.0000
  H   H1055     1.0  0.14380  0.39504  0.73354  1.0000
  H   H1056     1.0  0.05585  0.32971  0.64297  1.0000
  H   H1057     1.0  0.02848  0.39563  0.73310  1.0000
  S   S270      1.0  0.07218  0.43949  0.73306  1.0000
  H   H1058     1.0  0.07716  0.61696  0.73169  1.0000
  H   H1059     1.0  0.12203  0.50062  0.73309  1.0000
  Fe  Fe137     1.0  0.11218  0.63144  0.73212  1.0000
  N   N64       1.0  0.07571  0.60011  0.73300  1.0000
  H   H1060     1.0  0.13628  0.58454  0.73240  1.0000
  C   C655      1.0  0.11305  0.58079  0.73307  1.0000
  Fe  Fe138     1.0  0.11266  0.42701  0.73351  1.0000
  H   H1061     1.0  0.07892  0.32458  0.64925  1.0000
  H   H1062     1.0  0.17419  0.60875  0.73476  1.0000
  C   C656      1.0  0.12328  0.49164  0.73450  1.0000
  H   H1063     1.0  0.15839  0.39057  0.73409  1.0000
  N   N65       1.0  0.06198  0.32380  0.65822  1.0000
  H   H1064     1.0  0.07823  0.58233  0.73468  1.0000
  Fe  Fe139     1.0  0.22262  0.59873  0.97031  1.0000
  S   S271      1.0  0.23530  0.58251  0.97169  1.0000
  Fe  Fe140     1.0  0.22658  0.60252  0.94480  1.0000
  S   S272      1.0  0.23995  0.58696  0.94447  1.0000
  S   S273      1.0  0.22476  0.61240  0.92742  1.0000
  Fe  Fe141     1.0  0.22809  0.57912  0.95892  1.0000
  S   S274      1.0  0.22589  0.56254  0.95769  1.0000
  Fe  Fe142     1.0  0.24585  0.59191  0.95719  1.0000
  S   S275      1.0  0.26418  0.59034  0.95648  1.0000
  S   S276      1.0  0.21419  0.59443  0.95874  1.0000
  S   S277      1.0  0.23364  0.60834  0.95632  1.0000
  Fe  Fe143     1.0  0.25387  0.53727  0.90335  1.0000
  S   S278      1.0  0.26709  0.53647  0.88768  1.0000
  S   S279      1.0  0.23548  0.53928  0.90422  1.0000
  Fe  Fe144     1.0  0.27065  0.53504  0.91731  1.0000
  S   S280      1.0  0.28543  0.53362  0.90291  1.0000
  S   S281      1.0  0.27221  0.53647  0.93401  1.0000
  Fe  Fe145     1.0  0.27439  0.54787  0.89343  1.0000
  S   S282      1.0  0.27818  0.56428  0.88245  1.0000
  Fe  Fe146     1.0  0.27667  0.52235  0.89859  1.0000
  S   S283      1.0  0.28415  0.50520  0.89447  1.0000
  S   S284      1.0  0.26017  0.54985  0.90813  1.0000
  S   S285      1.0  0.26292  0.52258  0.91398  1.0000
  Fe  Fe147     1.0  0.21493  0.38672  0.96467  1.0000
  S   S286      1.0  0.23365  0.38205  0.95886  1.0000
  Fe  Fe148     1.0  0.21092  0.39356  0.94051  1.0000
  S   S287      1.0  0.22937  0.38972  0.93329  1.0000
  S   S288      1.0  0.20057  0.40153  0.92722  1.0000
  Fe  Fe149     1.0  0.22961  0.37434  0.94681  1.0000
  S   S289      1.0  0.23881  0.35844  0.94116  1.0000
  Fe  Fe150     1.0  0.23122  0.39789  0.94606  1.0000
  S   S290      1.0  0.24262  0.40993  0.94192  1.0000
  S   S291      1.0  0.21094  0.37763  0.95350  1.0000
  S   S292      1.0  0.21274  0.40304  0.95239  1.0000
  Fe  Fe151     1.0  0.25516  0.46812  0.87502  1.0000
  S   S293      1.0  0.23835  0.46467  0.87547  1.0000
  S   S294      1.0  0.25885  0.48552  0.86931  1.0000
  Fe  Fe152     1.0  0.26511  0.44373  0.88291  1.0000
  S   S295      1.0  0.24922  0.43813  0.88473  1.0000
  S   S296      1.0  0.28076  0.43100  0.88589  1.0000
  Fe  Fe153     1.0  0.24816  0.44971  0.86828  1.0000
  S   S297      1.0  0.24449  0.44269  0.85540  1.0000
  Fe  Fe154     1.0  0.24073  0.45332  0.89181  1.0000
  S   S298      1.0  0.22619  0.45182  0.90621  1.0000
  S   S299      1.0  0.26476  0.45440  0.86590  1.0000
  S   S300      1.0  0.25677  0.45772  0.89196  1.0000
  Fe  Fe155     1.0  0.28943  0.36188  0.89660  1.0000
  S   S301      1.0  0.30252  0.36884  0.88279  1.0000
  S   S302      1.0  0.28688  0.36511  0.91362  1.0000
  Fe  Fe156     1.0  0.28069  0.35310  0.88138  1.0000
  S   S303      1.0  0.29320  0.35915  0.86628  1.0000
  S   S304      1.0  0.26677  0.34541  0.88073  1.0000
  Fe  Fe157     1.0  0.30557  0.35250  0.87757  1.0000
  Fe  Fe158     1.0  0.28889  0.37478  0.87299  1.0000
  S   S305      1.0  0.28321  0.39180  0.86275  1.0000
  S   S306      1.0  0.29338  0.34509  0.89222  1.0000
  S   S307      1.0  0.27554  0.36912  0.88729  1.0000
  Fe  Fe159     1.0  0.20124  0.38177  0.87620  1.0000
  S   S308      1.0  0.21555  0.39063  0.87038  1.0000
  S   S309      1.0  0.19774  0.37292  0.89424  1.0000
  Fe  Fe160     1.0  0.19430  0.38849  0.85347  1.0000
  S   S310      1.0  0.20810  0.39828  0.84593  1.0000
  S   S311      1.0  0.18031  0.38967  0.84424  1.0000
  Fe  Fe161     1.0  0.21902  0.38365  0.85510  1.0000
  S   S312      1.0  0.23732  0.37840  0.84737  1.0000
  Fe  Fe162     1.0  0.20365  0.40448  0.86186  1.0000
  S   S313      1.0  0.20167  0.42232  0.86321  1.0000
  S   S314      1.0  0.20572  0.37332  0.86161  1.0000
  S   S315      1.0  0.18891  0.39612  0.86875  1.0000
  Fe  Fe163     1.0  0.14722  0.36946  0.80838  1.0000
  S   S316      1.0  0.15517  0.37298  0.79013  1.0000
  S   S317      1.0  0.15953  0.36309  0.82044  1.0000
  Fe  Fe164     1.0  0.12354  0.37474  0.80281  1.0000
  S   S318      1.0  0.13002  0.37909  0.78435  1.0000
  S   S319      1.0  0.10475  0.37584  0.80933  1.0000
  Fe  Fe165     1.0  0.14348  0.36385  0.78727  1.0000
  H   H1065     1.0  0.24682  0.40429  0.86034  1.0000
  Fe  Fe166     1.0  0.14099  0.38774  0.78891  1.0000
  S   S320      1.0  0.14520  0.40373  0.77836  1.0000
  S   S321      1.0  0.13656  0.35885  0.80568  1.0000
  S   S322      1.0  0.13343  0.38490  0.80721  1.0000
  Fe  Fe167     1.0  0.28345  0.62898  0.88275  1.0000
  S   S323      1.0  0.30219  0.62216  0.87885  1.0000
  S   S324      1.0  0.27177  0.63490  0.87049  1.0000
  Fe  Fe168     1.0  0.28359  0.62860  0.90662  1.0000
  S   S325      1.0  0.30197  0.62101  0.90510  1.0000
  S   S326      1.0  0.27245  0.63424  0.92183  1.0000
  Fe  Fe169     1.0  0.30408  0.63364  0.88899  1.0000
  Fe  Fe170     1.0  0.29851  0.61023  0.89532  1.0000
  S   S327      1.0  0.30448  0.59145  0.89859  1.0000
  S   S328      1.0  0.28565  0.64163  0.89107  1.0000
  S   S329      1.0  0.27984  0.61662  0.89867  1.0000
  Fe  Fe171     1.0  0.21934  0.61122  0.86251  1.0000
  S   S330      1.0  0.20065  0.61590  0.86928  1.0000
  S   S331      1.0  0.23138  0.62318  0.85714  1.0000
  Fe  Fe172     1.0  0.21806  0.58756  0.86356  1.0000
  S   S332      1.0  0.19962  0.58985  0.87117  1.0000
  S   S333      1.0  0.22916  0.57187  0.85891  1.0000
  Fe  Fe173     1.0  0.19823  0.60572  0.85811  1.0000
  S   S334      1.0  0.18519  0.61114  0.84687  1.0000
  Fe  Fe174     1.0  0.20357  0.59963  0.88166  1.0000
  S   S335      1.0  0.19734  0.59745  0.90045  1.0000
  S   S336      1.0  0.21668  0.60288  0.85009  1.0000
  S   S337      1.0  0.22221  0.59552  0.87531  1.0000
  H   H1066     1.0  0.23107  0.54642  0.94405  1.0000
  H   H1067     1.0  0.10061  0.62726  0.77218  1.0000
  H   H1068     1.0  0.25908  0.42033  0.83297  1.0000
  H   H1069     1.0  0.25680  0.56680  0.92889  1.0000
  Fe  Fe175     1.0  0.15140  0.58468  0.81555  1.0000
  S   S338      1.0  0.15996  0.57425  0.80254  1.0000
  S   S339      1.0  0.16112  0.58213  0.82938  1.0000
  Fe  Fe176     1.0  0.13108  0.59461  0.80425  1.0000
  S   S340      1.0  0.13844  0.58540  0.79034  1.0000
  S   S341      1.0  0.11433  0.60624  0.80260  1.0000
  Fe  Fe177     1.0  0.14307  0.57074  0.80374  1.0000
  S   S342      1.0  0.13809  0.55481  0.80384  1.0000
  Fe  Fe178     1.0  0.15450  0.58978  0.79027  1.0000
  S   S343      1.0  0.16723  0.59521  0.77501  1.0000
  S   S344      1.0  0.13477  0.57969  0.81788  1.0000
  S   S345      1.0  0.14689  0.60046  0.80299  1.0000
  Fe  Fe179     1.0  0.05690  0.60786  0.77374  1.0000
  S   S346      1.0  0.05000  0.60325  0.79210  1.0000
  H   H1070     1.0  0.07105  0.40189  0.77955  1.0000
  Fe  Fe180     1.0  0.06159  0.58400  0.77104  1.0000
  S   S347      1.0  0.05482  0.57753  0.78910  1.0000
  S   S348      1.0  0.06881  0.57382  0.75789  1.0000
  Fe  Fe181     1.0  0.04090  0.59271  0.78737  1.0000
  S   S349      1.0  0.02219  0.59409  0.79433  1.0000
  Fe  Fe182     1.0  0.06461  0.58867  0.79189  1.0000
  S   S350      1.0  0.07577  0.58180  0.80442  1.0000
  S   S351      1.0  0.04694  0.59829  0.76901  1.0000
  S   S352      1.0  0.07231  0.59413  0.77388  1.0000
  H   H1071     1.0  0.02674  0.39764  0.74688  1.0000
  S   S353      1.0  0.12457  0.53910  0.75523  1.0000
  H   H1072     1.0  0.25816  0.64548  0.85486  1.0000
  H   H1073     1.0  0.08576  0.58643  0.74250  1.0000
  S   S354      1.0  0.13005  0.51257  0.76699  1.0000
  H   H1074     1.0  0.27672  0.33365  0.85999  1.0000
  Fe  Fe183     1.0  0.11501  0.52542  0.76271  1.0000
  S   S355      1.0  0.09933  0.52799  0.77583  1.0000
  Fe  Fe184     1.0  0.13980  0.52594  0.75791  1.0000
  S   S356      1.0  0.15343  0.53141  0.76237  1.0000
  H   H1075     1.0  0.22737  0.63228  0.91192  1.0000
  H   H1076     1.0  0.19158  0.58996  0.78522  1.0000
  Fe  Fe185     1.0  0.05842  0.37354  0.77989  1.0000
  S   S357      1.0  0.06057  0.38848  0.76618  1.0000
  S   S358      1.0  0.07525  0.36278  0.78304  1.0000
  Fe  Fe186     1.0  0.03272  0.37908  0.78186  1.0000
  S   S359      1.0  0.03322  0.39473  0.76857  1.0000
  S   S360      1.0  0.01515  0.37555  0.78886  1.0000
  Fe  Fe187     1.0  0.04797  0.38409  0.75951  1.0000
  H   H1077     1.0  0.25359  0.42056  0.84742  1.0000
  Fe  Fe188     1.0  0.04569  0.39757  0.77666  1.0000
  S   S361      1.0  0.04757  0.41392  0.77877  1.0000
  S   S362      1.0  0.04695  0.36823  0.77225  1.0000
  S   S363      1.0  0.04406  0.38289  0.79096  1.0000
  C   C657      1.0  0.18132  0.35103  0.80066  1.0000
  H   H1078     1.0  0.26697  0.41174  0.84322  1.0000
  H   H1079     1.0  0.10905  0.62689  0.78755  1.0000
  H   H1080     1.0  0.23671  0.40370  0.84136  1.0000
  S   S364      1.0  0.09951  0.43644  0.77169  1.0000
  H   H1081     1.0  0.14003  0.60646  0.75040  1.0000
  C   C658      1.0  0.32336  0.65019  0.89223  1.0000
  H   H1082     1.0  0.18163  0.49125  0.76898  1.0000
  H   H1083     1.0  0.26566  0.41029  0.89266  1.0000
  H   H1084     1.0  0.05618  0.42549  0.73799  1.0000
  H   H1085     1.0  0.24343  0.62240  0.89377  1.0000
  C   C659      1.0  0.14861  0.60551  0.75098  1.0000
  H   H1086     1.0  0.24730  0.63858  0.91761  1.0000
  H   H1087     1.0  0.24499  0.61044  0.87441  1.0000
  C   C660      1.0  0.05352  0.42177  0.76603  1.0000
  H   H1088     1.0  0.25053  0.51679  0.88454  1.0000
  H   H1089     1.0  0.12721  0.63778  0.76096  1.0000
  H   H1090     1.0  0.12742  0.60894  0.77821  1.0000
  C   C661      1.0  0.23028  0.37894  0.89915  1.0000
  C   C662      1.0  0.06001  0.42921  0.76595  1.0000
  C   C663      1.0  0.18779  0.57966  0.80686  1.0000
  H   H1091     1.0  0.25272  0.41329  0.90252  1.0000
  C   C664      1.0  0.07656  0.39804  0.78571  1.0000
  H   H1092     1.0  0.06077  0.43061  0.77370  1.0000
  C   C665      1.0  0.19216  0.59605  0.80954  1.0000
  H   H1093     1.0  0.13609  0.62495  0.76642  1.0000
  H   H1094     1.0  0.23618  0.41627  0.84558  1.0000
  C   C666      1.0  0.25834  0.41499  0.84151  1.0000
  H   H1095     1.0  0.11700  0.46485  0.76182  1.0000
  H   H1096     1.0  0.20367  0.58844  0.79094  1.0000
  H   H1097     1.0  0.26518  0.41669  0.90382  1.0000
  H   H1098     1.0  0.24181  0.41516  0.83138  1.0000
  H   H1099     1.0  0.02854  0.63836  0.79317  1.0000
  H   H1100     1.0  0.17082  0.35276  0.78426  1.0000
  C   C667      1.0  0.01487  0.58805  0.78816  1.0000
  C   C668      1.0  0.02055  0.58226  0.77967  1.0000
  C   C669      1.0  0.01458  0.57750  0.77488  1.0000
  H   H1101     1.0  0.24734  0.39221  0.85540  1.0000
  H   H1102     1.0  0.15259  0.56741  0.75948  1.0000
  H   H1103     1.0  0.02957  0.58133  0.77686  1.0000
  H   H1104     1.0  0.01907  0.57296  0.76838  1.0000
  H   H1105     1.0  0.26785  0.39454  0.83674  1.0000
  C   C670      1.0  0.07681  0.56074  0.76286  1.0000
  C   C671      1.0  0.08551  0.55538  0.75544  1.0000
  C   C672      1.0  0.09227  0.54515  0.75938  1.0000
  C   C673      1.0  0.09022  0.54017  0.77072  1.0000
  C   C674      1.0  0.08131  0.54535  0.77809  1.0000
  C   C675      1.0  0.07469  0.55569  0.77418  1.0000
  H   H1106     1.0  0.08715  0.55921  0.74666  1.0000
  H   H1107     1.0  0.09905  0.54108  0.75365  1.0000
  H   H1108     1.0  0.07963  0.54144  0.78685  1.0000
  H   H1109     1.0  0.06781  0.55959  0.77991  1.0000
  C   C676      1.0  0.14234  0.54875  0.79201  1.0000
  C   C677      1.0  0.15124  0.55151  0.78329  1.0000
  C   C678      1.0  0.15468  0.54608  0.77425  1.0000
  C   C679      1.0  0.14891  0.53827  0.77364  1.0000
  C   C680      1.0  0.13980  0.53576  0.78219  1.0000
  C   C681      1.0  0.13672  0.54079  0.79146  1.0000
  H   H1110     1.0  0.15573  0.55752  0.78374  1.0000
  H   H1111     1.0  0.16187  0.54789  0.76775  1.0000
  H   H1112     1.0  0.13540  0.52964  0.78186  1.0000
  H   H1113     1.0  0.13002  0.53840  0.79830  1.0000
  C   C682      1.0  0.10351  0.59951  0.80322  1.0000
  C   C683      1.0  0.10357  0.58857  0.80924  1.0000
  C   C684      1.0  0.09479  0.58340  0.80984  1.0000
  C   C685      1.0  0.08623  0.58888  0.80395  1.0000
  C   C686      1.0  0.08625  0.59977  0.79777  1.0000
  C   C687      1.0  0.09474  0.60516  0.79762  1.0000
  H   H1114     1.0  0.11021  0.58419  0.81370  1.0000
  H   H1115     1.0  0.09473  0.57504  0.81478  1.0000
  H   H1116     1.0  0.07959  0.60411  0.79331  1.0000
  H   H1117     1.0  0.09451  0.61369  0.79310  1.0000
  C   C688      1.0  0.14628  0.34853  0.76513  1.0000
  C   C689      1.0  0.24136  0.41042  0.84014  1.0000
  H   H1118     1.0  0.17019  0.36906  0.89137  1.0000
  H   H1119     1.0  0.07203  0.39227  0.79249  1.0000
  C   C690      1.0  0.06785  0.64211  0.75706  1.0000
  C   C691      1.0  0.07773  0.64606  0.75174  1.0000
  H   H1120     1.0  0.17238  0.36945  0.86153  1.0000
  H   H1121     1.0  0.10914  0.45703  0.75804  1.0000
  H   H1122     1.0  0.22923  0.43074  0.95453  1.0000
  H   H1123     1.0  0.07918  0.41825  0.77431  1.0000
  C   C692      1.0  0.21527  0.41709  0.97884  1.0000
  H   H1124     1.0  0.25510  0.39180  0.83517  1.0000
  H   H1125     1.0  0.26015  0.39535  0.85630  1.0000
  N   N66       1.0  0.25270  0.40579  0.84266  1.0000
  H   H1126     1.0  0.24997  0.40210  0.92131  1.0000
  C   C693      1.0  0.25940  0.39856  0.83480  1.0000
  H   H1127     1.0  0.10330  0.35807  0.75369  1.0000
  H   H1128     1.0  0.09485  0.39650  0.79364  1.0000
  C   C694      1.0  0.15171  0.60145  0.76142  1.0000
  C   C695      1.0  0.16290  0.60012  0.76220  1.0000
  C   C696      1.0  0.17094  0.60277  0.75255  1.0000
  H   H1129     1.0  0.22189  0.50433  0.90517  1.0000
  H   H1130     1.0  0.17436  0.38188  0.88414  1.0000
  H   H1131     1.0  0.14550  0.59935  0.76884  1.0000
  H   H1132     1.0  0.17960  0.60175  0.75307  1.0000
  H   H1133     1.0  0.02590  0.62622  0.77068  1.0000
  C   C697      1.0  0.17853  0.60290  0.84218  1.0000
  C   C698      1.0  0.17090  0.60828  0.83509  1.0000
  C   C699      1.0  0.16542  0.60214  0.83116  1.0000
  C   C700      1.0  0.16750  0.59047  0.83426  1.0000
  C   C701      1.0  0.17514  0.58509  0.84134  1.0000
  C   C702      1.0  0.18064  0.59123  0.84523  1.0000
  H   H1134     1.0  0.16913  0.61730  0.83272  1.0000
  H   H1135     1.0  0.15948  0.60648  0.82588  1.0000
  H   H1136     1.0  0.17681  0.57608  0.84386  1.0000
  H   H1137     1.0  0.18643  0.58693  0.85069  1.0000
  H   H1138     1.0  0.11555  0.55538  0.79931  1.0000
  H   H1139     1.0  0.22363  0.43670  0.89409  1.0000
  H   H1140     1.0  0.09241  0.48433  0.77412  1.0000
  S   S365      1.0  0.31589  0.64607  0.88434  1.0000
  C   C703      1.0  0.26076  0.63054  0.86748  1.0000
  C   C704      1.0  0.25540  0.63778  0.85918  1.0000
  C   C705      1.0  0.24651  0.63525  0.85632  1.0000
  C   C706      1.0  0.24261  0.62546  0.86174  1.0000
  C   C707      1.0  0.24791  0.61805  0.87015  1.0000
  C   C708      1.0  0.25708  0.62054  0.87293  1.0000
  H   H1141     1.0  0.24258  0.64102  0.84981  1.0000
  C   C709      1.0  0.16787  0.60674  0.74217  1.0000
  H   H1142     1.0  0.27943  0.56187  0.91451  1.0000
  N   N67       1.0  0.29296  0.65655  0.91654  1.0000
  H   H1143     1.0  0.09187  0.35474  0.75003  1.0000
  C   C710      1.0  0.25172  0.39911  0.85418  1.0000
  H   H1144     1.0  0.06328  0.34435  0.75038  1.0000
  H   H1145     1.0  0.04927  0.36199  0.75184  1.0000
  C   C711      1.0  0.13262  0.41347  0.77754  1.0000
  C   C712      1.0  0.12249  0.41102  0.78435  1.0000
  C   C713      1.0  0.11231  0.41848  0.78306  1.0000
  C   C714      1.0  0.11225  0.42823  0.77478  1.0000
  C   C715      1.0  0.12240  0.43082  0.76822  1.0000
  C   C716      1.0  0.13260  0.42346  0.76963  1.0000
  H   H1146     1.0  0.12249  0.40333  0.79053  1.0000
  H   H1147     1.0  0.10451  0.41651  0.78823  1.0000
  H   H1148     1.0  0.12244  0.43845  0.76198  1.0000
  H   H1149     1.0  0.14044  0.42538  0.76441  1.0000
  C   C717      1.0  0.09666  0.37235  0.80178  1.0000
  C   C718      1.0  0.10125  0.37002  0.79115  1.0000
  C   C719      1.0  0.09452  0.36750  0.78529  1.0000
  C   C720      1.0  0.08314  0.36730  0.78998  1.0000
  C   C721      1.0  0.07851  0.36977  0.80054  1.0000
  C   C722      1.0  0.08525  0.37227  0.80641  1.0000
  H   H1150     1.0  0.11002  0.37004  0.78749  1.0000
  H   H1151     1.0  0.09819  0.36568  0.77710  1.0000
  H   H1152     1.0  0.06980  0.36945  0.80433  1.0000
  H   H1153     1.0  0.08163  0.37401  0.81465  1.0000
  H   H1154     1.0  0.19240  0.42924  0.89433  1.0000
  C   C723      1.0  0.15307  0.33972  0.76021  1.0000
  C   C724      1.0  0.23269  0.63766  0.90554  1.0000
  H   H1155     1.0  0.16069  0.33508  0.76305  1.0000
  H   H1156     1.0  0.17568  0.60691  0.79847  1.0000
  C   C725      1.0  0.17507  0.38211  0.83729  1.0000
  C   C726      1.0  0.16622  0.38777  0.83172  1.0000
  C   C727      1.0  0.16152  0.38218  0.82638  1.0000
  C   C728      1.0  0.16547  0.37073  0.82666  1.0000
  C   C729      1.0  0.17429  0.36504  0.83228  1.0000
  C   C730      1.0  0.17912  0.37068  0.83747  1.0000
  H   H1157     1.0  0.16298  0.39659  0.83147  1.0000
  H   H1158     1.0  0.15475  0.38673  0.82214  1.0000
  H   H1159     1.0  0.17744  0.35620  0.83261  1.0000
  H   H1160     1.0  0.18591  0.36615  0.84167  1.0000
  C   C731      1.0  0.25855  0.35437  0.87139  1.0000
  C   C732      1.0  0.24721  0.35399  0.87293  1.0000
  C   C733      1.0  0.24052  0.36151  0.86574  1.0000
  C   C734      1.0  0.24533  0.36901  0.85667  1.0000
  C   C735      1.0  0.25675  0.36908  0.85496  1.0000
  C   C736      1.0  0.26325  0.36202  0.86246  1.0000
  H   H1161     1.0  0.24357  0.34800  0.87976  1.0000
  H   H1162     1.0  0.23173  0.36133  0.86703  1.0000
  H   H1163     1.0  0.26059  0.37473  0.84792  1.0000
  H   H1164     1.0  0.27194  0.36241  0.86118  1.0000
  C   C737      1.0  0.15520  0.37028  0.87919  1.0000
  C   C738      1.0  0.23221  0.43726  0.85920  1.0000
  C   C739      1.0  0.23257  0.42595  0.86417  1.0000
  C   C740      1.0  0.22329  0.42117  0.86539  1.0000
  C   C741      1.0  0.21357  0.42778  0.86179  1.0000
  C   C742      1.0  0.21306  0.43919  0.85737  1.0000
  C   C743      1.0  0.22239  0.44387  0.85591  1.0000
  H   H1165     1.0  0.24012  0.42088  0.86685  1.0000
  H   H1166     1.0  0.22365  0.41240  0.86906  1.0000
  H   H1167     1.0  0.20553  0.44438  0.85469  1.0000
  H   H1168     1.0  0.22209  0.45258  0.85194  1.0000
  C   C744      1.0  0.28235  0.42045  0.87866  1.0000
  C   C745      1.0  0.27561  0.42194  0.87103  1.0000
  C   C746      1.0  0.27609  0.41318  0.86602  1.0000
  C   C747      1.0  0.28323  0.40282  0.86871  1.0000
  C   C748      1.0  0.29011  0.40135  0.87623  1.0000
  C   C749      1.0  0.28976  0.41020  0.88111  1.0000
  H   H1169     1.0  0.26991  0.42982  0.86899  1.0000
  H   H1170     1.0  0.27076  0.41441  0.86022  1.0000
  H   H1171     1.0  0.29576  0.39343  0.87823  1.0000
  H   H1172     1.0  0.29504  0.40900  0.88698  1.0000
  C   C750      1.0  0.25248  0.35968  0.93399  1.0000
  C   C751      1.0  0.25778  0.35416  0.92519  1.0000
  C   C752      1.0  0.26841  0.35576  0.91890  1.0000
  C   C753      1.0  0.27395  0.36247  0.92176  1.0000
  C   C754      1.0  0.26882  0.36767  0.93079  1.0000
  C   C755      1.0  0.25797  0.36650  0.93672  1.0000
  H   H1173     1.0  0.25362  0.34875  0.92316  1.0000
  H   H1174     1.0  0.27239  0.35167  0.91197  1.0000
  H   H1175     1.0  0.27315  0.37277  0.93306  1.0000
  H   H1176     1.0  0.25394  0.37070  0.94357  1.0000
  C   C756      1.0  0.19976  0.39338  0.91825  1.0000
  C   C757      1.0  0.19785  0.39867  0.90753  1.0000
  C   C758      1.0  0.19732  0.39244  0.90012  1.0000
  C   C759      1.0  0.19822  0.38089  0.90353  1.0000
  C   C760      1.0  0.19979  0.37561  0.91435  1.0000
  C   C761      1.0  0.20080  0.38180  0.92162  1.0000
  H   H1177     1.0  0.19674  0.40762  0.90494  1.0000
  H   H1178     1.0  0.19599  0.39662  0.89184  1.0000
  H   H1179     1.0  0.20036  0.36669  0.91711  1.0000
  H   H1180     1.0  0.20207  0.37767  0.92993  1.0000
  C   C762      1.0  0.23799  0.42180  0.93224  1.0000
  C   C763      1.0  0.24575  0.42780  0.92483  1.0000
  C   C764      1.0  0.24215  0.43703  0.91677  1.0000
  C   C765      1.0  0.23071  0.44058  0.91647  1.0000
  C   C766      1.0  0.22292  0.43482  0.92412  1.0000
  C   C767      1.0  0.22659  0.42525  0.93178  1.0000
  H   H1181     1.0  0.25456  0.42525  0.92520  1.0000
  H   H1182     1.0  0.24820  0.44150  0.91092  1.0000
  H   H1183     1.0  0.21406  0.43761  0.92398  1.0000
  H   H1184     1.0  0.22054  0.42068  0.93739  1.0000
  N   N68       1.0  0.01635  0.38733  0.74548  1.0000
  C   C768      1.0  0.23276  0.54735  0.89143  1.0000
  C   C769      1.0  0.22340  0.55615  0.89112  1.0000
  C   C770      1.0  0.22214  0.56361  0.88103  1.0000
  C   C771      1.0  0.22995  0.56192  0.87121  1.0000
  C   C772      1.0  0.23884  0.55263  0.87140  1.0000
  C   C773      1.0  0.24027  0.54537  0.88154  1.0000
  H   H1185     1.0  0.21734  0.55747  0.89867  1.0000
  H   H1186     1.0  0.21517  0.57071  0.88088  1.0000
  H   H1187     1.0  0.24481  0.55126  0.86377  1.0000
  H   H1188     1.0  0.24718  0.53825  0.88167  1.0000
  C   C774      1.0  0.28582  0.57167  0.88676  1.0000
  C   C775      1.0  0.28436  0.58330  0.88301  1.0000
  C   C776      1.0  0.29019  0.58941  0.88643  1.0000
  C   C777      1.0  0.29765  0.58391  0.89354  1.0000
  C   C778      1.0  0.29927  0.57226  0.89713  1.0000
  C   C779      1.0  0.29333  0.56616  0.89381  1.0000
  H   H1189     1.0  0.27859  0.58768  0.87758  1.0000
  H   H1190     1.0  0.28891  0.59838  0.88357  1.0000
  H   H1191     1.0  0.30506  0.56795  0.90258  1.0000
  H   H1192     1.0  0.29465  0.55719  0.89662  1.0000
  C   C780      1.0  0.27668  0.49994  0.88776  1.0000
  C   C781      1.0  0.27477  0.48905  0.89187  1.0000
  C   C782      1.0  0.26912  0.48459  0.88643  1.0000
  C   C783      1.0  0.26569  0.49086  0.87662  1.0000
  C   C784      1.0  0.26771  0.50170  0.87245  1.0000
  C   C785      1.0  0.27310  0.50626  0.87804  1.0000
  H   H1193     1.0  0.27755  0.48411  0.89937  1.0000
  H   H1194     1.0  0.26750  0.47629  0.88980  1.0000
  H   H1195     1.0  0.26512  0.50661  0.86485  1.0000
  H   H1196     1.0  0.27468  0.51460  0.87471  1.0000
  C   C786      1.0  0.26762  0.60269  0.94785  1.0000
  C   C787      1.0  0.27652  0.60223  0.93858  1.0000
  C   C788      1.0  0.27813  0.61199  0.93066  1.0000
  C   C789      1.0  0.27106  0.62224  0.93220  1.0000
  C   C790      1.0  0.26257  0.62279  0.94177  1.0000
  C   C791      1.0  0.26082  0.61299  0.94958  1.0000
  H   H1197     1.0  0.28192  0.59432  0.93729  1.0000
  H   H1198     1.0  0.28476  0.61152  0.92331  1.0000
  H   H1199     1.0  0.25712  0.63072  0.94300  1.0000
  H   H1200     1.0  0.25412  0.61341  0.95688  1.0000
  C   C792      1.0  0.21668  0.60867  0.92004  1.0000
  C   C793      1.0  0.20738  0.60388  0.92558  1.0000
  C   C794      1.0  0.20110  0.60105  0.91947  1.0000
  C   C795      1.0  0.20431  0.60260  0.90780  1.0000
  C   C796      1.0  0.21345  0.60762  0.90225  1.0000
  C   C797      1.0  0.21948  0.61078  0.90833  1.0000
  H   H1201     1.0  0.20492  0.60252  0.93458  1.0000
  H   H1202     1.0  0.19379  0.59756  0.92382  1.0000
  H   H1203     1.0  0.21585  0.60910  0.89326  1.0000
  H   H1204     1.0  0.22638  0.61478  0.90388  1.0000
  C   C798      1.0  0.23877  0.55474  0.95177  1.0000
  C   C799      1.0  0.24892  0.55590  0.95340  1.0000
  C   C800      1.0  0.25917  0.54981  0.94838  1.0000
  C   C801      1.0  0.25932  0.54307  0.94119  1.0000
  C   C802      1.0  0.24917  0.54200  0.93948  1.0000
  C   C803      1.0  0.23891  0.54757  0.94504  1.0000
  H   H1205     1.0  0.24885  0.56132  0.95872  1.0000
  H   H1206     1.0  0.26700  0.55050  0.94986  1.0000
  H   H1207     1.0  0.24923  0.53668  0.93407  1.0000
  H   H1208     1.0  0.26066  0.40338  0.82605  1.0000
  N   N69       1.0  0.14710  0.39131  0.75001  1.0000
  H   H1209     1.0  0.11503  0.33940  0.75206  1.0000
  H   H1210     1.0  0.23080  0.64579  0.90811  1.0000
  C   C804      1.0  0.30510  0.32947  0.85703  1.0000
  H   H1211     1.0  0.10600  0.48228  0.75109  1.0000
  H   H1212     1.0  0.16578  0.34000  0.81459  1.0000
  H   H1213     1.0  0.17572  0.35937  0.79871  1.0000
  H   H1214     1.0  0.18528  0.32923  0.81022  1.0000
  C   C805      1.0  0.08863  0.33775  0.76721  1.0000
  C   C806      1.0  0.28528  0.33556  0.85674  1.0000
  H   H1215     1.0  0.30563  0.64205  0.92105  1.0000
  H   H1216     1.0  0.13723  0.40740  0.75272  1.0000
  S   S366      1.0  0.05044  0.38480  0.74127  1.0000
  C   C807      1.0  0.09579  0.35421  0.75709  1.0000
  N   N70       1.0  0.17705  0.34216  0.79853  1.0000
  H   H1217     1.0  0.24330  0.57708  0.87265  1.0000
  H   H1218     1.0  0.24753  0.58780  0.87643  1.0000
  N   N71       1.0  0.21690  0.56802  0.92256  1.0000
  C   C808      1.0  0.22135  0.55585  0.92417  1.0000
  C   C809      1.0  0.20499  0.57042  0.92171  1.0000
  C   C810      1.0  0.22349  0.57376  0.91222  1.0000
  C   C811      1.0  0.21777  0.57200  0.93216  1.0000
  H   H1219     1.0  0.21716  0.55135  0.93232  1.0000
  H   H1220     1.0  0.23057  0.55370  0.92385  1.0000
  H   H1221     1.0  0.21992  0.55244  0.91761  1.0000
  H   H1222     1.0  0.19976  0.56624  0.92936  1.0000
  H   H1223     1.0  0.20131  0.57949  0.92045  1.0000
  H   H1224     1.0  0.20405  0.56766  0.91445  1.0000
  H   H1225     1.0  0.22043  0.58297  0.91088  1.0000
  H   H1226     1.0  0.22283  0.57118  0.90476  1.0000
  H   H1227     1.0  0.23256  0.57193  0.91248  1.0000
  H   H1228     1.0  0.22665  0.57019  0.93311  1.0000
  H   H1229     1.0  0.21286  0.56792  0.94013  1.0000
  H   H1230     1.0  0.21456  0.58115  0.93125  1.0000
  N   N72       1.0  0.26492  0.39916  0.90867  1.0000
  C   C812      1.0  0.26117  0.39094  0.90493  1.0000
  C   C813      1.0  0.27724  0.39592  0.90783  1.0000
  C   C814      1.0  0.25926  0.39943  0.92037  1.0000
  C   C815      1.0  0.26199  0.41034  0.90161  1.0000
  H   H1231     1.0  0.26352  0.38238  0.90992  1.0000
  H   H1232     1.0  0.26517  0.39068  0.89604  1.0000
  H   H1233     1.0  0.25189  0.39296  0.90576  1.0000
  H   H1234     1.0  0.27960  0.38806  0.91388  1.0000
  H   H1235     1.0  0.28175  0.39442  0.89941  1.0000
  H   H1236     1.0  0.28055  0.40247  0.90952  1.0000
  H   H1237     1.0  0.26213  0.40532  0.92357  1.0000
  H   H1238     1.0  0.26097  0.39110  0.92596  1.0000
  H   H1239     1.0  0.15860  0.38730  0.86160  1.0000
  H   H1240     1.0  0.27729  0.55756  0.92932  1.0000
  C   C816      1.0  0.10827  0.62962  0.76624  1.0000
  H   H1241     1.0  0.11545  0.63841  0.77964  1.0000
  H   H1242     1.0  0.10665  0.63890  0.76384  1.0000
  H   H1243     1.0  0.10918  0.62648  0.75862  1.0000
  H   H1244     1.0  0.11108  0.34620  0.76983  1.0000
  C   C817      1.0  0.25982  0.57377  0.92238  1.0000
  C   C818      1.0  0.27922  0.56453  0.92223  1.0000
  H   H1245     1.0  0.25330  0.58152  0.92318  1.0000
  H   H1246     1.0  0.28785  0.56545  0.92191  1.0000
  H   H1247     1.0  0.27508  0.58293  0.90627  1.0000
  N   N73       1.0  0.11838  0.62501  0.77112  1.0000
  C   C819      1.0  0.11663  0.62917  0.78139  1.0000
  C   C820      1.0  0.12828  0.62854  0.76305  1.0000
  C   C821      1.0  0.16064  0.38773  0.86947  1.0000
  H   H1248     1.0  0.15774  0.36170  0.88408  1.0000
  H   H1249     1.0  0.16734  0.39267  0.86694  1.0000
  H   H1250     1.0  0.15307  0.39255  0.87425  1.0000
  N   N74       1.0  0.27082  0.57498  0.92345  1.0000
  C   C822      1.0  0.27445  0.58433  0.91469  1.0000
  H   H1251     1.0  0.26038  0.57194  0.91413  1.0000
  H   H1252     1.0  0.24169  0.50521  0.87755  1.0000
  H   H1253     1.0  0.15429  0.38791  0.76440  1.0000
  C   C823      1.0  0.17433  0.37039  0.86924  1.0000
  H   H1254     1.0  0.18130  0.37497  0.86651  1.0000
  H   H1255     1.0  0.28284  0.58537  0.91508  1.0000
  H   H1256     1.0  0.26843  0.59239  0.91550  1.0000
  C   C824      1.0  0.23744  0.50223  0.88632  1.0000
  H   H1257     1.0  0.23554  0.49840  0.90851  1.0000
  H   H1258     1.0  0.22941  0.50029  0.88608  1.0000
  H   H1259     1.0  0.18260  0.57828  0.81548  1.0000
  H   H1260     1.0  0.17261  0.59478  0.79618  1.0000
  C   C825      1.0  0.12032  0.61269  0.77381  1.0000
  H   H1261     1.0  0.12225  0.60922  0.76620  1.0000
  H   H1262     1.0  0.11281  0.60973  0.77943  1.0000
  C   C826      1.0  0.22816  0.52098  0.88851  1.0000
  N   N75       1.0  0.16438  0.37646  0.87604  1.0000
  C   C827      1.0  0.26980  0.57730  0.93449  1.0000
  H   H1263     1.0  0.27811  0.57739  0.93589  1.0000
  C   C828      1.0  0.23015  0.50621  0.90475  1.0000
  H   H1264     1.0  0.22619  0.52731  0.89372  1.0000
  H   H1265     1.0  0.22865  0.51237  0.91009  1.0000
  H   H1266     1.0  0.24290  0.49423  0.88963  1.0000
  H   H1267     1.0  0.14754  0.37461  0.88434  1.0000
  H   H1268     1.0  0.18427  0.57612  0.80173  1.0000
  N   N76       1.0  0.14300  0.57479  0.74668  1.0000
  H   H1269     1.0  0.15278  0.36945  0.87167  1.0000
  H   H1270     1.0  0.17755  0.36192  0.87394  1.0000
  H   H1271     1.0  0.26422  0.58555  0.93538  1.0000
  H   H1272     1.0  0.26622  0.57092  0.94137  1.0000
  N   N77       1.0  0.23555  0.51059  0.89315  1.0000
  H   H1273     1.0  0.22211  0.36653  0.91898  1.0000
  H   H1274     1.0  0.24546  0.51881  0.89853  1.0000
  H   H1275     1.0  0.23220  0.52482  0.87994  1.0000
  H   H1276     1.0  0.22002  0.51944  0.88807  1.0000
  C   C829      1.0  0.17612  0.59781  0.80171  1.0000
  H   H1277     1.0  0.19643  0.57471  0.80729  1.0000
  C   C830      1.0  0.16734  0.37741  0.88621  1.0000
  H   H1278     1.0  0.16009  0.38206  0.89150  1.0000
  C   C831      1.0  0.12997  0.48482  0.74193  1.0000
  C   C832      1.0  0.24645  0.51294  0.89306  1.0000
  H   H1279     1.0  0.25240  0.50521  0.89608  1.0000
  H   H1280     1.0  0.19194  0.60515  0.80656  1.0000
  H   H1281     1.0  0.13691  0.46783  0.74913  1.0000
  H   H1282     1.0  0.18711  0.59486  0.81823  1.0000
  N   N78       1.0  0.18774  0.59165  0.80227  1.0000
  H   H1283     1.0  0.17043  0.59675  0.81005  1.0000
  C   C833      1.0  0.19485  0.59307  0.79092  1.0000
  H   H1284     1.0  0.13337  0.58730  0.75599  1.0000
  H   H1285     1.0  0.01610  0.40484  0.73899  1.0000
  H   H1286     1.0  0.14330  0.37625  0.76133  1.0000
  H   H1287     1.0  0.20530  0.42208  0.88695  1.0000
  H   H1288     1.0  0.19501  0.60203  0.78724  1.0000
  H   H1289     1.0  0.20003  0.43656  0.88174  1.0000
  C   C834      1.0  0.20099  0.43015  0.88952  1.0000
  H   H1290     1.0  0.20060  0.45083  0.89167  1.0000
  H   H1291     1.0  0.19270  0.44361  0.90419  1.0000
  H   H1292     1.0  0.21825  0.44069  0.88158  1.0000
  C   C835      1.0  0.20134  0.44402  0.89919  1.0000
  H   H1293     1.0  0.06999  0.41922  0.79952  1.0000
  N   N79       1.0  0.20733  0.43322  0.89611  1.0000
  H   H1294     1.0  0.27235  0.58244  0.86407  1.0000
  H   H1295     1.0  0.09279  0.41043  0.77647  1.0000
  C   C836      1.0  0.29901  0.64497  0.91601  1.0000
  H   H1296     1.0  0.15432  0.58120  0.75220  1.0000
  H   H1297     1.0  0.08889  0.40748  0.80121  1.0000
  C   C837      1.0  0.08677  0.40124  0.79782  1.0000
  H   H1298     1.0  0.08303  0.39525  0.80505  1.0000
  H   H1299     1.0  0.24499  0.60036  0.85831  1.0000
  H   H1300     1.0  0.26614  0.56781  0.85939  1.0000
  C   C838      1.0  0.20834  0.42450  0.90633  1.0000
  H   H1301     1.0  0.21259  0.41617  0.90437  1.0000
  H   H1302     1.0  0.22351  0.42622  0.88706  1.0000
  H   H1303     1.0  0.20586  0.44652  0.90427  1.0000
  C   C839      1.0  0.21868  0.43424  0.88941  1.0000
  H   H1304     1.0  0.19994  0.42369  0.91176  1.0000
  N   N80       1.0  0.07905  0.40662  0.79007  1.0000
  C   C840      1.0  0.08439  0.41453  0.78072  1.0000
  H   H1305     1.0  0.06415  0.40692  0.80312  1.0000
  C   C841      1.0  0.06846  0.41269  0.79607  1.0000
  H   H1306     1.0  0.25211  0.59590  0.84555  1.0000
  H   H1307     1.0  0.26336  0.59603  0.86427  1.0000
  H   H1308     1.0  0.10977  0.32712  0.75956  1.0000
  H   H1309     1.0  0.20098  0.59172  0.81002  1.0000
  H   H1310     1.0  0.08560  0.42155  0.78365  1.0000
  H   H1311     1.0  0.06245  0.41689  0.79049  1.0000
  C   C842      1.0  0.24819  0.59293  0.85441  1.0000
  H   H1312     1.0  0.12972  0.62576  0.75510  1.0000
  C   C843      1.0  0.26596  0.58888  0.85997  1.0000
  H   H1313     1.0  0.21331  0.42640  0.91137  1.0000
  S   S367      1.0  0.15105  0.35158  0.77578  1.0000
  C   C844      1.0  0.15016  0.33674  0.75167  1.0000
  H   H1314     1.0  0.27019  0.59195  0.85125  1.0000
  H   H1315     1.0  0.12389  0.62549  0.78560  1.0000
  H   H1316     1.0  0.24077  0.58973  0.85445  1.0000
  H   H1317     1.0  0.03822  0.62674  0.78812  1.0000
  S   S368      1.0  0.13632  0.49044  0.74949  1.0000
  N   N81       1.0  0.25622  0.58427  0.86036  1.0000
  C   C845      1.0  0.13639  0.35443  0.76129  1.0000
  H   H1318     1.0  0.23762  0.40825  0.97773  1.0000
  C   C846      1.0  0.25063  0.58069  0.87209  1.0000
  C   C847      1.0  0.09859  0.47828  0.75431  1.0000
  C   C848      1.0  0.15615  0.39152  0.75530  1.0000
  C   C849      1.0  0.15992  0.50169  0.77291  1.0000
  C   C850      1.0  0.14046  0.34257  0.74766  1.0000
  H   H1319     1.0  0.03134  0.37552  0.74019  1.0000
  H   H1320     1.0  0.12602  0.35611  0.74944  1.0000
  H   H1321     1.0  0.25297  0.57088  0.85512  1.0000
  C   C851      1.0  0.26014  0.57453  0.85499  1.0000
  H   H1322     1.0  0.25647  0.57415  0.87681  1.0000
  H   H1323     1.0  0.26444  0.57687  0.84614  1.0000
  H   H1324     1.0  0.18166  0.34960  0.80961  1.0000
  N   N82       1.0  0.09884  0.34253  0.76306  1.0000
  C   C852      1.0  0.23131  0.36431  0.91561  1.0000
  Fe  Fe189     1.0  0.10150  0.43815  0.75335  1.0000
  H   H1325     1.0  0.11014  0.55382  0.74166  1.0000
  C   C853      1.0  0.12635  0.46836  0.73804  1.0000
  C   C854      1.0  0.32589  0.64359  0.90233  1.0000
  C   C855      1.0  0.00923  0.36934  0.78150  1.0000
  Fe  Fe190     1.0  0.12700  0.53360  0.73927  1.0000
  H   H1326     1.0  0.29323  0.63905  0.91920  1.0000
  H   H1327     1.0  0.01641  0.62541  0.80574  1.0000
  H   H1328     1.0  0.00833  0.64191  0.79249  1.0000
  C   C856      1.0  0.17054  0.50609  0.75408  1.0000
  H   H1329     1.0  0.09055  0.32895  0.77181  1.0000
  N   N83       1.0  0.16626  0.49712  0.76295  1.0000
  H   H1330     1.0  0.24207  0.41541  0.96368  1.0000
  H   H1331     1.0  0.25600  0.61781  0.89927  1.0000
  C   C857      1.0  0.01082  0.63664  0.78614  1.0000
  H   H1332     1.0  0.30207  0.45200  0.85846  1.0000
  C   C858      1.0  0.09983  0.47731  0.77316  1.0000
  H   H1333     1.0  0.18988  0.35158  0.79557  1.0000
  C   C859      1.0  0.14555  0.37972  0.75222  1.0000
  C   C860      1.0  0.10921  0.57133  0.73977  1.0000
  C   C861      1.0  0.29117  0.32455  0.87360  1.0000
  C   C862      1.0  0.00316  0.58911  0.79177  1.0000
  C   C863      1.0  0.17581  0.48811  0.76589  1.0000
  H   H1334     1.0  0.16523  0.50542  0.77605  1.0000
  H   H1335     1.0  0.08439  0.39293  0.78158  1.0000
  H   H1336     1.0  0.10939  0.45552  0.77239  1.0000
  H   H1337     1.0  0.27233  0.60316  0.98412  1.0000
  N   N84       1.0  0.09908  0.47085  0.76537  1.0000
  H   H1338     1.0  0.18167  0.32441  0.79980  1.0000
  H   H1339     1.0  0.15157  0.49923  0.75646  1.0000
  H   H1340     1.0  0.17552  0.50294  0.74649  1.0000
  H   H1341     1.0  0.17285  0.48120  0.77255  1.0000
  H   H1342     1.0  0.23101  0.38588  0.98050  1.0000
  C   C864      1.0  0.05711  0.36209  0.74581  1.0000
  H   H1343     1.0  0.21468  0.43446  0.96128  1.0000
  C   C865      1.0  0.01866  0.62064  0.79901  1.0000
  H   H1344     1.0  0.32363  0.63551  0.90539  1.0000
  H   H1345     1.0  0.16088  0.56960  0.74554  1.0000
  C   C866      1.0  0.08344  0.40252  0.74626  1.0000
  H   H1346     1.0  0.07108  0.44011  0.75581  1.0000
  H   H1347     1.0  0.08110  0.47278  0.77050  1.0000
  H   H1348     1.0  0.07708  0.40989  0.74866  1.0000
  H   H1349     1.0  0.02909  0.37696  0.75430  1.0000
  C   C867      1.0  0.15672  0.60819  0.74134  1.0000
  C   C868      1.0  0.06576  0.43467  0.75582  1.0000
  C   C869      1.0  0.14391  0.58288  0.73589  1.0000
  H   H1350     1.0  0.25698  0.62598  0.91480  1.0000
  H   H1351     1.0  0.14493  0.59105  0.73674  1.0000
  C   C870      1.0  0.05219  0.42037  0.75594  1.0000
  C   C871      1.0  0.02473  0.37686  0.74777  1.0000
  Fe  Fe191     1.0  0.13171  0.50886  0.75016  1.0000
  H   H1352     1.0  0.15557  0.32984  0.74808  1.0000
  H   H1353     1.0  0.23208  0.38113  0.88987  1.0000
  H   H1354     1.0  0.09735  0.34658  0.77883  1.0000
  S   S369      1.0  0.09702  0.42567  0.74669  1.0000
  H   H1355     1.0  0.25101  0.36775  0.90263  1.0000
  H   H1356     1.0  0.03139  0.61438  0.78040  1.0000
  H   H1357     1.0  0.17592  0.51000  0.75693  1.0000
  C   C872      1.0  0.24686  0.62152  0.90125  1.0000
  C   C873      1.0  0.01029  0.38652  0.73733  1.0000
  S   S370      1.0  0.11591  0.52100  0.74649  1.0000
  H   H1358     1.0  0.03256  0.63848  0.77845  1.0000
  H   H1359     1.0  0.07806  0.61441  0.75769  1.0000
  H   H1360     1.0  0.00384  0.39425  0.73543  1.0000
  H   H1361     1.0  0.28698  0.33717  0.84748  1.0000
  C   C874      1.0  0.22820  0.36059  0.89913  1.0000
  H   H1362     1.0  0.08960  0.35942  0.76268  1.0000
  C   C875      1.0  0.06588  0.60066  0.74238  1.0000
  C   C876      1.0  0.24810  0.63056  0.91518  1.0000
  H   H1363     1.0  0.15985  0.34995  0.80379  1.0000
  H   H1364     1.0  0.31074  0.32627  0.88191  1.0000
  H   H1365     1.0  0.15091  0.40442  0.73584  1.0000
  S   S371      1.0  0.20710  0.38718  0.98289  1.0000
  H   H1366     1.0  0.24280  0.62552  0.92206  1.0000
  H   H1367     1.0  0.23289  0.40591  0.96655  1.0000
  H   H1368     1.0  0.24873  0.36558  0.89005  1.0000
  H   H1369     1.0  0.07033  0.39095  0.74184  1.0000
  H   H1370     1.0  0.21316  0.41083  0.97545  1.0000
  H   H1371     1.0  0.04703  0.41478  0.75595  1.0000
  H   H1372     1.0  0.23539  0.36904  0.91904  1.0000
  H   H1373     1.0  0.01254  0.38926  0.76249  1.0000
  H   H1374     1.0  0.10388  0.33603  0.74810  1.0000
  C   C877      1.0  0.24632  0.36351  0.89931  1.0000
  C   C878      1.0  0.01591  0.36154  0.77519  1.0000
  H   H1375     1.0  0.08195  0.39509  0.75295  1.0000
  C   C879      1.0  0.09537  0.55482  0.79739  1.0000
  H   H1376     1.0  0.14148  0.55762  0.75302  1.0000
  H   H1377     1.0  0.24941  0.35435  0.90198  1.0000
  H   H1378     1.0  0.22106  0.38170  0.90207  1.0000
  H   H1379     1.0  0.10302  0.57192  0.74745  1.0000
  C   C880      1.0  0.10723  0.33598  0.75537  1.0000
  H   H1380     1.0  0.12938  0.39818  0.75122  1.0000
  H   H1381     1.0  0.23417  0.35528  0.91911  1.0000
  N   N85       1.0  0.23403  0.36683  0.90330  1.0000
  C   C881      1.0  0.26421  0.60195  0.98322  1.0000
  H   H1382     1.0  0.15335  0.37407  0.74878  1.0000
  H   H1383     1.0  0.22959  0.36273  0.88987  1.0000
  S   S372      1.0  0.09181  0.45295  0.74344  1.0000
  H   H1384     1.0  0.06014  0.64790  0.75958  1.0000
  H   H1385     1.0  0.09080  0.56113  0.80255  1.0000
  H   H1386     1.0  0.23114  0.35141  0.90172  1.0000
  H   H1387     1.0  0.26476  0.60249  0.97421  1.0000
  H   H1388     1.0  0.15710  0.40022  0.75435  1.0000
  H   H1389     1.0  0.08901  0.55265  0.79415  1.0000
  C   C882      1.0  0.13353  0.35151  0.75248  1.0000
  H   H1390     1.0  0.23449  0.38390  0.90215  1.0000
  C   C883      1.0  0.06445  0.43328  0.74573  1.0000
  H   H1391     1.0  0.09901  0.54720  0.80304  1.0000
  H   H1392     1.0  0.10747  0.48102  0.77012  1.0000
  C   C884      1.0  0.01093  0.35645  0.76971  1.0000
  S   S373      1.0  0.10787  0.59341  0.73762  1.0000
  H   H1393     1.0  0.19334  0.33125  0.79616  1.0000
  H   H1394     1.0  0.06859  0.59854  0.75047  1.0000
  H   H1395     1.0  0.21894  0.36255  0.90234  1.0000
  N   N86       1.0  0.24478  0.63238  0.90443  1.0000
  C   C885      1.0  0.14201  0.56399  0.74507  1.0000
  H   H1396     1.0  0.10030  0.47195  0.78157  1.0000
  H   H1397     1.0  0.10466  0.54806  0.77783  1.0000
  H   H1398     1.0  0.11389  0.54253  0.78739  1.0000
  C   C886      1.0  0.22205  0.42739  0.96047  1.0000
  S   S374      1.0  0.12122  0.61487  0.74011  1.0000
  C   C887      1.0  0.11030  0.55031  0.78188  1.0000
  H   H1399     1.0  0.10517  0.57242  0.77369  1.0000
  H   H1400     1.0  0.16351  0.51291  0.75150  1.0000
  C   C888      1.0  0.08778  0.62722  0.75039  1.0000
  C   C889      1.0  0.02389  0.62112  0.77924  1.0000
  C   C890      1.0  0.10366  0.34219  0.77258  1.0000
  N   N87       1.0  0.10416  0.55911  0.78821  1.0000
  H   H1401     1.0  0.01615  0.35024  0.76506  1.0000
  H   H1402     1.0  0.02489  0.35921  0.77478  1.0000
  C   C891      1.0  0.09883  0.56894  0.78071  1.0000
  H   H1403     1.0  0.09275  0.56676  0.77708  1.0000
  H   H1404     1.0  0.12511  0.58046  0.75147  1.0000
  H   H1405     1.0  0.28766  0.46439  0.88843  1.0000
  H   H1406     1.0  0.09545  0.62142  0.74780  1.0000
  H   H1407     1.0  0.25117  0.59068  0.97942  1.0000
  H   H1408     1.0  0.00344  0.38234  0.75933  1.0000
  H   H1409     1.0  0.18486  0.34478  0.78106  1.0000
  C   C892      1.0  0.05738  0.42639  0.74580  1.0000
  H   H1410     1.0  0.11734  0.55302  0.77520  1.0000
  N   N88       1.0  0.02095  0.62789  0.78782  1.0000
  C   C893      1.0  0.18468  0.33127  0.80130  1.0000
  C   C894      1.0  0.28905  0.45743  0.88409  1.0000
  H   H1411     1.0  0.01697  0.61696  0.77970  1.0000
  H   H1412     1.0  0.30160  0.44259  0.87187  1.0000
  H   H1413     1.0  0.09095  0.48509  0.75464  1.0000
  H   H1414     1.0  0.27908  0.65507  0.91058  1.0000
  S   S375      1.0  0.05532  0.62611  0.76583  1.0000
  H   H1415     1.0  0.09402  0.57569  0.78528  1.0000
  C   C895      1.0  0.13292  0.57915  0.75462  1.0000
  C   C896      1.0  0.15876  0.49261  0.75891  1.0000
  H   H1416     1.0  0.01226  0.64224  0.77776  1.0000
  C   C897      1.0  0.08885  0.46612  0.76962  1.0000
  C   C898      1.0  0.07794  0.62323  0.75600  1.0000
  S   S376      1.0  0.08545  0.33995  0.73675  1.0000
  H   H1417     1.0  0.01655  0.55042  0.74655  1.0000
  H   H1418     1.0  0.02074  0.36949  0.75071  1.0000
  S   S377      1.0  0.09989  0.64385  0.74136  1.0000
  H   H1419     1.0  0.15660  0.49516  0.77981  1.0000
  C   C899      1.0  0.06793  0.63069  0.75927  1.0000
  H   H1420     1.0  0.13102  0.36122  0.76505  1.0000
  C   C900      1.0  0.08769  0.63865  0.74832  1.0000
  C   C901      1.0  0.16571  0.34179  0.80554  1.0000
  C   C902      1.0  0.17645  0.34456  0.78665  1.0000
  C   C903      1.0  0.06499  0.35210  0.74493  1.0000
  S   S378      1.0  0.11805  0.43822  0.74131  1.0000
  H   H1421     1.0  0.01646  0.54005  0.75932  1.0000
  S   S379      1.0  0.14298  0.52108  0.74144  1.0000
  C   C904      1.0  0.00288  0.57851  0.77850  1.0000
  C   C905      1.0  0.13162  0.47317  0.74353  1.0000
  C   C906      1.0  0.11211  0.56233  0.79289  1.0000
  C   C907      1.0  0.10910  0.46167  0.76436  1.0000
  H   H1422     1.0  0.11938  0.56479  0.78638  1.0000
  C   C908      1.0  0.15314  0.57318  0.75117  1.0000
  C   C909      1.0  0.25147  0.63973  0.89572  1.0000
  H   H1423     1.0  0.12764  0.45938  0.73940  1.0000
  C   C910      1.0  0.03044  0.63313  0.78687  1.0000
  H   H1424     1.0  0.10797  0.56949  0.79701  1.0000
  H   H1425     1.0  0.27164  0.58190  0.97770  1.0000
  H   H1426     1.0  0.15261  0.50844  0.77100  1.0000
  C   C911      1.0  0.15023  0.39551  0.73785  1.0000
  H   H1427     1.0  0.08476  0.33788  0.76024  1.0000
  H   H1428     1.0  0.21995  0.42157  0.95654  1.0000
  N   N89       1.0  0.22493  0.42162  0.97138  1.0000
  H   H1429     1.0  0.16321  0.48901  0.75143  1.0000
  H   H1430     1.0  0.28068  0.45598  0.88428  1.0000
  H   H1431     1.0  0.13438  0.56487  0.74180  1.0000
  H   H1432     1.0  0.16438  0.38662  0.75166  1.0000
  H   H1433     1.0  0.00583  0.37943  0.74056  1.0000
  H   H1434     1.0  0.24999  0.64808  0.89771  1.0000
  C   C912      1.0  0.13651  0.39850  0.75466  1.0000
  C   C913      1.0  0.33145  0.64739  0.90846  1.0000
  C   C914      1.0  0.32727  0.32906  0.87360  1.0000
  H   H1435     1.0  0.09854  0.47362  0.74803  1.0000
  H   H1436     1.0  0.30309  0.64418  0.90729  1.0000
  S   S380      1.0  0.32347  0.34369  0.87172  1.0000
  H   H1437     1.0  0.28895  0.44890  0.86688  1.0000
  H   H1438     1.0  0.09029  0.38339  0.73852  1.0000
  H   H1439     1.0  0.28062  0.46919  0.86628  1.0000
  H   H1440     1.0  0.30546  0.33685  0.86001  1.0000
  H   H1441     1.0  0.28804  0.47755  0.86983  1.0000
  H   H1442     1.0  0.26128  0.61477  0.87923  1.0000
  H   H1443     1.0  0.24288  0.61539  0.90813  1.0000
  H   H1444     1.0  0.31158  0.46388  0.86402  1.0000
  H   H1445     1.0  0.33329  0.64220  0.91627  1.0000
  H   H1446     1.0  0.29107  0.33213  0.87648  1.0000
  H   H1447     1.0  0.08210  0.34259  0.77296  1.0000
  C   C915      1.0  0.29713  0.45048  0.86717  1.0000
  H   H1448     1.0  0.31150  0.45436  0.87730  1.0000
  H   H1449     1.0  0.08811  0.46116  0.76393  1.0000
  C   C916      1.0  0.30652  0.46187  0.87262  1.0000
  H   H1450     1.0  0.30553  0.46897  0.87666  1.0000
  H   H1451     1.0  0.29347  0.44971  0.88905  1.0000
  H   H1452     1.0  0.29357  0.47215  0.85735  1.0000
  C   C917      1.0  0.28917  0.47014  0.86622  1.0000
  N   N90       1.0  0.29547  0.45998  0.87251  1.0000
  H   H1453     1.0  0.22992  0.63919  0.89755  1.0000
  H   H1454     1.0  0.30722  0.33154  0.84777  1.0000
  C   C918      1.0  0.11332  0.56104  0.73660  1.0000
  H   H1455     1.0  0.24938  0.64100  0.88742  1.0000
  H   H1456     1.0  0.06036  0.60914  0.74169  1.0000
  H   H1457     1.0  0.07761  0.65488  0.75019  1.0000
  H   H1458     1.0  0.26064  0.63612  0.89475  1.0000
  C   C919      1.0  0.07169  0.39890  0.73594  1.0000
  H   H1459     1.0  0.06070  0.59459  0.74289  1.0000
  H   H1460     1.0  0.08902  0.46036  0.77789  1.0000
  H   H1461     1.0  0.13420  0.39596  0.76388  1.0000
  H   H1462     1.0  0.01166  0.61641  0.79995  1.0000
  H   H1463     1.0  0.23030  0.61913  0.97728  1.0000
  H   H1464     1.0  0.00354  0.63291  0.78679  1.0000
  H   H1465     1.0  0.13871  0.37926  0.74843  1.0000
  H   H1466     1.0  0.15512  0.48597  0.76540  1.0000
  C   C920      1.0  0.23480  0.41239  0.96979  1.0000
  H   H1467     1.0  0.08533  0.60646  0.74060  1.0000
  C   C921      1.0  0.02213  0.39680  0.74090  1.0000
  H   H1468     1.0  0.02611  0.61386  0.80054  1.0000
  H   H1469     1.0  0.00536  0.53013  0.75297  1.0000
  H   H1470     1.0  0.18076  0.48447  0.75856  1.0000
  Fe  Fe192     1.0  0.08885  0.44054  0.73547  1.0000
  H   H1471     1.0  0.14939  0.56048  0.73902  1.0000
  H   H1472     1.0  0.00544  0.54051  0.74022  1.0000
  N   N91       1.0  0.08285  0.40095  0.73534  1.0000
  C   C922      1.0  0.22762  0.42958  0.97641  1.0000
  C   C923      1.0  0.00824  0.38912  0.75593  1.0000
  C   C924      1.0  0.05940  0.37217  0.73893  1.0000
  H   H1473     1.0  0.10647  0.33346  0.77699  1.0000
  H   H1474     1.0  0.00201  0.39713  0.75463  1.0000
  H   H1475     1.0  0.13200  0.57326  0.76286  1.0000
  C   C925      1.0  0.01166  0.54805  0.75516  1.0000
  H   H1476     1.0  0.09185  0.40392  0.74607  1.0000
  H   H1477     1.0  0.06477  0.40566  0.73882  1.0000
  H   H1478     1.0  0.01132  0.55455  0.75975  1.0000
  H   H1479     1.0  0.28490  0.34348  0.85913  1.0000
  H   H1480     1.0  0.29188  0.65384  0.93416  1.0000
  H   H1481     1.0  0.23493  0.43310  0.97102  1.0000
  H   H1482     1.0  0.28005  0.65145  0.93043  1.0000
  H   H1483     1.0  0.20759  0.42377  0.98007  1.0000
  N   N92       1.0  0.29395  0.32642  0.86130  1.0000
  C   C926      1.0  0.07518  0.35222  0.73721  1.0000
  H   H1484     1.0  0.22037  0.43667  0.97772  1.0000
  S   S381      1.0  0.13764  0.33777  0.73691  1.0000
  H   H1485     1.0  0.17297  0.33820  0.78479  1.0000
  H   H1486     1.0  0.16204  0.33540  0.80402  1.0000
  H   H1487     1.0  0.22980  0.42545  0.98469  1.0000
  C   C927      1.0  0.00089  0.53845  0.74904  1.0000
  C   C928      1.0  0.28636  0.65687  0.92798  1.0000
  C   C929      1.0  0.32394  0.67023  0.10665  1.0000
  H   H1488     1.0  0.27739  0.65880  0.15054  1.0000
  H   H1489     1.0  0.30953  0.67509  0.05918  1.0000
  H   H1490     1.0  0.19639  0.65934  0.14508  1.0000
  C   C930      1.0  0.27900  0.66758  0.12865  1.0000
  C   C931      1.0  0.32015  0.66013  0.11085  1.0000
  H   H1491     1.0  0.29790  0.67008  0.07815  1.0000
  H   H1492     1.0  0.31827  0.66206  0.07445  1.0000
  H   H1493     1.0  0.16575  0.66185  0.14774  1.0000
  H   H1494     1.0  0.33016  0.73763  0.08123  1.0000
  H   H1495     1.0  0.33229  0.68190  0.10940  1.0000
  C   C932      1.0  0.28336  0.66454  0.14674  1.0000
  N   N93       1.0  0.30623  0.65876  0.06709  1.0000
  H   H1496     1.0  0.29188  0.68057  0.13091  1.0000
  C   C933      1.0  0.17463  0.66273  0.14421  1.0000
  C   C934      1.0  0.30788  0.66776  0.05711  1.0000
  C   C935      1.0  0.33137  0.66789  0.12323  1.0000
  H   H1497     1.0  0.32256  0.67517  0.09860  1.0000
  H   H1498     1.0  0.32773  0.77969  0.13723  1.0000
  H   H1499     1.0  0.28240  0.66757  0.11963  1.0000
  H   H1500     1.0  0.33095  0.75918  0.14369  1.0000
  H   H1501     1.0  0.30031  0.67071  0.05333  1.0000
  H   H1502     1.0  0.29008  0.66199  0.15166  1.0000
  H   H1503     1.0  0.27871  0.67309  0.14776  1.0000
  H   H1504     1.0  0.29966  0.67193  0.12114  1.0000
  H   H1505     1.0  0.31514  0.66487  0.05060  1.0000
  H   H1506     1.0  0.17626  0.66887  0.14810  1.0000
  C   C936      1.0  0.29607  0.67184  0.13015  1.0000
  H   H1507     1.0  0.33133  0.77116  0.15631  1.0000
  H   H1508     1.0  0.30330  0.66932  0.13442  1.0000
  H   H1509     1.0  0.27407  0.67614  0.12932  1.0000
  H   H1510     1.0  0.28863  0.66575  0.07222  1.0000
  C   C937      1.0  0.32949  0.67410  0.11277  1.0000
  C   C938      1.0  0.29653  0.66297  0.07546  1.0000
  H   H1511     1.0  0.17539  0.66636  0.13512  1.0000
  N   N94       1.0  0.28816  0.66418  0.13488  1.0000
  C   C939      1.0  0.32760  0.65777  0.12742  1.0000
  H   H1512     1.0  0.27304  0.66177  0.13180  1.0000
  C   C940      1.0  0.27860  0.89947  0.41080  1.0000
  Fe  Fe193     1.0  0.24078  0.93107  0.40942  1.0000
  S   S382      1.0  0.22360  0.93592  0.41975  1.0000
  S   S383      1.0  0.25665  0.92894  0.41525  1.0000
  Fe  Fe194     1.0  0.23189  0.93112  0.38954  1.0000
  S   S384      1.0  0.21383  0.93626  0.39786  1.0000
  S   S385      1.0  0.23830  0.92533  0.37343  1.0000
  Fe  Fe195     1.0  0.22018  0.94815  0.40403  1.0000
  S   S386      1.0  0.21317  0.96670  0.40283  1.0000
  Fe  Fe196     1.0  0.21888  0.92361  0.41271  1.0000
  S   S387      1.0  0.21072  0.90944  0.42337  1.0000
  S   S388      1.0  0.23779  0.94406  0.39422  1.0000
  S   S389      1.0  0.23648  0.91772  0.40396  1.0000
  Fe  Fe197     1.0  0.23827  0.87131  0.46724  1.0000
  Fe  Fe198     1.0  0.24993  0.88898  0.46855  1.0000
  H   H1513     1.0  0.07661  0.66654  0.26496  1.0000
  S   S390      1.0  0.25006  0.90702  0.46637  1.0000
  Fe  Fe199     1.0  0.26360  0.86734  0.46220  1.0000
  S   S391      1.0  0.27972  0.86212  0.45028  1.0000
  S   S392      1.0  0.25055  0.88080  0.45481  1.0000
  Fe  Fe200     1.0  0.13973  0.77282  0.39063  1.0000
  S   S393      1.0  0.13328  0.79053  0.38211  1.0000
  S   S394      1.0  0.14751  0.75731  0.38329  1.0000
  Fe  Fe201     1.0  0.13511  0.77929  0.41282  1.0000
  S   S395      1.0  0.12756  0.79711  0.40646  1.0000
  S   S396      1.0  0.13728  0.77269  0.43039  1.0000
  Fe  Fe202     1.0  0.11901  0.79008  0.39719  1.0000
  S   S397      1.0  0.10035  0.79636  0.39730  1.0000
  Fe  Fe203     1.0  0.14252  0.79601  0.39225  1.0000
  S   S398      1.0  0.15202  0.81043  0.38696  1.0000
  S   S399      1.0  0.12515  0.77231  0.40514  1.0000
  S   S400      1.0  0.15037  0.77834  0.39913  1.0000
  Fe  Fe204     1.0  0.09493  0.71399  0.36919  1.0000
  S   S401      1.0  0.09657  0.69562  0.37601  1.0000
  S   S402      1.0  0.07948  0.72548  0.36430  1.0000
  Fe  Fe205     1.0  0.11916  0.71393  0.36823  1.0000
  S   S403      1.0  0.12320  0.69530  0.37447  1.0000
  S   S404      1.0  0.13216  0.72476  0.36222  1.0000
  Fe  Fe206     1.0  0.11264  0.69399  0.36309  1.0000
  S   S405      1.0  0.11796  0.68316  0.34992  1.0000
  Fe  Fe207     1.0  0.10680  0.69853  0.38677  1.0000
  S   S406      1.0  0.10410  0.69229  0.40541  1.0000
  S   S407      1.0  0.11030  0.71239  0.35572  1.0000
  S   S408      1.0  0.10347  0.71711  0.38107  1.0000
  Fe  Fe208     1.0  0.27617  0.86555  0.36858  1.0000
  S   S409      1.0  0.28638  0.84950  0.37623  1.0000
  S   S410      1.0  0.26431  0.86532  0.35832  1.0000
  Fe  Fe209     1.0  0.28661  0.87938  0.37738  1.0000
  S   S411      1.0  0.29764  0.86449  0.38597  1.0000
  S   S412      1.0  0.28618  0.89653  0.37913  1.0000
  Fe  Fe210     1.0  0.30079  0.85844  0.37003  1.0000
  S   S413      1.0  0.31780  0.84945  0.36176  1.0000
  Fe  Fe211     1.0  0.28221  0.85716  0.39121  1.0000
  S   S414      1.0  0.27387  0.84860  0.40802  1.0000
  S   S415      1.0  0.29080  0.87399  0.36111  1.0000
  S   S416      1.0  0.27090  0.87260  0.38391  1.0000
  Fe  Fe212     1.0  0.19751  0.86140  0.40614  1.0000
  S   S417      1.0  0.21573  0.85444  0.40639  1.0000
  S   S418      1.0  0.19283  0.88019  0.40099  1.0000
  Fe  Fe213     1.0  0.19154  0.83823  0.41085  1.0000
  S   S419      1.0  0.20947  0.82985  0.41193  1.0000
  S   S420      1.0  0.18078  0.82517  0.41345  1.0000
  Fe  Fe214     1.0  0.20916  0.84243  0.42159  1.0000
  S   S421      1.0  0.21866  0.83679  0.43560  1.0000
  Fe  Fe215     1.0  0.21434  0.84264  0.39680  1.0000
  S   S422      1.0  0.22683  0.83707  0.38209  1.0000
  S   S423      1.0  0.19079  0.84991  0.42201  1.0000
  S   S424      1.0  0.19658  0.85053  0.39509  1.0000
  H   H1514     1.0  0.22121  0.97029  0.43725  1.0000
  H   H1515     1.0  0.23602  0.84945  0.45905  1.0000
  S   S425      1.0  0.22253  0.87149  0.46171  1.0000
  Fe  Fe216     1.0  0.05170  0.76532  0.40064  1.0000
  S   S426      1.0  0.05114  0.75103  0.41529  1.0000
  S   S427      1.0  0.07006  0.76562  0.39255  1.0000
  Fe  Fe217     1.0  0.02605  0.76944  0.40300  1.0000
  S   S428      1.0  0.02397  0.75552  0.41803  1.0000
  H   H1516     1.0  0.00585  0.74838  0.40112  1.0000
  Fe  Fe218     1.0  0.03609  0.76191  0.42356  1.0000
  S   S429      1.0  0.03605  0.76262  0.44102  1.0000
  Fe  Fe219     1.0  0.03921  0.74605  0.40827  1.0000
  S   S430      1.0  0.04150  0.72815  0.40743  1.0000
  S   S431      1.0  0.03714  0.77678  0.40937  1.0000
  S   S432      1.0  0.04072  0.75949  0.39287  1.0000
  Fe  Fe220     1.0  0.08341  0.72437  0.46137  1.0000
  S   S433      1.0  0.09952  0.71195  0.46302  1.0000
  S   S434      1.0  0.06780  0.71894  0.46166  1.0000
  Fe  Fe221     1.0  0.09404  0.74408  0.45758  1.0000
  S   S435      1.0  0.11117  0.73335  0.45877  1.0000
  S   S436      1.0  0.08991  0.76275  0.45410  1.0000
  Fe  Fe222     1.0  0.10726  0.72367  0.44822  1.0000
  S   S437      1.0  0.11913  0.71948  0.43238  1.0000
  C   C941      1.0  0.22468  0.98414  0.42377  1.0000
  S   S438      1.0  0.09092  0.73535  0.44588  1.0000
  Fe  Fe223     1.0  0.10172  0.72279  0.47350  1.0000
  H   H1517     1.0  0.19612  0.90418  0.47025  1.0000
  H   H1518     1.0  0.02431  0.72957  0.39281  1.0000
  C   C942      1.0  0.01117  0.76546  0.38233  1.0000
  H   H1519     1.0  0.01195  0.75618  0.37009  1.0000
  H   H1520     1.0  0.02003  0.76568  0.37989  1.0000
  C   C943      1.0  0.04387  0.75020  0.44763  1.0000
  C   C944      1.0  0.04450  0.73997  0.44504  1.0000
  C   C945      1.0  0.05134  0.73021  0.44993  1.0000
  C   C946      1.0  0.05804  0.73080  0.45687  1.0000
  C   C947      1.0  0.05734  0.74102  0.45950  1.0000
  C   C948      1.0  0.04998  0.75061  0.45517  1.0000
  H   H1521     1.0  0.03962  0.73956  0.43938  1.0000
  H   H1522     1.0  0.05174  0.72230  0.44800  1.0000
  H   H1523     1.0  0.06236  0.74150  0.46499  1.0000
  H   H1524     1.0  0.04922  0.75842  0.45748  1.0000
  C   C949      1.0  0.32435  0.85515  0.34810  1.0000
  H   H1525     1.0  0.13249  0.74811  0.40687  1.0000
  H   H1526     1.0  0.15231  0.74950  0.42328  1.0000
  C   C950      1.0  0.15211  0.69590  0.36050  1.0000
  H   H1527     1.0  0.07076  0.71205  0.41916  1.0000
  C   C951      1.0  0.32012  0.86595  0.34266  1.0000
  C   C952      1.0  0.15700  0.70865  0.34307  1.0000
  H   H1528     1.0  0.15733  0.71088  0.33394  1.0000
  H   H1529     1.0  0.31293  0.87113  0.34694  1.0000
  C   C953      1.0  0.25407  0.85735  0.36532  1.0000
  C   C954      1.0  0.25050  0.85536  0.37695  1.0000
  C   C955      1.0  0.24185  0.84944  0.38220  1.0000
  C   C956      1.0  0.23714  0.84511  0.37585  1.0000
  C   C957      1.0  0.24092  0.84691  0.36428  1.0000
  C   C958      1.0  0.24919  0.85320  0.35902  1.0000
  H   H1530     1.0  0.25426  0.85855  0.38186  1.0000
  H   H1531     1.0  0.23898  0.84803  0.39115  1.0000
  H   H1532     1.0  0.23732  0.84359  0.35934  1.0000
  H   H1533     1.0  0.25187  0.85476  0.35004  1.0000
  C   C959      1.0  0.14688  0.72974  0.42564  1.0000
  C   C960      1.0  0.14103  0.70020  0.34647  1.0000
  H   H1534     1.0  0.28005  0.88925  0.48098  1.0000
  H   H1535     1.0  0.07395  0.79002  0.43014  1.0000
  H   H1536     1.0  0.26412  0.81653  0.42517  1.0000
  H   H1537     1.0  0.25621  0.90510  0.41497  1.0000
  S   S439      1.0  0.26411  0.87641  0.47495  1.0000
  H   H1538     1.0  0.23587  0.82435  0.41787  1.0000
  H   H1539     1.0  0.26310  0.88202  0.42991  1.0000
  C   C961      1.0  0.06845  0.72539  0.37599  1.0000
  C   C962      1.0  0.05846  0.73338  0.37553  1.0000
  C   C963      1.0  0.04990  0.73386  0.38510  1.0000
  C   C964      1.0  0.05127  0.72628  0.39509  1.0000
  C   C965      1.0  0.06102  0.71790  0.39540  1.0000
  C   C966      1.0  0.06970  0.71756  0.38589  1.0000
  H   H1540     1.0  0.05744  0.73940  0.36787  1.0000
  H   H1541     1.0  0.04226  0.74017  0.38475  1.0000
  H   H1542     1.0  0.06205  0.71198  0.40310  1.0000
  H   H1543     1.0  0.07738  0.71134  0.38630  1.0000
  C   C967      1.0  0.10885  0.69942  0.41289  1.0000
  C   C968      1.0  0.10507  0.69794  0.42449  1.0000
  C   C969      1.0  0.10814  0.70405  0.43056  1.0000
  C   C970      1.0  0.11529  0.71149  0.42508  1.0000
  C   C971      1.0  0.11933  0.71274  0.41351  1.0000
  C   C972      1.0  0.11602  0.70683  0.40741  1.0000
  H   H1544     1.0  0.09961  0.69213  0.42880  1.0000
  H   H1545     1.0  0.10507  0.70294  0.43948  1.0000
  H   H1546     1.0  0.12493  0.71840  0.40920  1.0000
  H   H1547     1.0  0.11911  0.70795  0.39849  1.0000
  C   C973      1.0  0.16024  0.81433  0.39425  1.0000
  C   C974      1.0  0.16491  0.80685  0.40291  1.0000
  C   C975      1.0  0.17122  0.81032  0.40857  1.0000
  C   C976      1.0  0.17309  0.82129  0.40561  1.0000
  C   C977      1.0  0.16866  0.82870  0.39676  1.0000
  C   C978      1.0  0.16233  0.82523  0.39111  1.0000
  H   H1548     1.0  0.16370  0.79836  0.40519  1.0000
  H   H1549     1.0  0.17476  0.80445  0.41527  1.0000
  H   H1550     1.0  0.16989  0.83720  0.39441  1.0000
  H   H1551     1.0  0.15884  0.83110  0.38438  1.0000
  C   C979      1.0  0.12389  0.77152  0.43826  1.0000
  C   C980      1.0  0.12263  0.76373  0.44833  1.0000
  C   C981      1.0  0.11198  0.76147  0.45362  1.0000
  C   C982      1.0  0.10263  0.76718  0.44896  1.0000
  C   C983      1.0  0.10378  0.77566  0.43944  1.0000
  C   C984      1.0  0.11445  0.77768  0.43395  1.0000
  H   H1552     1.0  0.12992  0.75905  0.45173  1.0000
  H   H1553     1.0  0.11103  0.75518  0.46122  1.0000
  H   H1554     1.0  0.09655  0.78031  0.43595  1.0000
  H   H1555     1.0  0.11536  0.78378  0.42623  1.0000
  C   C985      1.0  0.09203  0.78762  0.39617  1.0000
  C   C986      1.0  0.08049  0.79186  0.39644  1.0000
  C   C987      1.0  0.07355  0.78510  0.39577  1.0000
  C   C988      1.0  0.07815  0.77408  0.39460  1.0000
  C   C989      1.0  0.08971  0.76984  0.39427  1.0000
  C   C990      1.0  0.09661  0.77655  0.39510  1.0000
  H   H1556     1.0  0.07692  0.80046  0.39711  1.0000
  H   H1557     1.0  0.06472  0.78853  0.39579  1.0000
  H   H1558     1.0  0.09338  0.76134  0.39332  1.0000
  H   H1559     1.0  0.10549  0.77322  0.39479  1.0000
  C   C991      1.0  0.14196  0.74911  0.37752  1.0000
  C   C992      1.0  0.14921  0.74422  0.36889  1.0000
  C   C993      1.0  0.14591  0.73696  0.36439  1.0000
  C   C994      1.0  0.13541  0.73406  0.36865  1.0000
  C   C995      1.0  0.12802  0.73880  0.37742  1.0000
  C   C996      1.0  0.13124  0.74646  0.38177  1.0000
  H   H1560     1.0  0.15751  0.74609  0.36562  1.0000
  H   H1561     1.0  0.15167  0.73344  0.35762  1.0000
  H   H1562     1.0  0.11991  0.73659  0.38085  1.0000
  H   H1563     1.0  0.12560  0.75005  0.38854  1.0000
  C   C997      1.0  0.22212  0.86203  0.45389  1.0000
  C   C998      1.0  0.21371  0.86476  0.44767  1.0000
  C   C999      1.0  0.21276  0.85722  0.44178  1.0000
  C   C1000     1.0  0.22000  0.84673  0.44237  1.0000
  C   C1001     1.0  0.22841  0.84399  0.44860  1.0000
  C   C1002     1.0  0.22959  0.85168  0.45419  1.0000
  H   H1564     1.0  0.20782  0.87269  0.44748  1.0000
  H   H1565     1.0  0.20619  0.85937  0.43710  1.0000
  H   H1566     1.0  0.23398  0.83586  0.44918  1.0000
  C   C1003     1.0  0.27800  0.85837  0.43858  1.0000
  C   C1004     1.0  0.26768  0.85647  0.43821  1.0000
  C   C1005     1.0  0.26651  0.85339  0.42882  1.0000
  C   C1006     1.0  0.27555  0.85249  0.41966  1.0000
  C   C1007     1.0  0.28580  0.85457  0.41996  1.0000
  C   C1008     1.0  0.28705  0.85742  0.42945  1.0000
  H   H1567     1.0  0.26067  0.85717  0.44524  1.0000
  H   H1568     1.0  0.25854  0.85180  0.42867  1.0000
  H   H1569     1.0  0.29284  0.85378  0.41297  1.0000
  H   H1570     1.0  0.29505  0.85886  0.42974  1.0000
  C   C1009     1.0  0.25215  0.91807  0.37377  1.0000
  C   C1010     1.0  0.25832  0.92098  0.37985  1.0000
  C   C1011     1.0  0.26901  0.91463  0.38104  1.0000
  C   C1012     1.0  0.27342  0.90514  0.37645  1.0000
  C   C1013     1.0  0.26734  0.90227  0.37024  1.0000
  C   C1014     1.0  0.25677  0.90886  0.36875  1.0000
  H   H1571     1.0  0.25487  0.92816  0.38363  1.0000
  H   H1572     1.0  0.27371  0.91695  0.38574  1.0000
  H   H1573     1.0  0.27081  0.89502  0.36653  1.0000
  H   H1574     1.0  0.25210  0.90670  0.36391  1.0000
  C   C1015     1.0  0.20628  0.90128  0.41673  1.0000
  C   C1016     1.0  0.20693  0.88984  0.42129  1.0000
  C   C1017     1.0  0.20297  0.88326  0.41645  1.0000
  C   C1018     1.0  0.19807  0.88815  0.40717  1.0000
  C   C1019     1.0  0.19742  0.89960  0.40262  1.0000
  C   C1020     1.0  0.20162  0.90612  0.40730  1.0000
  H   H1575     1.0  0.21050  0.88604  0.42860  1.0000
  H   H1576     1.0  0.20349  0.87447  0.42004  1.0000
  H   H1577     1.0  0.19359  0.90345  0.39547  1.0000
  H   H1578     1.0  0.20095  0.91495  0.40380  1.0000
  C   C1021     1.0  0.25484  0.92274  0.42940  1.0000
  C   C1022     1.0  0.26133  0.92459  0.43586  1.0000
  C   C1023     1.0  0.25966  0.91996  0.44731  1.0000
  C   C1024     1.0  0.25184  0.91311  0.45217  1.0000
  C   C1025     1.0  0.24557  0.91105  0.44565  1.0000
  C   C1026     1.0  0.24688  0.91607  0.43430  1.0000
  H   H1579     1.0  0.26752  0.92971  0.43206  1.0000
  H   H1580     1.0  0.26457  0.92149  0.45234  1.0000
  H   H1581     1.0  0.23960  0.90571  0.44939  1.0000
  H   H1582     1.0  0.24184  0.91465  0.42932  1.0000
  H   H1583     1.0  0.11019  0.66395  0.32455  1.0000
  C   C1027     1.0  0.25993  0.89755  0.41133  1.0000
  H   H1584     1.0  0.19333  0.91525  0.45855  1.0000
  C   C1028     1.0  0.21804  0.97308  0.41083  1.0000
  C   C1029     1.0  0.21811  0.96836  0.42206  1.0000
  C   C1030     1.0  0.22133  0.97392  0.42852  1.0000
  H   H1585     1.0  0.26598  0.83059  0.42223  1.0000
  H   H1586     1.0  0.25566  0.82596  0.43402  1.0000
  H   H1587     1.0  0.21541  0.96055  0.42583  1.0000
  N   N95       1.0  0.23023  0.88876  0.38240  1.0000
  C   C1031     1.0  0.24033  0.88682  0.37348  1.0000
  C   C1032     1.0  0.23166  0.88022  0.39265  1.0000
  C   C1033     1.0  0.22025  0.88804  0.37880  1.0000
  C   C1034     1.0  0.22867  0.89998  0.38465  1.0000
  H   H1588     1.0  0.24808  0.88701  0.37599  1.0000
  H   H1589     1.0  0.23963  0.89330  0.36571  1.0000
  H   H1590     1.0  0.24161  0.87858  0.37131  1.0000
  H   H1591     1.0  0.23908  0.88054  0.39564  1.0000
  H   H1592     1.0  0.22413  0.88146  0.39952  1.0000
  H   H1593     1.0  0.23284  0.87166  0.39124  1.0000
  H   H1594     1.0  0.22110  0.87965  0.37713  1.0000
  H   H1595     1.0  0.21889  0.89437  0.37109  1.0000
  H   H1596     1.0  0.21247  0.88949  0.38531  1.0000
  H   H1597     1.0  0.23617  0.90096  0.38706  1.0000
  H   H1598     1.0  0.22130  0.90166  0.39151  1.0000
  H   H1599     1.0  0.22727  0.90667  0.37717  1.0000
  N   N96       1.0  0.25649  0.96152  0.41492  1.0000
  C   C1035     1.0  0.25672  0.97318  0.41463  1.0000
  C   C1036     1.0  0.25109  0.95636  0.42624  1.0000
  C   C1037     1.0  0.26812  0.95514  0.41199  1.0000
  C   C1038     1.0  0.25003  0.96138  0.40683  1.0000
  H   H1600     1.0  0.26073  0.97736  0.40621  1.0000
  H   H1601     1.0  0.26141  0.97362  0.42073  1.0000
  H   H1602     1.0  0.01987  0.71956  0.41248  1.0000
  H   H1603     1.0  0.25592  0.95595  0.43254  1.0000
  H   H1604     1.0  0.24245  0.96117  0.42885  1.0000
  H   H1605     1.0  0.27128  0.90040  0.47325  1.0000
  H   H1606     1.0  0.27326  0.95506  0.41792  1.0000
  H   H1607     1.0  0.27240  0.95875  0.40345  1.0000
  H   H1608     1.0  0.26823  0.94630  0.41217  1.0000
  H   H1609     1.0  0.24121  0.96600  0.40884  1.0000
  H   H1610     1.0  0.09122  0.66259  0.25900  1.0000
  H   H1611     1.0  0.24971  0.95271  0.40683  1.0000
  N   N97       1.0  0.20376  0.81865  0.38090  1.0000
  C   C1039     1.0  0.19815  0.83054  0.37994  1.0000
  C   C1040     1.0  0.19570  0.81210  0.38076  1.0000
  C   C1041     1.0  0.20777  0.81455  0.39147  1.0000
  C   C1042     1.0  0.21345  0.81744  0.37143  1.0000
  H   H1612     1.0  0.20419  0.83577  0.37939  1.0000
  H   H1613     1.0  0.19123  0.83187  0.38730  1.0000
  H   H1614     1.0  0.19445  0.83382  0.37238  1.0000
  H   H1615     1.0  0.19965  0.80308  0.38143  1.0000
  H   H1616     1.0  0.18835  0.81279  0.38786  1.0000
  H   H1617     1.0  0.19234  0.81507  0.37299  1.0000
  H   H1618     1.0  0.21387  0.81933  0.39181  1.0000
  H   H1619     1.0  0.21203  0.80559  0.39253  1.0000
  H   H1620     1.0  0.20069  0.81544  0.39880  1.0000
  H   H1621     1.0  0.21791  0.80857  0.37186  1.0000
  H   H1622     1.0  0.21969  0.82228  0.37137  1.0000
  H   H1623     1.0  0.21074  0.82058  0.36331  1.0000
  N   N98       1.0  0.06833  0.77524  0.43078  1.0000
  C   C1043     1.0  0.06041  0.77202  0.42607  1.0000
  C   C1044     1.0  0.07989  0.76920  0.42687  1.0000
  C   C1045     1.0  0.06530  0.77232  0.44307  1.0000
  C   C1046     1.0  0.06771  0.78740  0.42713  1.0000
  H   H1624     1.0  0.06271  0.77361  0.41681  1.0000
  H   H1625     1.0  0.05166  0.77680  0.42842  1.0000
  H   H1626     1.0  0.06020  0.76301  0.42918  1.0000
  H   H1627     1.0  0.08602  0.77106  0.43063  1.0000
  H   H1628     1.0  0.08056  0.76001  0.42921  1.0000
  H   H1629     1.0  0.08263  0.77158  0.41766  1.0000
  H   H1630     1.0  0.07028  0.77574  0.44692  1.0000
  H   H1631     1.0  0.06700  0.76312  0.44622  1.0000
  H   H1632     1.0  0.05624  0.77567  0.44626  1.0000
  H   H1633     1.0  0.05920  0.79219  0.43029  1.0000
  H   H1634     1.0  0.06951  0.78998  0.41790  1.0000
  H   H1635     1.0  0.12695  0.75376  0.42524  1.0000
  H   H1636     1.0  0.12071  0.67498  0.33003  1.0000
  H   H1637     1.0  0.14098  0.70199  0.33743  1.0000
  N   N99       1.0  0.15250  0.69843  0.34839  1.0000
  C   C1047     1.0  0.15983  0.68896  0.34352  1.0000
  H   H1638     1.0  0.08024  0.72859  0.39937  1.0000
  H   H1639     1.0  0.15414  0.72610  0.41956  1.0000
  H   H1640     1.0  0.27694  0.88343  0.42954  1.0000
  H   H1641     1.0  0.26102  0.90038  0.40211  1.0000
  C   C1048     1.0  0.07098  0.72973  0.42679  1.0000
  H   H1642     1.0  0.26527  0.89505  0.43111  1.0000
  H   H1643     1.0  0.27509  0.90705  0.41444  1.0000
  H   H1644     1.0  0.14872  0.68826  0.36481  1.0000
  N   N100      1.0  0.27077  0.89173  0.41456  1.0000
  C   C1049     1.0  0.11009  0.67522  0.34637  1.0000
  N   N101      1.0  0.14108  0.74086  0.42045  1.0000
  H   H1645     1.0  0.07366  0.72509  0.43474  1.0000
  N   N102      1.0  0.09282  0.75278  0.36606  1.0000
  C   C1050     1.0  0.08174  0.75710  0.36289  1.0000
  C   C1051     1.0  0.10068  0.74661  0.35775  1.0000
  C   C1052     1.0  0.09145  0.74514  0.37709  1.0000
  C   C1053     1.0  0.09737  0.76219  0.36658  1.0000
  H   H1646     1.0  0.07559  0.76165  0.36913  1.0000
  H   H1647     1.0  0.07808  0.75020  0.36240  1.0000
  H   H1648     1.0  0.08238  0.76298  0.35465  1.0000
  H   H1649     1.0  0.10190  0.75208  0.34929  1.0000
  H   H1650     1.0  0.10913  0.74323  0.35992  1.0000
  H   H1651     1.0  0.09749  0.73942  0.35721  1.0000
  H   H1652     1.0  0.09967  0.74149  0.37964  1.0000
  H   H1653     1.0  0.08755  0.73824  0.37707  1.0000
  H   H1654     1.0  0.08589  0.74955  0.38362  1.0000
  H   H1655     1.0  0.09142  0.76725  0.37249  1.0000
  H   H1656     1.0  0.09884  0.76795  0.35831  1.0000
  H   H1657     1.0  0.10552  0.75922  0.36939  1.0000
  S   S440      1.0  0.23647  0.88089  0.48042  1.0000
  H   H1658     1.0  0.07468  0.74090  0.40519  1.0000
  C   C1054     1.0  0.25958  0.82531  0.42521  1.0000
  H   H1659     1.0  0.15165  0.71593  0.34662  1.0000
  H   H1660     1.0  0.26268  0.83383  0.40302  1.0000
  H   H1661     1.0  0.06231  0.72865  0.42755  1.0000
  S   S441      1.0  0.08484  0.73429  0.47288  1.0000
  H   H1662     1.0  0.20331  0.89048  0.45786  1.0000
  S   S442      1.0  0.00975  0.77822  0.39735  1.0000
  C   C1055     1.0  0.11346  0.67230  0.33585  1.0000
  H   H1663     1.0  0.25095  0.84643  0.41496  1.0000
  H   H1664     1.0  0.26998  0.87590  0.41203  1.0000
  H   H1665     1.0  0.25371  0.89205  0.41419  1.0000
  H   H1666     1.0  0.14111  0.72377  0.42881  1.0000
  H   H1667     1.0  0.25036  0.94771  0.42664  1.0000
  N   N103      1.0  0.25105  0.82889  0.41821  1.0000
  C   C1056     1.0  0.24515  0.84054  0.41865  1.0000
  N   N104      1.0  0.29669  0.85150  0.33520  1.0000
  C   C1057     1.0  0.28510  0.85823  0.33576  1.0000
  C   C1058     1.0  0.29906  0.84775  0.34652  1.0000
  C   C1059     1.0  0.30474  0.85837  0.32800  1.0000
  C   C1060     1.0  0.29785  0.84166  0.33054  1.0000
  H   H1668     1.0  0.28390  0.86564  0.33941  1.0000
  H   H1669     1.0  0.27877  0.85331  0.34112  1.0000
  H   H1670     1.0  0.28300  0.86134  0.32737  1.0000
  H   H1671     1.0  0.30766  0.84246  0.34651  1.0000
  H   H1672     1.0  0.29858  0.85495  0.35016  1.0000
  H   H1673     1.0  0.29294  0.84283  0.35231  1.0000
  H   H1674     1.0  0.30376  0.86608  0.33107  1.0000
  H   H1675     1.0  0.30348  0.86105  0.31928  1.0000
  H   H1676     1.0  0.31361  0.85374  0.32777  1.0000
  H   H1677     1.0  0.29603  0.84417  0.32202  1.0000
  H   H1678     1.0  0.29194  0.83625  0.33586  1.0000
  H   H1679     1.0  0.30654  0.83646  0.32997  1.0000
  N   N105      1.0  0.20995  0.90499  0.45617  1.0000
  C   C1061     1.0  0.21474  0.91354  0.44715  1.0000
  C   C1062     1.0  0.19991  0.91045  0.46338  1.0000
  C   C1063     1.0  0.21844  0.89869  0.46286  1.0000
  C   C1064     1.0  0.20671  0.89723  0.45130  1.0000
  H   H1680     1.0  0.21777  0.91924  0.45045  1.0000
  H   H1681     1.0  0.20841  0.91875  0.44217  1.0000
  H   H1682     1.0  0.22197  0.90963  0.44123  1.0000
  H   H1683     1.0  0.01719  0.74016  0.40765  1.0000
  H   H1684     1.0  0.20206  0.91635  0.46719  1.0000
  C   C1065     1.0  0.00425  0.77089  0.39073  1.0000
  H   H1685     1.0  0.22140  0.90425  0.46642  1.0000
  H   H1686     1.0  0.22593  0.89413  0.45772  1.0000
  H   H1687     1.0  0.21505  0.89228  0.46988  1.0000
  H   H1688     1.0  0.21406  0.89304  0.44568  1.0000
  H   H1689     1.0  0.20022  0.90163  0.44627  1.0000
  C   C1066     1.0  0.08260  0.66326  0.25782  1.0000
  N   N106      1.0  0.14022  0.80463  0.43156  1.0000
  C   C1067     1.0  0.14248  0.80860  0.44052  1.0000
  C   C1068     1.0  0.14928  0.79507  0.42878  1.0000
  C   C1069     1.0  0.13982  0.81378  0.42157  1.0000
  C   C1070     1.0  0.12933  0.80105  0.43539  1.0000
  H   H1690     1.0  0.13580  0.81581  0.44284  1.0000
  H   H1691     1.0  0.15065  0.81138  0.43788  1.0000
  H   H1692     1.0  0.14291  0.80189  0.44816  1.0000
  H   H1693     1.0  0.14814  0.79219  0.42168  1.0000
  H   H1694     1.0  0.15769  0.79725  0.42645  1.0000
  H   H1695     1.0  0.14942  0.78778  0.43594  1.0000
  H   H1696     1.0  0.13878  0.81095  0.41439  1.0000
  H   H1697     1.0  0.14770  0.81707  0.41881  1.0000
  H   H1698     1.0  0.13273  0.82092  0.42319  1.0000
  H   H1699     1.0  0.12744  0.79792  0.42886  1.0000
  H   H1700     1.0  0.12225  0.80802  0.43755  1.0000
  H   H1701     1.0  0.12939  0.79407  0.44284  1.0000
  N   N107      1.0  0.07809  0.70233  0.34655  1.0000
  C   C1071     1.0  0.06955  0.71265  0.34419  1.0000
  C   C1072     1.0  0.08937  0.70505  0.34340  1.0000
  C   C1073     1.0  0.07782  0.69436  0.34004  1.0000
  C   C1074     1.0  0.07564  0.69728  0.35858  1.0000
  H   H1702     1.0  0.06093  0.71090  0.34643  1.0000
  H   H1703     1.0  0.07118  0.71676  0.33520  1.0000
  H   H1704     1.0  0.06950  0.71881  0.34904  1.0000
  H   H1705     1.0  0.09162  0.70866  0.33434  1.0000
  H   H1706     1.0  0.08979  0.71121  0.34800  1.0000
  H   H1707     1.0  0.09600  0.69749  0.34532  1.0000
  H   H1708     1.0  0.06953  0.69186  0.34237  1.0000
  H   H1709     1.0  0.08435  0.68659  0.34140  1.0000
  H   H1710     1.0  0.07943  0.69797  0.33092  1.0000
  H   H1711     1.0  0.07573  0.70313  0.36372  1.0000
  H   H1712     1.0  0.08197  0.68953  0.36070  1.0000
  H   H1713     1.0  0.06722  0.69506  0.36126  1.0000
  C   C1075     1.0  0.26893  0.88792  0.42681  1.0000
  H   H1714     1.0  0.24142  0.84152  0.42738  1.0000
  H   H1715     1.0  0.12531  0.73983  0.43209  1.0000
  C   C1076     1.0  0.07479  0.73182  0.40677  1.0000
  H   H1716     1.0  0.16564  0.70764  0.34435  1.0000
  H   H1717     1.0  0.28031  0.90231  0.40156  1.0000
  H   H1718     1.0  0.26132  0.81959  0.40588  1.0000
  H   H1719     1.0  0.23896  0.82142  0.43142  1.0000
  H   H1720     1.0  0.08502  0.71021  0.41139  1.0000
  H   H1721     1.0  0.16061  0.69456  0.36227  1.0000
  H   H1722     1.0  0.13438  0.74618  0.43605  1.0000
  H   H1723     1.0  0.13533  0.70737  0.34991  1.0000
  H   H1724     1.0  0.15630  0.74546  0.40993  1.0000
  H   H1725     1.0  0.15010  0.73017  0.43284  1.0000
  C   C1077     1.0  0.14903  0.74848  0.41637  1.0000
  H   H1726     1.0  0.28683  0.89540  0.41320  1.0000
  C   C1078     1.0  0.13151  0.74534  0.42881  1.0000
  H   H1727     1.0  0.16033  0.69061  0.33438  1.0000
  H   H1728     1.0  0.13727  0.69271  0.35049  1.0000
  H   H1729     1.0  0.14664  0.70288  0.36445  1.0000
  H   H1730     1.0  0.09313  0.72332  0.42414  1.0000
  C   C1079     1.0  0.10074  0.67159  0.35379  1.0000
  H   H1731     1.0  0.06609  0.73099  0.40727  1.0000
  H   H1732     1.0  0.24807  0.97823  0.41676  1.0000
  C   C1080     1.0  0.09009  0.72746  0.41630  1.0000
  H   H1733     1.0  0.09632  0.72405  0.40937  1.0000
  H   H1734     1.0  0.09011  0.73649  0.41486  1.0000
  H   H1735     1.0  0.13089  0.73417  0.41377  1.0000
  H   H1736     1.0  0.14391  0.73663  0.40447  1.0000
  H   H1737     1.0  0.27686  0.88453  0.40002  1.0000
  H   H1738     1.0  0.07053  0.73873  0.42618  1.0000
  H   H1739     1.0  0.08216  0.70873  0.42624  1.0000
  C   C1081     1.0  0.13690  0.73988  0.41100  1.0000
  H   H1740     1.0  0.09819  0.67349  0.36201  1.0000
  H   H1741     1.0  0.15657  0.68115  0.34732  1.0000
  H   H1742     1.0  0.16855  0.68733  0.34486  1.0000
  H   H1743     1.0  0.28392  0.87757  0.41124  1.0000
  C   C1082     1.0  0.27559  0.88200  0.40925  1.0000
  N   N108      1.0  0.07877  0.72567  0.41709  1.0000
  H   H1744     1.0  0.14489  0.75693  0.41247  1.0000
  C   C1083     1.0  0.07920  0.71364  0.41852  1.0000
  C   C1084     1.0  0.10751  0.66601  0.33271  1.0000
  C   C1085     1.0  0.32521  0.87009  0.33161  1.0000
  H   H1745     1.0  0.24690  0.81275  0.42173  1.0000
  C   C1086     1.0  0.24286  0.82151  0.42246  1.0000
  H   H1746     1.0  0.32183  0.87845  0.32744  1.0000
  H   H1747     1.0  0.25032  0.83068  0.40111  1.0000
  H   H1748     1.0  0.23816  0.84330  0.41408  1.0000
  H   H1749     1.0  0.25379  0.96524  0.39818  1.0000
  C   C1087     1.0  0.25658  0.82820  0.40654  1.0000
  H   H1750     1.0  0.08143  0.66958  0.25006  1.0000
  S   S443      1.0  0.25140  0.85712  0.47394  1.0000
  H   H1751     1.0  0.06735  0.65971  0.24855  1.0000
  C   C1088     1.0  0.22152  0.98324  0.40602  1.0000
  C   C1089     1.0  0.09813  0.66242  0.34011  1.0000
  C   C1090     1.0  0.00657  0.76010  0.37678  1.0000
  C   C1091     1.0  0.00844  0.74052  0.40704  1.0000
  C   C1092     1.0  0.09486  0.66521  0.35069  1.0000
  C   C1093     1.0  0.22488  0.98875  0.41246  1.0000
  H   H1752     1.0  0.01524  0.72276  0.38933  1.0000
  H   H1753     1.0  0.08770  0.66241  0.35655  1.0000
  H   H1754     1.0  0.22170  0.98678  0.39727  1.0000
  C   C1094     1.0  0.01545  0.73013  0.39237  1.0000
  C   C1095     1.0  0.27610  0.89831  0.47998  1.0000
  H   H1755     1.0  0.28298  0.90303  0.47700  1.0000
  H   H1756     1.0  0.08214  0.69931  0.47595  1.0000
  H   H1757     1.0  0.01310  0.73767  0.38594  1.0000
  C   C1096     1.0  0.01110  0.72047  0.41153  1.0000
  H   H1758     1.0  0.00290  0.74116  0.41535  1.0000
  H   H1759     1.0  0.00549  0.72062  0.41990  1.0000
  H   H1760     1.0  0.11859  0.73229  0.48238  1.0000
  H   H1761     1.0  0.25845  0.91546  0.48226  1.0000
  C   C1097     1.0  0.07749  0.69502  0.48395  1.0000
  N   N109      1.0  0.00775  0.73069  0.40331  1.0000
  H   H1762     1.0  0.07906  0.68605  0.48365  1.0000
  H   H1763     1.0  0.01073  0.71285  0.40899  1.0000
  H   H1764     1.0  0.06838  0.69865  0.48414  1.0000
  C   C1098     1.0  0.28908  0.91263  0.59310  1.0000
  Fe  Fe224     1.0  0.22027  0.93391  0.62333  1.0000
  S   S444      1.0  0.23441  0.93185  0.60855  1.0000
  S   S445      1.0  0.21671  0.91738  0.63425  1.0000
  Fe  Fe225     1.0  0.21761  0.95955  0.61773  1.0000
  S   S446      1.0  0.23134  0.95902  0.60242  1.0000
  S   S447      1.0  0.21054  0.97757  0.61929  1.0000
  Fe  Fe226     1.0  0.22365  0.94643  0.59944  1.0000
  S   S448      1.0  0.22126  0.94626  0.58269  1.0000
  Fe  Fe227     1.0  0.24055  0.94468  0.61315  1.0000
  S   S449      1.0  0.25878  0.94366  0.61203  1.0000
  S   S450      1.0  0.20898  0.94790  0.61386  1.0000
  S   S451      1.0  0.22736  0.94573  0.62880  1.0000
  Fe  Fe228     1.0  0.24745  0.89282  0.55750  1.0000
  S   S452      1.0  0.25970  0.87643  0.55787  1.0000
  S   S453      1.0  0.22923  0.89311  0.55939  1.0000
  Fe  Fe229     1.0  0.26530  0.90551  0.55540  1.0000
  S   S454      1.0  0.27916  0.89015  0.55545  1.0000
  S   S455      1.0  0.26744  0.92195  0.55704  1.0000
  Fe  Fe230     1.0  0.27049  0.88619  0.54385  1.0000
  S   S456      1.0  0.27888  0.87924  0.52829  1.0000
  Fe  Fe231     1.0  0.26690  0.88193  0.56946  1.0000
  S   S457      1.0  0.26818  0.87174  0.58686  1.0000
  S   S458      1.0  0.25769  0.90232  0.54274  1.0000
  S   S459      1.0  0.25372  0.89759  0.57005  1.0000
  H   H1765     1.0  0.29257  0.90352  0.59412  1.0000
  H   H1766     1.0  0.24109  0.83858  0.55934  1.0000
  C   C1099     1.0  0.00379  0.75349  0.61024  1.0000
  S   S460      1.0  0.24913  0.86291  0.50496  1.0000
  H   H1767     1.0  0.25097  0.98815  0.63029  1.0000
  Fe  Fe232     1.0  0.27721  0.89439  0.65152  1.0000
  S   S461      1.0  0.29541  0.89269  0.64302  1.0000
  S   S462      1.0  0.26587  0.90981  0.65650  1.0000
  Fe  Fe233     1.0  0.27657  0.87054  0.65279  1.0000
  S   S463      1.0  0.29501  0.86653  0.64498  1.0000
  S   S464      1.0  0.26573  0.85755  0.65928  1.0000
  Fe  Fe234     1.0  0.29780  0.87674  0.65587  1.0000
  S   S465      1.0  0.31186  0.87068  0.66593  1.0000
  Fe  Fe235     1.0  0.29100  0.88282  0.63293  1.0000
  S   S466      1.0  0.29647  0.88515  0.61411  1.0000
  S   S467      1.0  0.27965  0.87903  0.66482  1.0000
  S   S468      1.0  0.27253  0.88621  0.64030  1.0000
  Fe  Fe236     1.0  0.19887  0.86986  0.62107  1.0000
  S   S469      1.0  0.21752  0.86368  0.61676  1.0000
  S   S470      1.0  0.19149  0.88841  0.61899  1.0000
  Fe  Fe237     1.0  0.19363  0.84632  0.62709  1.0000
  S   S471      1.0  0.21205  0.83826  0.62411  1.0000
  S   S472      1.0  0.17941  0.83647  0.63256  1.0000
  Fe  Fe238     1.0  0.21476  0.85073  0.63242  1.0000
  S   S473      1.0  0.22714  0.84481  0.64401  1.0000
  Fe  Fe239     1.0  0.21338  0.85185  0.60889  1.0000
  S   S474      1.0  0.22343  0.84785  0.59265  1.0000
  S   S475      1.0  0.19609  0.85744  0.63727  1.0000
  S   S476      1.0  0.19498  0.85942  0.61130  1.0000
  Fe  Fe240     1.0  0.12910  0.70180  0.62654  1.0000
  S   S477      1.0  0.11351  0.71511  0.62678  1.0000
  S   S478      1.0  0.14149  0.70104  0.61033  1.0000
  Fe  Fe241     1.0  0.12387  0.69337  0.65156  1.0000
  S   S479      1.0  0.10778  0.70618  0.65403  1.0000
  S   S480      1.0  0.13145  0.68154  0.66571  1.0000
  Fe  Fe242     1.0  0.10504  0.70208  0.63896  1.0000
  S   S481      1.0  0.08835  0.70188  0.63596  1.0000
  Fe  Fe243     1.0  0.11744  0.71832  0.64160  1.0000
  S   S482      1.0  0.11377  0.73656  0.64206  1.0000
  S   S483      1.0  0.12037  0.68823  0.63738  1.0000
  S   S484      1.0  0.13388  0.70599  0.64046  1.0000
  Fe  Fe244     1.0  0.14469  0.77970  0.61141  1.0000
  S   S485      1.0  0.13755  0.79337  0.62101  1.0000
  S   S486      1.0  0.15314  0.76254  0.61903  1.0000
  Fe  Fe245     1.0  0.13770  0.79397  0.59019  1.0000
  S   S487      1.0  0.13034  0.80898  0.59799  1.0000
  S   S488      1.0  0.13477  0.79434  0.57333  1.0000
  Fe  Fe246     1.0  0.14580  0.80422  0.60557  1.0000
  S   S489      1.0  0.15806  0.81553  0.60405  1.0000
  Fe  Fe247     1.0  0.12293  0.79674  0.61262  1.0000
  S   S490      1.0  0.10462  0.80004  0.62150  1.0000
  S   S491      1.0  0.15368  0.79012  0.59636  1.0000
  S   S492      1.0  0.12950  0.78215  0.60437  1.0000
  H   H1768     1.0  0.08840  0.76812  0.52815  1.0000
  H   H1769     1.0  0.27134  0.91194  0.61015  1.0000
  Fe  Fe248     1.0  0.05704  0.77771  0.60785  1.0000
  S   S493      1.0  0.06554  0.75968  0.61056  1.0000
  S   S494      1.0  0.06818  0.79042  0.60165  1.0000
  Fe  Fe249     1.0  0.03333  0.77224  0.61389  1.0000
  S   S495      1.0  0.04029  0.75378  0.61742  1.0000
  S   S496      1.0  0.01482  0.77947  0.61382  1.0000
  Fe  Fe250     1.0  0.05179  0.75792  0.62578  1.0000
  S   S497      1.0  0.05705  0.74859  0.64174  1.0000
  Fe  Fe251     1.0  0.05316  0.75762  0.60185  1.0000
  S   S498      1.0  0.05789  0.74703  0.58909  1.0000
  S   S499      1.0  0.04387  0.77618  0.62367  1.0000
  S   S500      1.0  0.04567  0.77585  0.59774  1.0000
  Fe  Fe252     1.0  0.12001  0.72668  0.55753  1.0000
  S   S501      1.0  0.11809  0.74257  0.56295  1.0000
  S   S502      1.0  0.11536  0.71228  0.57122  1.0000
  Fe  Fe253     1.0  0.12707  0.73683  0.53285  1.0000
  S   S503      1.0  0.12628  0.75355  0.53645  1.0000
  S   S504      1.0  0.13084  0.73645  0.51438  1.0000
  Fe  Fe254     1.0  0.13437  0.74397  0.55084  1.0000
  S   S505      1.0  0.14732  0.74844  0.55733  1.0000
  Fe  Fe255     1.0  0.11018  0.75070  0.54823  1.0000
  S   S506      1.0  0.09512  0.76469  0.54933  1.0000
  S   S507      1.0  0.13694  0.72737  0.54620  1.0000
  S   S508      1.0  0.11034  0.73469  0.54388  1.0000
  H   H1770     1.0  0.06569  0.76837  0.64307  1.0000
  H   H1771     1.0  0.14567  0.68231  0.64350  1.0000
  C   C1100     1.0  0.12344  0.73054  0.50812  1.0000
  C   C1101     1.0  0.11708  0.72258  0.51432  1.0000
  C   C1102     1.0  0.11142  0.71802  0.50897  1.0000
  C   C1103     1.0  0.11190  0.72148  0.49743  1.0000
  N   N110      1.0  0.29663  0.84418  0.67991  1.0000
  C   C1104     1.0  0.12391  0.73400  0.49658  1.0000
  H   H1772     1.0  0.11673  0.71977  0.52318  1.0000
  H   H1773     1.0  0.10674  0.71169  0.51381  1.0000
  H   H1774     1.0  0.26137  0.91172  0.60243  1.0000
  C   C1105     1.0  0.10776  0.75857  0.51624  1.0000
  H   H1775     1.0  0.21814  0.97048  0.56962  1.0000
  H   H1776     1.0  0.10204  0.74526  0.50622  1.0000
  H   H1777     1.0  0.13794  0.66547  0.68457  1.0000
  H   H1778     1.0  0.07609  0.68159  0.50432  1.0000
  C   C1106     1.0  0.09250  0.76669  0.50657  1.0000
  N   N111      1.0  0.26873  0.90094  0.49052  1.0000
  H   H1779     1.0  0.01781  0.75554  0.61563  1.0000
  C   C1107     1.0  0.15995  0.66033  0.63145  1.0000
  H   H1780     1.0  0.10802  0.76675  0.51771  1.0000
  C   C1108     1.0  0.06799  0.75207  0.57784  1.0000
  C   C1109     1.0  0.07512  0.74491  0.57106  1.0000
  C   C1110     1.0  0.08354  0.74876  0.56233  1.0000
  C   C1111     1.0  0.08457  0.75987  0.56015  1.0000
  C   C1112     1.0  0.07729  0.76709  0.56680  1.0000
  C   C1113     1.0  0.06914  0.76313  0.57577  1.0000
  H   H1781     1.0  0.07430  0.73632  0.57268  1.0000
  H   H1782     1.0  0.08914  0.74313  0.55724  1.0000
  H   H1783     1.0  0.07815  0.77566  0.56520  1.0000
  H   H1784     1.0  0.06378  0.76868  0.58104  1.0000
  C   C1114     1.0  0.09508  0.66407  0.69618  1.0000
  C   C1115     1.0  0.07085  0.76435  0.64953  1.0000
  H   H1785     1.0  0.24122  0.84271  0.53903  1.0000
  C   C1116     1.0  0.13807  0.78142  0.56923  1.0000
  C   C1117     1.0  0.13202  0.77976  0.56220  1.0000
  C   C1118     1.0  0.13460  0.76958  0.55871  1.0000
  C   C1119     1.0  0.14359  0.76118  0.56184  1.0000
  C   C1120     1.0  0.14976  0.76291  0.56873  1.0000
  C   C1121     1.0  0.14685  0.77290  0.57262  1.0000
  H   H1786     1.0  0.12535  0.78637  0.55936  1.0000
  H   H1787     1.0  0.12986  0.76834  0.55334  1.0000
  H   H1788     1.0  0.15685  0.75653  0.57100  1.0000
  H   H1789     1.0  0.15167  0.77418  0.57789  1.0000
  C   C1122     1.0  0.09429  0.79576  0.61745  1.0000
  C   C1123     1.0  0.09692  0.78688  0.61197  1.0000
  C   C1124     1.0  0.08851  0.78431  0.60820  1.0000
  C   C1125     1.0  0.07751  0.79075  0.60970  1.0000
  C   C1126     1.0  0.07483  0.79928  0.61561  1.0000
  C   C1127     1.0  0.08313  0.80166  0.61961  1.0000
  H   H1790     1.0  0.10544  0.78212  0.61045  1.0000
  H   H1791     1.0  0.09068  0.77778  0.60352  1.0000
  H   H1792     1.0  0.06643  0.80445  0.61663  1.0000
  H   H1793     1.0  0.08099  0.80849  0.62391  1.0000
  C   C1128     1.0  0.07889  0.71437  0.63822  1.0000
  C   C1129     1.0  0.07067  0.71926  0.63182  1.0000
  C   C1130     1.0  0.06393  0.72984  0.63280  1.0000
  C   C1131     1.0  0.06504  0.73524  0.64060  1.0000
  C   C1132     1.0  0.07285  0.73009  0.64738  1.0000
  C   C1133     1.0  0.07991  0.71979  0.64603  1.0000
  H   H1794     1.0  0.06964  0.71497  0.62597  1.0000
  H   H1795     1.0  0.05776  0.73372  0.62768  1.0000
  H   H1796     1.0  0.07359  0.73415  0.65356  1.0000
  H   H1797     1.0  0.08598  0.71595  0.65122  1.0000
  C   C1134     1.0  0.13460  0.70362  0.59927  1.0000
  C   C1135     1.0  0.13898  0.70955  0.58873  1.0000
  C   C1136     1.0  0.13310  0.71231  0.58007  1.0000
  C   C1137     1.0  0.12314  0.70862  0.58175  1.0000
  C   C1138     1.0  0.11907  0.70223  0.59213  1.0000
  C   C1139     1.0  0.12461  0.70000  0.60097  1.0000
  H   H1798     1.0  0.14683  0.71218  0.58730  1.0000
  H   H1799     1.0  0.13638  0.71713  0.57203  1.0000
  H   H1800     1.0  0.11153  0.69912  0.59339  1.0000
  H   H1801     1.0  0.12125  0.69527  0.60904  1.0000
  C   C1140     1.0  0.12501  0.74349  0.63616  1.0000
  C   C1141     1.0  0.12269  0.75517  0.63381  1.0000
  C   C1142     1.0  0.13140  0.76097  0.62888  1.0000
  C   C1143     1.0  0.14250  0.75514  0.62625  1.0000
  C   C1144     1.0  0.14489  0.74344  0.62873  1.0000
  C   C1145     1.0  0.13613  0.73761  0.63361  1.0000
  H   H1802     1.0  0.11416  0.75980  0.63569  1.0000
  H   H1803     1.0  0.12949  0.76998  0.62720  1.0000
  H   H1804     1.0  0.15347  0.73890  0.62672  1.0000
  H   H1805     1.0  0.13800  0.72860  0.63548  1.0000
  C   C1146     1.0  0.17375  0.83048  0.62452  1.0000
  C   C1147     1.0  0.16507  0.82459  0.62990  1.0000
  C   C1148     1.0  0.16015  0.81997  0.62384  1.0000
  C   C1149     1.0  0.16378  0.82125  0.61226  1.0000
  C   C1150     1.0  0.17246  0.82712  0.60691  1.0000
  C   C1151     1.0  0.17743  0.83168  0.61296  1.0000
  H   H1806     1.0  0.16211  0.82361  0.63883  1.0000
  H   H1807     1.0  0.15346  0.81554  0.62813  1.0000
  H   H1808     1.0  0.17540  0.82814  0.59797  1.0000
  H   H1809     1.0  0.18411  0.83612  0.60865  1.0000
  C   C1152     1.0  0.31686  0.87808  0.67321  1.0000
  C   C1153     1.0  0.31295  0.88955  0.67282  1.0000
  H   H1810     1.0  0.09821  0.76549  0.49844  1.0000
  H   H1811     1.0  0.26253  0.84193  0.62628  1.0000
  H   H1812     1.0  0.10119  0.66904  0.69041  1.0000
  H   H1813     1.0  0.11577  0.66984  0.66254  1.0000
  H   H1814     1.0  0.30665  0.89420  0.66802  1.0000
  C   C1154     1.0  0.08588  0.75671  0.63560  1.0000
  H   H1815     1.0  0.00684  0.74459  0.61083  1.0000
  C   C1155     1.0  0.25500  0.85496  0.65417  1.0000
  C   C1156     1.0  0.25151  0.84489  0.65913  1.0000
  C   C1157     1.0  0.24299  0.84216  0.65585  1.0000
  C   C1158     1.0  0.23757  0.84950  0.64764  1.0000
  C   C1159     1.0  0.24089  0.85976  0.64263  1.0000
  C   C1160     1.0  0.24970  0.86245  0.64582  1.0000
  H   H1816     1.0  0.25545  0.83907  0.66561  1.0000
  H   H1817     1.0  0.24053  0.83425  0.65981  1.0000
  H   H1818     1.0  0.23667  0.86560  0.63638  1.0000
  H   H1819     1.0  0.25230  0.87028  0.64193  1.0000
  H   H1820     1.0  0.11286  0.66318  0.70456  1.0000
  N   N112      1.0  0.24195  0.85449  0.54814  1.0000
  C   C1161     1.0  0.00634  0.77123  0.61198  1.0000
  H   H1821     1.0  0.25058  0.96573  0.61667  1.0000
  H   H1822     1.0  0.31419  0.90392  0.67811  1.0000
  H   H1823     1.0  0.30297  0.85355  0.68788  1.0000
  C   C1162     1.0  0.01006  0.75970  0.61293  1.0000
  H   H1824     1.0  0.26875  0.84996  0.60589  1.0000
  H   H1825     1.0  0.26336  0.88542  0.49490  1.0000
  H   H1826     1.0  0.15687  0.66337  0.62351  1.0000
  C   C1163     1.0  0.22663  0.88131  0.56960  1.0000
  C   C1164     1.0  0.23442  0.87585  0.57636  1.0000
  C   C1165     1.0  0.23338  0.86557  0.58347  1.0000
  C   C1166     1.0  0.22449  0.86076  0.58389  1.0000
  C   C1167     1.0  0.21640  0.86639  0.57749  1.0000
  C   C1168     1.0  0.21746  0.87673  0.57035  1.0000
  H   H1827     1.0  0.24138  0.87944  0.57605  1.0000
  H   H1828     1.0  0.23955  0.86130  0.58853  1.0000
  H   H1829     1.0  0.20941  0.86271  0.57800  1.0000
  H   H1830     1.0  0.21140  0.88097  0.56515  1.0000
  C   C1169     1.0  0.27624  0.87533  0.59433  1.0000
  C   C1170     1.0  0.27300  0.87372  0.60599  1.0000
  C   C1171     1.0  0.27929  0.87641  0.61218  1.0000
  C   C1172     1.0  0.28898  0.88061  0.60675  1.0000
  C   C1173     1.0  0.29239  0.88191  0.59512  1.0000
  C   C1174     1.0  0.28598  0.87942  0.58891  1.0000
  H   H1831     1.0  0.26551  0.87055  0.61025  1.0000
  H   H1832     1.0  0.27663  0.87526  0.62113  1.0000
  H   H1833     1.0  0.30002  0.88490  0.59086  1.0000
  H   H1834     1.0  0.28869  0.88046  0.57995  1.0000
  C   C1175     1.0  0.27047  0.87503  0.52168  1.0000
  C   C1176     1.0  0.25875  0.87855  0.52385  1.0000
  C   C1177     1.0  0.25227  0.87504  0.51845  1.0000
  C   C1178     1.0  0.25746  0.86805  0.51082  1.0000
  C   C1179     1.0  0.26919  0.86473  0.50848  1.0000
  C   C1180     1.0  0.27566  0.86822  0.51389  1.0000
  H   H1835     1.0  0.25469  0.88396  0.52970  1.0000
  H   H1836     1.0  0.24321  0.87776  0.52015  1.0000
  H   H1837     1.0  0.27327  0.85928  0.50267  1.0000
  H   H1838     1.0  0.28472  0.86549  0.51213  1.0000
  C   C1181     1.0  0.26181  0.93531  0.62460  1.0000
  C   C1182     1.0  0.27111  0.92643  0.62455  1.0000
  C   C1183     1.0  0.27251  0.91867  0.63444  1.0000
  C   C1184     1.0  0.26487  0.92008  0.64442  1.0000
  C   C1185     1.0  0.25600  0.92938  0.64459  1.0000
  C   C1186     1.0  0.25443  0.93697  0.63465  1.0000
  H   H1839     1.0  0.27702  0.92529  0.61685  1.0000
  H   H1840     1.0  0.27943  0.91154  0.63429  1.0000
  H   H1841     1.0  0.25015  0.93053  0.65234  1.0000
  H   H1842     1.0  0.24750  0.94407  0.63478  1.0000
  C   C1187     1.0  0.20959  0.90947  0.62994  1.0000
  C   C1188     1.0  0.20138  0.91461  0.62358  1.0000
  C   C1189     1.0  0.19570  0.90810  0.62047  1.0000
  C   C1190     1.0  0.19825  0.89640  0.62360  1.0000
  C   C1191     1.0  0.20646  0.89125  0.62996  1.0000
  C   C1192     1.0  0.21204  0.89777  0.63316  1.0000
  H   H1843     1.0  0.19928  0.92362  0.62120  1.0000
  H   H1844     1.0  0.18933  0.91215  0.61559  1.0000
  H   H1845     1.0  0.20849  0.88225  0.63244  1.0000
  H   H1846     1.0  0.21837  0.89366  0.63804  1.0000
  C   C1193     1.0  0.23407  0.94013  0.57498  1.0000
  C   C1194     1.0  0.23413  0.93365  0.56760  1.0000
  C   C1195     1.0  0.24437  0.92799  0.56210  1.0000
  C   C1196     1.0  0.25456  0.92930  0.56351  1.0000
  C   C1197     1.0  0.25447  0.93621  0.57048  1.0000
  C   C1198     1.0  0.24425  0.94137  0.57647  1.0000
  H   H1847     1.0  0.22627  0.93279  0.56633  1.0000
  H   H1848     1.0  0.24440  0.92275  0.55661  1.0000
  H   H1849     1.0  0.26233  0.93743  0.57136  1.0000
  H   H1850     1.0  0.24425  0.94645  0.58208  1.0000
  H   H1851     1.0  0.27722  0.93214  0.58292  1.0000
  C   C1199     1.0  0.26358  0.91299  0.48879  1.0000
  H   H1852     1.0  0.22871  0.91368  0.65759  1.0000
  H   H1853     1.0  0.22589  0.96948  0.57983  1.0000
  C   C1200     1.0  0.22060  0.97681  0.63643  1.0000
  C   C1201     1.0  0.22525  0.98157  0.64251  1.0000
  H   H1854     1.0  0.27437  0.93072  0.59772  1.0000
  H   H1855     1.0  0.21959  0.96824  0.63936  1.0000
  H   H1856     1.0  0.22785  0.97659  0.65009  1.0000
  C   C1202     1.0  0.20389  0.97172  0.58927  1.0000
  C   C1203     1.0  0.11807  0.72960  0.49127  1.0000
  C   C1204     1.0  0.26550  0.97797  0.61472  1.0000
  H   H1857     1.0  0.14770  0.68146  0.62920  1.0000
  C   C1205     1.0  0.32508  0.87224  0.67953  1.0000
  H   H1858     1.0  0.27009  0.91815  0.48606  1.0000
  C   C1206     1.0  0.08585  0.77410  0.63994  1.0000
  H   H1859     1.0  0.32824  0.86340  0.67988  1.0000
  C   C1207     1.0  0.33075  0.92430  0.69380  1.0000
  C   C1208     1.0  0.10664  0.65814  0.70991  1.0000
  H   H1860     1.0  0.08115  0.71001  0.50080  1.0000
  H   H1861     1.0  0.26800  0.97273  0.60834  1.0000
  H   H1862     1.0  0.08313  0.67868  0.70915  1.0000
  Fe  Fe256     1.0  0.25071  0.86761  0.48614  1.0000
  H   H1863     1.0  0.20168  0.96672  0.58447  1.0000
  H   H1864     1.0  0.08349  0.71302  0.48598  1.0000
  H   H1865     1.0  0.19604  0.97524  0.59482  1.0000
  N   N113      1.0  0.22311  0.90724  0.59264  1.0000
  C   C1209     1.0  0.23414  0.90883  0.59319  1.0000
  C   C1210     1.0  0.21440  0.91728  0.59470  1.0000
  C   C1211     1.0  0.22030  0.89738  0.60116  1.0000
  C   C1212     1.0  0.22361  0.90544  0.58152  1.0000
  H   H1866     1.0  0.23393  0.91045  0.60144  1.0000
  H   H1867     1.0  0.23668  0.91603  0.58669  1.0000
  H   H1868     1.0  0.24085  0.90130  0.59196  1.0000
  H   H1869     1.0  0.21432  0.91938  0.60267  1.0000
  H   H1870     1.0  0.21590  0.92468  0.58797  1.0000
  H   H1871     1.0  0.20585  0.91608  0.59511  1.0000
  H   H1872     1.0  0.21188  0.89607  0.60123  1.0000
  H   H1873     1.0  0.22021  0.89831  0.60962  1.0000
  H   H1874     1.0  0.22652  0.88960  0.59961  1.0000
  H   H1875     1.0  0.21543  0.90421  0.58078  1.0000
  H   H1876     1.0  0.23001  0.89788  0.57979  1.0000
  H   H1877     1.0  0.22591  0.91256  0.57476  1.0000
  H   H1878     1.0  0.08721  0.76104  0.66043  1.0000
  H   H1879     1.0  0.09506  0.75535  0.63184  1.0000
  H   H1880     1.0  0.06824  0.76955  0.65593  1.0000
  N   N114      1.0  0.10087  0.80742  0.57960  1.0000
  C   C1213     1.0  0.10981  0.81368  0.57359  1.0000
  C   C1214     1.0  0.09475  0.81169  0.58977  1.0000
  C   C1215     1.0  0.10597  0.79544  0.58271  1.0000
  C   C1216     1.0  0.09294  0.80881  0.57236  1.0000
  H   H1881     1.0  0.11477  0.81052  0.56598  1.0000
  H   H1882     1.0  0.11589  0.81279  0.57889  1.0000
  H   H1883     1.0  0.10630  0.82274  0.57100  1.0000
  H   H1884     1.0  0.08770  0.80740  0.59429  1.0000
  H   H1885     1.0  0.10038  0.81037  0.59565  1.0000
  H   H1886     1.0  0.09106  0.82077  0.58779  1.0000
  H   H1887     1.0  0.11107  0.79207  0.57528  1.0000
  H   H1888     1.0  0.09944  0.79040  0.58678  1.0000
  H   H1889     1.0  0.11169  0.79399  0.58853  1.0000
  H   H1890     1.0  0.08606  0.80420  0.57674  1.0000
  H   H1891     1.0  0.09728  0.80556  0.56466  1.0000
  H   H1892     1.0  0.08892  0.81775  0.56981  1.0000
  N   N115      1.0  0.15951  0.86732  0.62411  1.0000
  C   C1217     1.0  0.15225  0.87842  0.62121  1.0000
  C   C1218     1.0  0.15256  0.85945  0.63156  1.0000
  C   C1219     1.0  0.16791  0.86827  0.62985  1.0000
  C   C1220     1.0  0.16536  0.86315  0.61383  1.0000
  H   H1893     1.0  0.14767  0.88180  0.62879  1.0000
  H   H1894     1.0  0.14587  0.87805  0.61678  1.0000
  H   H1895     1.0  0.15730  0.88456  0.61568  1.0000
  H   H1896     1.0  0.14618  0.85847  0.62749  1.0000
  H   H1897     1.0  0.15782  0.85099  0.63388  1.0000
  H   H1898     1.0  0.14808  0.86227  0.63945  1.0000
  H   H1899     1.0  0.16382  0.87151  0.63759  1.0000
  H   H1900     1.0  0.17346  0.87400  0.62443  1.0000
  H   H1901     1.0  0.17340  0.86000  0.63232  1.0000
  H   H1902     1.0  0.17060  0.86893  0.60795  1.0000
  H   H1903     1.0  0.15931  0.86208  0.60940  1.0000
  H   H1904     1.0  0.17106  0.85487  0.61571  1.0000
  N   N116      1.0  0.02742  0.76180  0.58027  1.0000
  C   C1221     1.0  0.02959  0.75218  0.58952  1.0000
  C   C1222     1.0  0.01969  0.77129  0.58480  1.0000
  C   C1223     1.0  0.02224  0.75862  0.57274  1.0000
  C   C1224     1.0  0.03816  0.76507  0.57407  1.0000
  H   H1905     1.0  0.03594  0.74509  0.58649  1.0000
  H   H1906     1.0  0.02182  0.74902  0.59394  1.0000
  H   H1907     1.0  0.03283  0.75445  0.59577  1.0000
  H   H1908     1.0  0.01137  0.76923  0.58918  1.0000
  H   H1909     1.0  0.02309  0.77362  0.59092  1.0000
  H   H1910     1.0  0.01816  0.77884  0.57813  1.0000
  H   H1911     1.0  0.02782  0.75141  0.56925  1.0000
  H   H1912     1.0  0.02047  0.76567  0.56566  1.0000
  H   H1913     1.0  0.01409  0.75614  0.57724  1.0000
  H   H1914     1.0  0.04429  0.75804  0.57069  1.0000
  H   H1915     1.0  0.04223  0.76749  0.57958  1.0000
  H   H1916     1.0  0.03690  0.77228  0.56700  1.0000
  N   N117      1.0  0.17625  0.78415  0.62078  1.0000
  C   C1225     1.0  0.18257  0.79235  0.62102  1.0000
  C   C1226     1.0  0.16439  0.78738  0.62641  1.0000
  C   C1227     1.0  0.18118  0.77291  0.62659  1.0000
  C   C1228     1.0  0.17679  0.78394  0.60909  1.0000
  H   H1917     1.0  0.17912  0.80085  0.61649  1.0000
  H   H1918     1.0  0.19160  0.79010  0.61698  1.0000
  H   H1919     1.0  0.18210  0.79298  0.62970  1.0000
  H   H1920     1.0  0.15942  0.78127  0.62648  1.0000
  H   H1921     1.0  0.16361  0.78780  0.63521  1.0000
  H   H1922     1.0  0.16034  0.79574  0.62213  1.0000
  H   H1923     1.0  0.17651  0.76659  0.62654  1.0000
  H   H1924     1.0  0.18088  0.77276  0.63546  1.0000
  H   H1925     1.0  0.19012  0.77014  0.62255  1.0000
  H   H1926     1.0  0.18560  0.78153  0.60455  1.0000
  H   H1927     1.0  0.17309  0.79230  0.60447  1.0000
  H   H1928     1.0  0.17205  0.77785  0.60862  1.0000
  H   H1929     1.0  0.12886  0.74010  0.49170  1.0000
  C   C1229     1.0  0.07454  0.69070  0.50405  1.0000
  C   C1230     1.0  0.21252  0.98680  0.58862  1.0000
  H   H1930     1.0  0.06957  0.71246  0.49397  1.0000
  H   H1931     1.0  0.09525  0.68274  0.49290  1.0000
  C   C1231     1.0  0.14102  0.66313  0.64244  1.0000
  N   N118      1.0  0.09517  0.66327  0.70796  1.0000
  H   H1932     1.0  0.26102  0.95725  0.63756  1.0000
  H   H1933     1.0  0.13746  0.66597  0.63478  1.0000
  H   H1934     1.0  0.08662  0.66810  0.69430  1.0000
  H   H1935     1.0  0.15098  0.66561  0.65760  1.0000
  N   N119      1.0  0.20962  0.98055  0.58182  1.0000
  H   H1936     1.0  0.25792  0.91522  0.49658  1.0000
  H   H1937     1.0  0.08389  0.76649  0.50602  1.0000
  C   C1232     1.0  0.21694  0.98321  0.62678  1.0000
  C   C1233     1.0  0.25975  0.89449  0.49409  1.0000
  H   H1938     1.0  0.13497  0.66731  0.64896  1.0000
  N   N120      1.0  0.13822  0.74081  0.59777  1.0000
  C   C1234     1.0  0.12705  0.73978  0.60490  1.0000
  C   C1235     1.0  0.14691  0.73167  0.60229  1.0000
  C   C1236     1.0  0.14058  0.75168  0.59755  1.0000
  C   C1237     1.0  0.13839  0.74007  0.58632  1.0000
  H   H1939     1.0  0.12515  0.73156  0.60536  1.0000
  H   H1940     1.0  0.12029  0.74648  0.60167  1.0000
  H   H1941     1.0  0.12662  0.74038  0.61359  1.0000
  H   H1942     1.0  0.14545  0.72335  0.60245  1.0000
  H   H1943     1.0  0.15548  0.73221  0.59717  1.0000
  H   H1944     1.0  0.14693  0.73187  0.61097  1.0000
  H   H1945     1.0  0.13439  0.75879  0.59387  1.0000
  H   H1946     1.0  0.14909  0.75258  0.59250  1.0000
  H   H1947     1.0  0.14026  0.75266  0.60606  1.0000
  H   H1948     1.0  0.13247  0.74722  0.58230  1.0000
  H   H1949     1.0  0.13599  0.73231  0.58617  1.0000
  H   H1950     1.0  0.14691  0.74006  0.58088  1.0000
  N   N121      1.0  0.09170  0.72829  0.60131  1.0000
  C   C1238     1.0  0.09348  0.73384  0.60936  1.0000
  C   C1239     1.0  0.09933  0.73107  0.59041  1.0000
  C   C1240     1.0  0.07994  0.73220  0.59995  1.0000
  C   C1241     1.0  0.09397  0.71607  0.60549  1.0000
  H   H1951     1.0  0.09126  0.74309  0.60673  1.0000
  H   H1952     1.0  0.10239  0.73148  0.61022  1.0000
  H   H1953     1.0  0.08819  0.73146  0.61780  1.0000
  H   H1954     1.0  0.09792  0.74023  0.58700  1.0000
  H   H1955     1.0  0.10832  0.72797  0.59100  1.0000
  H   H1956     1.0  0.09799  0.72717  0.58410  1.0000
  H   H1957     1.0  0.07821  0.72821  0.59394  1.0000
  H   H1958     1.0  0.07802  0.74138  0.59676  1.0000
  H   H1959     1.0  0.07387  0.73036  0.60798  1.0000
  H   H1960     1.0  0.10249  0.71293  0.60743  1.0000
  H   H1961     1.0  0.09335  0.71160  0.59931  1.0000
  H   H1962     1.0  0.08790  0.71359  0.61331  1.0000
  H   H1963     1.0  0.29021  0.91511  0.60043  1.0000
  H   H1964     1.0  0.29433  0.91685  0.58549  1.0000
  H   H1965     1.0  0.26708  0.91373  0.58176  1.0000
  H   H1966     1.0  0.23843  0.83743  0.61769  1.0000
  C   C1242     1.0  0.31727  0.89506  0.67857  1.0000
  H   H1967     1.0  0.26370  0.92994  0.59122  1.0000
  C   C1243     1.0  0.25587  0.97974  0.63347  1.0000
  H   H1968     1.0  0.06852  0.75613  0.65363  1.0000
  S   S509      1.0  0.33079  0.89684  0.69171  1.0000
  H   H1969     1.0  0.07855  0.65981  0.71398  1.0000
  N   N122      1.0  0.27711  0.91538  0.59233  1.0000
  C   C1244     1.0  0.27291  0.92758  0.59097  1.0000
  H   H1970     1.0  0.28089  0.91588  0.57469  1.0000
  C   C1245     1.0  0.08945  0.75677  0.65332  1.0000
  C   C1246     1.0  0.27599  0.91173  0.58263  1.0000
  C   C1247     1.0  0.27047  0.90963  0.60262  1.0000
  H   H1971     1.0  0.27908  0.90258  0.58334  1.0000
  H   H1972     1.0  0.27331  0.90041  0.60375  1.0000
  H   H1973     1.0  0.08371  0.74834  0.63879  1.0000
  N   N123      1.0  0.08302  0.76298  0.64460  1.0000
  H   H1974     1.0  0.09866  0.75589  0.65001  1.0000
  H   H1975     1.0  0.08120  0.76118  0.62885  1.0000
  H   H1976     1.0  0.08787  0.74816  0.65663  1.0000
  H   H1977     1.0  0.25421  0.89175  0.66206  1.0000
  H   H1978     1.0  0.22864  0.85333  0.54109  1.0000
  H   H1979     1.0  0.25135  0.90436  0.64397  1.0000
  H   H1980     1.0  0.24092  0.85665  0.53103  1.0000
  H   H1981     1.0  0.24202  0.91062  0.66157  1.0000
  H   H1982     1.0  0.08407  0.77901  0.64650  1.0000
  H   H1983     1.0  0.09492  0.77344  0.63587  1.0000
  C   C1248     1.0  0.23480  0.90696  0.66187  1.0000
  C   C1249     1.0  0.23799  0.85166  0.53947  1.0000
  H   H1984     1.0  0.22810  0.86841  0.55048  1.0000
  H   H1985     1.0  0.24014  0.87190  0.54028  1.0000
  H   H1986     1.0  0.08088  0.77906  0.63356  1.0000
  H   H1987     1.0  0.23065  0.90464  0.67078  1.0000
  C   C1250     1.0  0.24672  0.88854  0.66231  1.0000
  C   C1251     1.0  0.29518  0.85365  0.68524  1.0000
  C   C1252     1.0  0.23745  0.86642  0.54841  1.0000
  S   S510      1.0  0.10490  0.71528  0.49100  1.0000
  H   H1988     1.0  0.24294  0.88565  0.67123  1.0000
  C   C1253     1.0  0.24396  0.90077  0.64471  1.0000
  H   H1989     1.0  0.23804  0.90733  0.64011  1.0000
  N   N124      1.0  0.23856  0.89721  0.65651  1.0000
  H   H1990     1.0  0.24978  0.88108  0.65844  1.0000
  C   C1254     1.0  0.23795  0.84767  0.55917  1.0000
  H   H1991     1.0  0.24044  0.86886  0.55471  1.0000
  H   H1992     1.0  0.32131  0.93698  0.67684  1.0000
  H   H1993     1.0  0.24690  0.89366  0.64036  1.0000
  C   C1255     1.0  0.25439  0.85225  0.54556  1.0000
  H   H1994     1.0  0.24080  0.84962  0.56588  1.0000
  H   H1995     1.0  0.25768  0.85454  0.55177  1.0000
  H   H1996     1.0  0.25208  0.85980  0.61783  1.0000
  H   H1997     1.0  0.22858  0.84925  0.56146  1.0000
  H   H1998     1.0  0.25770  0.85714  0.53722  1.0000
  H   H1999     1.0  0.26220  0.82923  0.62272  1.0000
  C   C1256     1.0  0.26576  0.96163  0.62964  1.0000
  H   H2000     1.0  0.25807  0.84329  0.54546  1.0000
  H   H2001     1.0  0.27967  0.88896  0.50051  1.0000
  C   C1257     1.0  0.22874  0.89261  0.65713  1.0000
  C   C1258     1.0  0.24695  0.85537  0.61532  1.0000
  C   C1259     1.0  0.24593  0.83843  0.61082  1.0000
  H   H2002     1.0  0.23935  0.85471  0.62209  1.0000
  H   H2003     1.0  0.24276  0.84319  0.60316  1.0000
  H   H2004     1.0  0.32308  0.92172  0.69345  1.0000
  H   H2005     1.0  0.33263  0.91811  0.67471  1.0000
  H   H2006     1.0  0.22230  0.89904  0.65307  1.0000
  H   H2007     1.0  0.22459  0.88965  0.66592  1.0000
  C   C1260     1.0  0.25720  0.83766  0.62380  1.0000
  H   H2008     1.0  0.25042  0.82997  0.60938  1.0000
  H   H2009     1.0  0.24367  0.96628  0.63080  1.0000
  H   H2010     1.0  0.30501  0.85204  0.66387  1.0000
  H   H2011     1.0  0.23123  0.88540  0.65292  1.0000
  N   N125      1.0  0.25332  0.84421  0.61352  1.0000
  H   H2012     1.0  0.24417  0.86069  0.60764  1.0000
  C   C1261     1.0  0.13195  0.66249  0.68196  1.0000
  H   H2013     1.0  0.24995  0.83645  0.63093  1.0000
  C   C1262     1.0  0.09312  0.69181  0.49288  1.0000
  H   H2014     1.0  0.30799  0.83712  0.66639  1.0000
  C   C1263     1.0  0.27545  0.89795  0.49921  1.0000
  H   H2015     1.0  0.32627  0.94557  0.68290  1.0000
  H   H2016     1.0  0.09185  0.67420  0.71931  1.0000
  H   H2017     1.0  0.33319  0.94309  0.66920  1.0000
  H   H2018     1.0  0.09605  0.69301  0.49995  1.0000
  H   H2019     1.0  0.20939  0.96580  0.59472  1.0000
  C   C1264     1.0  0.26312  0.84543  0.60420  1.0000
  H   H2020     1.0  0.26045  0.85030  0.59632  1.0000
  H   H2021     1.0  0.26822  0.83718  0.60264  1.0000
  C   C1265     1.0  0.32902  0.93917  0.67765  1.0000
  C   C1266     1.0  0.32551  0.88923  0.68487  1.0000
  H   H2022     1.0  0.31420  0.84421  0.67302  1.0000
  C   C1267     1.0  0.22001  0.97540  0.57473  1.0000
  C   C1268     1.0  0.15666  0.66166  0.65071  1.0000
  C   C1269     1.0  0.30639  0.84434  0.67041  1.0000
  H   H2023     1.0  0.25059  0.97610  0.64143  1.0000
  N   N126      1.0  0.08094  0.69650  0.49363  1.0000
  N   N127      1.0  0.09630  0.75801  0.51589  1.0000
  H   H2024     1.0  0.24301  0.97887  0.62023  1.0000
  H   H2025     1.0  0.16851  0.66210  0.62971  1.0000
  C   C1270     1.0  0.32935  0.87774  0.68534  1.0000
  H   H2026     1.0  0.08789  0.74604  0.51413  1.0000
  C   C1271     1.0  0.09641  0.74688  0.51424  1.0000
  C   C1272     1.0  0.20206  0.98825  0.57469  1.0000
  H   H2027     1.0  0.29327  0.86179  0.67940  1.0000
  H   H2028     1.0  0.26344  0.98105  0.63549  1.0000
  H   H2029     1.0  0.28473  0.85308  0.66959  1.0000
  C   C1273     1.0  0.07862  0.70852  0.49364  1.0000
  H   H2030     1.0  0.29974  0.82627  0.68438  1.0000
  C   C1274     1.0  0.15126  0.67799  0.63685  1.0000
  C   C1275     1.0  0.28638  0.84518  0.67584  1.0000
  H   H2031     1.0  0.11093  0.75203  0.52307  1.0000
  H   H2032     1.0  0.28713  0.83824  0.67170  1.0000
  C   C1276     1.0  0.29860  0.83359  0.68812  1.0000
  H   H2033     1.0  0.30629  0.83263  0.69133  1.0000
  H   H2034     1.0  0.29139  0.83318  0.69540  1.0000
  H   H2035     1.0  0.28815  0.85360  0.69268  1.0000
  H   H2036     1.0  0.25422  0.89681  0.48797  1.0000
  H   H2037     1.0  0.27878  0.84521  0.68271  1.0000
  H   H2038     1.0  0.21828  0.98125  0.59405  1.0000
  H   H2039     1.0  0.26057  0.98621  0.61115  1.0000
  N   N128      1.0  0.25893  0.97253  0.62525  1.0000
  C   C1277     1.0  0.08857  0.75987  0.52652  1.0000
  H   H2040     1.0  0.09124  0.75342  0.53371  1.0000
  C   C1278     1.0  0.24860  0.97080  0.62313  1.0000
  H   H2041     1.0  0.32827  0.93018  0.69957  1.0000
  H   H2042     1.0  0.09952  0.74013  0.52102  1.0000
  H   H2043     1.0  0.07696  0.69168  0.51149  1.0000
  H   H2044     1.0  0.22458  0.98178  0.56896  1.0000
  H   H2045     1.0  0.11388  0.75718  0.50837  1.0000
  H   H2046     1.0  0.07982  0.75956  0.52660  1.0000
  H   H2047     1.0  0.28214  0.90285  0.49697  1.0000
  H   H2048     1.0  0.09233  0.77518  0.50757  1.0000
  H   H2049     1.0  0.09758  0.68002  0.70507  1.0000
  H   H2050     1.0  0.16507  0.66357  0.64951  1.0000
  C   C1279     1.0  0.12720  0.66890  0.67287  1.0000
  H   H2051     1.0  0.25431  0.89583  0.50227  1.0000
  C   C1280     1.0  0.09177  0.67455  0.71048  1.0000
  N   N129      1.0  0.15223  0.66577  0.64036  1.0000
  H   H2052     1.0  0.19970  0.98376  0.56950  1.0000
  H   H2053     1.0  0.06532  0.69408  0.50488  1.0000
  H   H2054     1.0  0.27012  0.89941  0.50742  1.0000
  H   H2055     1.0  0.15957  0.68033  0.63503  1.0000
  H   H2056     1.0  0.26822  0.95600  0.62361  1.0000
  H   H2057     1.0  0.27362  0.96259  0.63137  1.0000
  H   H2058     1.0  0.27334  0.97948  0.61601  1.0000
  C   C1281     1.0  0.11953  0.66495  0.66951  1.0000
  H   H2059     1.0  0.10704  0.65723  0.71875  1.0000
  H   H2060     1.0  0.09822  0.69603  0.48514  1.0000
  H   H2061     1.0  0.32495  0.66566  0.88042  1.0000
  N   N130      1.0  0.33244  0.88972  0.77955  1.0000
  H   H2062     1.0  0.29695  0.67262  0.91405  1.0000
  H   H2063     1.0  0.28056  0.66915  0.90882  1.0000
  H   H2064     1.0  0.29007  0.66029  0.89990  1.0000
  H   H2065     1.0  0.30608  0.66394  0.90484  1.0000
  C   C1282     1.0  0.30118  0.66385  0.91352  1.0000
  H   H2066     1.0  0.32192  0.89098  0.79571  1.0000
  H   H2067     1.0  0.30735  0.66097  0.91908  1.0000
  H   H2068     1.0  0.33356  0.87352  0.79057  1.0000
  C   C1283     1.0  0.33233  0.66430  0.89439  1.0000
  H   H2069     1.0  0.31836  0.89694  0.77154  1.0000
  C   C1284     1.0  0.28532  0.66046  0.90862  1.0000
  H   H2070     1.0  0.33283  0.72400  0.92450  1.0000
  C   C1285     1.0  0.32759  0.89562  0.78888  1.0000
  H   H2071     1.0  0.33003  0.74870  0.91204  1.0000
  H   H2072     1.0  0.32269  0.90413  0.78609  1.0000
  H   H2073     1.0  0.28168  0.66548  0.92874  1.0000
  C   C1286     1.0  0.32329  0.88863  0.77490  1.0000
  C   C1287     1.0  0.32677  0.66050  0.88825  1.0000
  H   H2074     1.0  0.33207  0.74327  0.92610  1.0000
  H   H2075     1.0  0.31738  0.88389  0.78131  1.0000
  H   H2076     1.0  0.33044  0.72941  0.91050  1.0000
  H   H2077     1.0  0.32668  0.88410  0.76791  1.0000
  Fe  Fe257     1.0  0.40082  0.20157  0.13304  1.0000
  S   S511      1.0  0.40523  0.18683  0.12497  1.0000
  S   S512      1.0  0.38346  0.21227  0.13387  1.0000
  Fe  Fe258     1.0  0.42374  0.19711  0.13839  1.0000
  S   S513      1.0  0.43008  0.18182  0.13106  1.0000
  S   S514      1.0  0.43470  0.20203  0.14682  1.0000
  Fe  Fe259     1.0  0.42158  0.19225  0.11716  1.0000
  S   S515      1.0  0.43151  0.19345  0.09950  1.0000
  Fe  Fe260     1.0  0.41319  0.17772  0.13965  1.0000
  S   S516      1.0  0.41005  0.16038  0.14805  1.0000
  S   S517      1.0  0.41642  0.20789  0.12393  1.0000
  S   S518      1.0  0.40757  0.19217  0.14824  1.0000
  Fe  Fe261     1.0  0.35714  0.28980  0.09917  1.0000
  S   S519      1.0  0.35967  0.27143  0.10680  1.0000
  S   S520      1.0  0.60501  0.09567  0.22713  1.0000
  Fe  Fe262     1.0  0.38172  0.28819  0.08787  1.0000
  S   S521      1.0  0.38644  0.26986  0.09433  1.0000
  S   S522      1.0  0.39364  0.29860  0.07624  1.0000
  Fe  Fe263     1.0  0.37053  0.26909  0.09022  1.0000
  S   S523      1.0  0.37105  0.25408  0.08386  1.0000
  Fe  Fe264     1.0  0.37538  0.27346  0.11044  1.0000
  S   S524      1.0  0.38279  0.26387  0.12533  1.0000
  S   S525      1.0  0.36672  0.28723  0.08215  1.0000
  S   S526      1.0  0.37197  0.29214  0.10438  1.0000
  C   C1288     1.0  0.64419  0.25023  0.10052  1.0000
  S   S527      1.0  0.40036  0.11329  0.20298  1.0000
  C   C1289     1.0  0.39406  0.21839  0.10429  1.0000
  S   S528      1.0  0.41897  0.11752  0.21475  1.0000
  H   H2078     1.0  0.53790  0.08196  0.23191  1.0000
  Fe  Fe265     1.0  0.40282  0.12712  0.20945  1.0000
  S   S529      1.0  0.40214  0.14519  0.20066  1.0000
  H   H2079     1.0  0.60016  0.07438  0.22994  1.0000
  C   C1290     1.0  0.60895  0.07311  0.23005  1.0000
  S   S530      1.0  0.40626  0.09649  0.22637  1.0000
  Fe  Fe266     1.0  0.53404  0.27103  0.11529  1.0000
  S   S531      1.0  0.54133  0.25280  0.12064  1.0000
  S   S532      1.0  0.51547  0.27724  0.11521  1.0000
  Fe  Fe267     1.0  0.55732  0.27739  0.10781  1.0000
  S   S533      1.0  0.56615  0.25967  0.11250  1.0000
  S   S534      1.0  0.56874  0.28946  0.09849  1.0000
  Fe  Fe268     1.0  0.55417  0.25554  0.10481  1.0000
  S   S535      1.0  0.56029  0.24406  0.09282  1.0000
  Fe  Fe269     1.0  0.55253  0.25883  0.12783  1.0000
  S   S536      1.0  0.55866  0.25059  0.14363  1.0000
  S   S537      1.0  0.54617  0.27334  0.09889  1.0000
  S   S538      1.0  0.54432  0.27702  0.12383  1.0000
  Fe  Fe270     1.0  0.60895  0.25213  0.04920  1.0000
  S   S539      1.0  0.60798  0.23686  0.04402  1.0000
  S   S540      1.0  0.59471  0.26627  0.05321  1.0000
  Fe  Fe271     1.0  0.63338  0.24403  0.05090  1.0000
  S   S541      1.0  0.63483  0.22814  0.04541  1.0000
  S   S542      1.0  0.64668  0.24697  0.05812  1.0000
  Fe  Fe272     1.0  0.62466  0.23882  0.03271  1.0000
  S   S543      1.0  0.62910  0.23687  0.01464  1.0000
  Fe  Fe273     1.0  0.61810  0.22749  0.05702  1.0000
  S   S544      1.0  0.61426  0.21215  0.06973  1.0000
  S   S545      1.0  0.62495  0.25488  0.03707  1.0000
  S   S546      1.0  0.61731  0.24254  0.06332  1.0000
  H   H2080     1.0  0.39012  0.07998  0.23050  1.0000
  Fe  Fe274     1.0  0.41149  0.21951  0.04580  1.0000
  S   S547      1.0  0.41074  0.23655  0.04812  1.0000
  S   S548      1.0  0.40532  0.20638  0.06024  1.0000
  Fe  Fe275     1.0  0.41977  0.22533  0.02084  1.0000
  S   S549      1.0  0.41994  0.24294  0.02090  1.0000
  S   S550      1.0  0.42587  0.21937  0.00460  1.0000
  Fe  Fe276     1.0  0.42730  0.23557  0.03611  1.0000
  S   S551      1.0  0.43995  0.24390  0.03837  1.0000
  Fe  Fe277     1.0  0.40345  0.24269  0.03283  1.0000
  S   S552      1.0  0.39001  0.25820  0.03242  1.0000
  S   S553      1.0  0.42889  0.21784  0.03501  1.0000
  S   S554      1.0  0.40245  0.22574  0.03156  1.0000
  Fe  Fe278     1.0  0.45580  0.24507  0.09140  1.0000
  S   S555      1.0  0.46546  0.25810  0.08089  1.0000
  S   S556      1.0  0.45012  0.23199  0.08663  1.0000
  Fe  Fe279     1.0  0.45246  0.25331  0.11254  1.0000
  S   S557      1.0  0.46158  0.26717  0.10401  1.0000
  S   S558      1.0  0.44552  0.25028  0.13091  1.0000
  Fe  Fe280     1.0  0.45206  0.26964  0.09058  1.0000
  S   S559      1.0  0.44375  0.28695  0.08306  1.0000
  Fe  Fe281     1.0  0.47412  0.25442  0.09528  1.0000
  S   S560      1.0  0.49294  0.25075  0.09420  1.0000
  S   S561      1.0  0.44187  0.25686  0.10001  1.0000
  S   S562      1.0  0.46558  0.24026  0.10492  1.0000
  H   H2081     1.0  0.61091  0.28219  0.07269  1.0000
  C   C1291     1.0  0.63367  0.24228  0.09235  1.0000
  S   S563      1.0  0.62672  0.11490  0.21062  1.0000
  H   H2082     1.0  0.40936  0.99774  0.21601  1.0000
  S   S564      1.0  0.60157  0.12734  0.22222  1.0000
  H   H2083     1.0  0.41577  0.26255  0.13497  1.0000
  Fe  Fe282     1.0  0.41570  0.10333  0.20954  1.0000
  Fe  Fe283     1.0  0.61617  0.13230  0.20893  1.0000
  S   S565      1.0  0.61405  0.14126  0.19143  1.0000
  S   S566      1.0  0.62368  0.13717  0.22064  1.0000
  Fe  Fe284     1.0  0.62312  0.29737  0.11016  1.0000
  S   S567      1.0  0.63058  0.28247  0.10239  1.0000
  S   S568      1.0  0.60475  0.29979  0.11905  1.0000
  Fe  Fe285     1.0  0.64549  0.30578  0.10316  1.0000
  Fe  Fe286     1.0  0.63836  0.29443  0.08798  1.0000
  S   S569      1.0  0.63612  0.29421  0.07097  1.0000
  Fe  Fe287     1.0  0.64545  0.28108  0.10951  1.0000
  S   S570      1.0  0.65461  0.26454  0.11774  1.0000
  S   S571      1.0  0.63026  0.30964  0.09538  1.0000
  S   S572      1.0  0.63744  0.29496  0.11872  1.0000
  Fe  Fe288     1.0  0.62742  0.19493  0.15006  1.0000
  S   S573      1.0  0.61146  0.20747  0.15389  1.0000
  S   S574      1.0  0.63412  0.18381  0.16497  1.0000
  Fe  Fe289     1.0  0.63026  0.20390  0.12509  1.0000
  S   S575      1.0  0.61456  0.21711  0.12690  1.0000
  S   S576      1.0  0.64096  0.20425  0.10779  1.0000
  Fe  Fe290     1.0  0.62029  0.21984  0.14097  1.0000
  S   S577      1.0  0.61659  0.23759  0.14290  1.0000
  Fe  Fe291     1.0  0.60706  0.20372  0.13956  1.0000
  S   S578      1.0  0.58947  0.20311  0.13949  1.0000
  S   S579      1.0  0.63676  0.20774  0.13821  1.0000
  S   S580      1.0  0.62230  0.19001  0.13664  1.0000
  C   C1292     1.0  0.64436  0.25702  0.12592  1.0000
  C   C1293     1.0  0.63312  0.26257  0.12823  1.0000
  C   C1294     1.0  0.62472  0.25652  0.13378  1.0000
  C   C1295     1.0  0.62749  0.24489  0.13694  1.0000
  C   C1296     1.0  0.63877  0.23933  0.13498  1.0000
  C   C1297     1.0  0.64723  0.24541  0.12950  1.0000
  H   H2084     1.0  0.61605  0.26088  0.13544  1.0000
  H   H2085     1.0  0.64097  0.23036  0.13763  1.0000
  H   H2086     1.0  0.65594  0.24109  0.12780  1.0000
  C   C1298     1.0  0.61944  0.15325  0.18433  1.0000
  C   C1299     1.0  0.62345  0.15910  0.18981  1.0000
  C   C1300     1.0  0.62803  0.16843  0.18376  1.0000
  C   C1301     1.0  0.62832  0.17214  0.17229  1.0000
  C   C1302     1.0  0.62417  0.16637  0.16685  1.0000
  C   C1303     1.0  0.61981  0.15690  0.17285  1.0000
  H   H2087     1.0  0.62302  0.15646  0.19869  1.0000
  H   H2088     1.0  0.63122  0.17291  0.18800  1.0000
  H   H2089     1.0  0.62454  0.16908  0.15797  1.0000
  H   H2090     1.0  0.61677  0.15234  0.16857  1.0000
  C   C1304     1.0  0.40922  0.22669  0.09195  1.0000
  H   H2091     1.0  0.38294  0.22935  0.08793  1.0000
  H   H2092     1.0  0.63625  0.13686  0.19773  1.0000
  C   C1305     1.0  0.39187  0.23840  0.09947  1.0000
  C   C1306     1.0  0.39480  0.07344  0.22566  1.0000
  C   C1307     1.0  0.63663  0.26925  0.05640  1.0000
  H   H2093     1.0  0.38085  0.07773  0.21185  1.0000
  C   C1308     1.0  0.41721  0.21435  0.99906  1.0000
  C   C1309     1.0  0.40607  0.21390  0.00443  1.0000
  C   C1310     1.0  0.39945  0.20981  0.99973  1.0000
  H   H2094     1.0  0.40254  0.21677  0.01214  1.0000
  H   H2095     1.0  0.39086  0.20936  0.00394  1.0000
  C   C1311     1.0  0.44268  0.24047  0.05182  1.0000
  C   C1312     1.0  0.44924  0.24642  0.05439  1.0000
  C   C1313     1.0  0.45133  0.24403  0.06515  1.0000
  C   C1314     1.0  0.44707  0.23553  0.07330  1.0000
  C   C1315     1.0  0.44046  0.22961  0.07076  1.0000
  C   C1316     1.0  0.43819  0.23213  0.06004  1.0000
  H   H2096     1.0  0.45275  0.25285  0.04803  1.0000
  H   H2097     1.0  0.45649  0.24858  0.06703  1.0000
  H   H2098     1.0  0.43716  0.22302  0.07707  1.0000
  H   H2099     1.0  0.43315  0.22750  0.05809  1.0000
  C   C1317     1.0  0.64409  0.26023  0.06130  1.0000
  H   H2100     1.0  0.42565  0.19078  0.02998  1.0000
  H   H2101     1.0  0.63649  0.25570  0.10438  1.0000
  C   C1318     1.0  0.63950  0.28111  0.06724  1.0000
  H   H2102     1.0  0.64411  0.11956  0.19024  1.0000
  H   H2103     1.0  0.43237  0.09074  0.22155  1.0000
  H   H2104     1.0  0.41647  0.20304  0.02416  1.0000
  H   H2105     1.0  0.39755  0.21776  0.11164  1.0000
  H   H2106     1.0  0.39514  0.23843  0.10677  1.0000
  C   C1319     1.0  0.34498  0.31950  0.10230  1.0000
  C   C1320     1.0  0.62203  0.20929  0.08014  1.0000
  C   C1321     1.0  0.61860  0.20269  0.09063  1.0000
  C   C1322     1.0  0.62424  0.20125  0.09927  1.0000
  C   C1323     1.0  0.63367  0.20591  0.09723  1.0000
  C   C1324     1.0  0.63738  0.21205  0.08658  1.0000
  C   C1325     1.0  0.63141  0.21398  0.07815  1.0000
  H   H2107     1.0  0.61145  0.19890  0.09215  1.0000
  H   H2108     1.0  0.62145  0.19632  0.10743  1.0000
  H   H2109     1.0  0.64484  0.21541  0.08479  1.0000
  H   H2110     1.0  0.63421  0.21898  0.07006  1.0000
  C   C1326     1.0  0.62091  0.23172  0.00848  1.0000
  C   C1327     1.0  0.61111  0.22802  0.01463  1.0000
  C   C1328     1.0  0.60561  0.22273  0.00984  1.0000
  H   H2111     1.0  0.65540  0.11679  0.19736  1.0000
  C   C1329     1.0  0.62475  0.23064  0.99731  1.0000
  H   H2112     1.0  0.60790  0.22903  0.02314  1.0000
  H   H2113     1.0  0.59825  0.21956  0.01477  1.0000
  C   C1330     1.0  0.58065  0.21615  0.14087  1.0000
  C   C1331     1.0  0.57196  0.22056  0.13499  1.0000
  C   C1332     1.0  0.56527  0.23122  0.13568  1.0000
  C   C1333     1.0  0.56689  0.23724  0.14268  1.0000
  C   C1334     1.0  0.57535  0.23267  0.14882  1.0000
  C   C1335     1.0  0.58241  0.22230  0.14767  1.0000
  H   H2114     1.0  0.57050  0.21582  0.12978  1.0000
  H   H2115     1.0  0.55869  0.23467  0.13098  1.0000
  H   H2116     1.0  0.57658  0.23724  0.15432  1.0000
  H   H2117     1.0  0.58909  0.21904  0.15221  1.0000
  C   C1336     1.0  0.57866  0.29128  0.10504  1.0000
  C   C1337     1.0  0.59018  0.28712  0.10137  1.0000
  C   C1338     1.0  0.59827  0.28978  0.10548  1.0000
  C   C1339     1.0  0.59489  0.29652  0.11339  1.0000
  C   C1340     1.0  0.58337  0.30044  0.11724  1.0000
  C   C1341     1.0  0.57529  0.29794  0.11299  1.0000
  H   H2118     1.0  0.59286  0.28196  0.09523  1.0000
  H   H2119     1.0  0.60710  0.28666  0.10248  1.0000
  C   C1342     1.0  0.36952  0.32054  0.08101  1.0000
  H   H2120     1.0  0.56645  0.30140  0.11569  1.0000
  C   C1343     1.0  0.50916  0.26979  0.10952  1.0000
  C   C1344     1.0  0.51446  0.25905  0.10778  1.0000
  C   C1345     1.0  0.50928  0.25325  0.10327  1.0000
  C   C1346     1.0  0.49883  0.25816  0.10034  1.0000
  C   C1347     1.0  0.49345  0.26885  0.10217  1.0000
  C   C1348     1.0  0.49858  0.27462  0.10680  1.0000
  H   H2121     1.0  0.52253  0.25518  0.10997  1.0000
  H   H2122     1.0  0.51337  0.24488  0.10209  1.0000
  H   H2123     1.0  0.48545  0.27277  0.09981  1.0000
  H   H2124     1.0  0.49444  0.28294  0.10811  1.0000
  C   C1349     1.0  0.56953  0.25035  0.08153  1.0000
  C   C1350     1.0  0.57475  0.24522  0.07249  1.0000
  C   C1351     1.0  0.58243  0.25018  0.06367  1.0000
  C   C1352     1.0  0.58461  0.26040  0.06377  1.0000
  C   C1353     1.0  0.57913  0.26565  0.07268  1.0000
  C   C1354     1.0  0.57175  0.26054  0.08161  1.0000
  H   H2125     1.0  0.57305  0.23734  0.07237  1.0000
  H   H2126     1.0  0.58656  0.24615  0.05673  1.0000
  H   H2127     1.0  0.58082  0.27348  0.07289  1.0000
  H   H2128     1.0  0.56793  0.26451  0.08859  1.0000
  H   H2129     1.0  0.59958  0.27690  0.07119  1.0000
  C   C1355     1.0  0.65241  0.23265  0.09478  1.0000
  H   H2130     1.0  0.63701  0.24667  0.08377  1.0000
  H   H2131     1.0  0.45645  0.08028  0.21172  1.0000
  N   N131      1.0  0.59939  0.29414  0.06328  1.0000
  C   C1356     1.0  0.58383  0.19492  0.16943  1.0000
  H   H2132     1.0  0.62900  0.08783  0.22665  1.0000
  C   C1357     1.0  0.59186  0.29824  0.07309  1.0000
  H   H2133     1.0  0.57334  0.27970  0.13015  1.0000
  C   C1358     1.0  0.42881  0.06322  0.19367  1.0000
  C   C1359     1.0  0.43028  0.07410  0.19228  1.0000
  C   C1360     1.0  0.59850  0.18329  0.17885  1.0000
  H   H2134     1.0  0.43054  0.05955  0.18646  1.0000
  H   H2135     1.0  0.43318  0.07874  0.18401  1.0000
  C   C1361     1.0  0.37506  0.25570  0.06936  1.0000
  C   C1362     1.0  0.37774  0.24628  0.06469  1.0000
  C   C1363     1.0  0.38199  0.24716  0.05324  1.0000
  C   C1364     1.0  0.38317  0.25753  0.04636  1.0000
  C   C1365     1.0  0.37999  0.26708  0.05091  1.0000
  C   C1366     1.0  0.37608  0.26613  0.06246  1.0000
  H   H2136     1.0  0.37673  0.23824  0.06994  1.0000
  H   H2137     1.0  0.38438  0.23977  0.04974  1.0000
  H   H2138     1.0  0.38091  0.27511  0.04557  1.0000
  H   H2139     1.0  0.37388  0.27345  0.06600  1.0000
  C   C1367     1.0  0.40755  0.29490  0.07822  1.0000
  C   C1368     1.0  0.41246  0.28391  0.08270  1.0000
  C   C1369     1.0  0.42370  0.28125  0.08392  1.0000
  C   C1370     1.0  0.42993  0.28963  0.08100  1.0000
  C   C1371     1.0  0.42500  0.30056  0.07647  1.0000
  C   C1372     1.0  0.41392  0.30315  0.07496  1.0000
  H   H2140     1.0  0.40768  0.27744  0.08505  1.0000
  H   H2141     1.0  0.42757  0.27275  0.08704  1.0000
  H   H2142     1.0  0.42979  0.30705  0.07410  1.0000
  H   H2143     1.0  0.41024  0.31164  0.07140  1.0000
  C   C1373     1.0  0.40710  0.15666  0.16272  1.0000
  C   C1374     1.0  0.40894  0.16314  0.16913  1.0000
  C   C1375     1.0  0.40716  0.15964  0.18078  1.0000
  C   C1376     1.0  0.40364  0.14958  0.18609  1.0000
  C   C1377     1.0  0.40149  0.14325  0.17972  1.0000
  C   C1378     1.0  0.40318  0.14680  0.16806  1.0000
  H   H2144     1.0  0.41205  0.17070  0.16511  1.0000
  H   H2145     1.0  0.40879  0.16459  0.18569  1.0000
  H   H2146     1.0  0.39848  0.13565  0.18379  1.0000
  H   H2147     1.0  0.40161  0.14183  0.16313  1.0000
  C   C1379     1.0  0.43693  0.21574  0.14240  1.0000
  C   C1380     1.0  0.44044  0.22024  0.14951  1.0000
  C   C1381     1.0  0.44273  0.23099  0.14607  1.0000
  C   C1382     1.0  0.44191  0.23713  0.13533  1.0000
  C   C1383     1.0  0.43849  0.23263  0.12814  1.0000
  C   C1384     1.0  0.43577  0.22203  0.13178  1.0000
  H   H2148     1.0  0.44134  0.21541  0.15774  1.0000
  H   H2149     1.0  0.44535  0.23443  0.15165  1.0000
  H   H2150     1.0  0.43785  0.23733  0.11983  1.0000
  H   H2151     1.0  0.43300  0.21863  0.12630  1.0000
  C   C1385     1.0  0.42415  0.19683  0.08869  1.0000
  C   C1386     1.0  0.41343  0.19461  0.09060  1.0000
  C   C1387     1.0  0.40773  0.19746  0.08179  1.0000
  C   C1388     1.0  0.41262  0.20277  0.07113  1.0000
  C   C1389     1.0  0.42328  0.20510  0.06927  1.0000
  C   C1390     1.0  0.42911  0.20196  0.07799  1.0000
  H   H2152     1.0  0.40964  0.19050  0.09879  1.0000
  H   H2153     1.0  0.39950  0.19560  0.08325  1.0000
  H   H2154     1.0  0.42715  0.20911  0.06106  1.0000
  H   H2155     1.0  0.43744  0.20360  0.07645  1.0000
  C   C1391     1.0  0.38300  0.24952  0.12772  1.0000
  C   C1392     1.0  0.39178  0.24160  0.13195  1.0000
  C   C1393     1.0  0.39207  0.23013  0.13373  1.0000
  C   C1394     1.0  0.38340  0.22656  0.13157  1.0000
  C   C1395     1.0  0.37460  0.23446  0.12743  1.0000
  C   C1396     1.0  0.37447  0.24590  0.12538  1.0000
  H   H2156     1.0  0.39838  0.24432  0.13384  1.0000
  H   H2157     1.0  0.39884  0.22408  0.13705  1.0000
  H   H2158     1.0  0.36787  0.23176  0.12575  1.0000
  H   H2159     1.0  0.36759  0.25192  0.12227  1.0000
  H   H2160     1.0  0.59805  0.29086  0.04798  1.0000
  H   H2161     1.0  0.64732  0.14795  0.17488  1.0000
  H   H2162     1.0  0.60300  0.18536  0.15678  1.0000
  H   H2163     1.0  0.57116  0.26206  0.15159  1.0000
  H   H2164     1.0  0.58316  0.24383  0.09936  1.0000
  C   C1397     1.0  0.60962  0.22139  0.99876  1.0000
  H   H2165     1.0  0.58480  0.27145  0.12205  1.0000
  S   S581      1.0  0.65706  0.31770  0.10178  1.0000
  N   N132      1.0  0.47751  0.25223  0.13369  1.0000
  C   C1398     1.0  0.48896  0.25284  0.13406  1.0000
  C   C1399     1.0  0.47121  0.26355  0.12962  1.0000
  C   C1400     1.0  0.47155  0.24762  0.14497  1.0000
  C   C1401     1.0  0.47828  0.24493  0.12608  1.0000
  H   H2166     1.0  0.49369  0.25616  0.12564  1.0000
  H   H2167     1.0  0.49396  0.24447  0.13716  1.0000
  H   H2168     1.0  0.48874  0.25845  0.13956  1.0000
  H   H2169     1.0  0.46254  0.26339  0.12921  1.0000
  H   H2170     1.0  0.47048  0.26931  0.13514  1.0000
  H   H2171     1.0  0.47545  0.26727  0.12111  1.0000
  H   H2172     1.0  0.47081  0.25290  0.15095  1.0000
  H   H2173     1.0  0.47601  0.23904  0.14826  1.0000
  H   H2174     1.0  0.46286  0.24711  0.14491  1.0000
  H   H2175     1.0  0.48329  0.23641  0.12866  1.0000
  H   H2176     1.0  0.48236  0.24835  0.11741  1.0000
  H   H2177     1.0  0.46981  0.24403  0.12585  1.0000
  H   H2178     1.0  0.58572  0.29281  0.07755  1.0000
  H   H2179     1.0  0.59672  0.29849  0.07915  1.0000
  C   C1402     1.0  0.66386  0.13499  0.18547  1.0000
  N   N133      1.0  0.43229  0.12113  0.17378  1.0000
  C   C1403     1.0  0.42274  0.11662  0.17339  1.0000
  C   C1404     1.0  0.44278  0.11257  0.17219  1.0000
  C   C1405     1.0  0.43037  0.12406  0.18473  1.0000
  C   C1406     1.0  0.43327  0.13121  0.16485  1.0000
  H   H2180     1.0  0.41468  0.12284  0.17453  1.0000
  H   H2181     1.0  0.42172  0.10906  0.18010  1.0000
  H   H2182     1.0  0.42392  0.11424  0.16528  1.0000
  H   H2183     1.0  0.44224  0.10480  0.17874  1.0000
  H   H2184     1.0  0.44453  0.11021  0.16397  1.0000
  H   H2185     1.0  0.45015  0.11558  0.17261  1.0000
  H   H2186     1.0  0.42234  0.13026  0.18639  1.0000
  H   H2187     1.0  0.43724  0.12774  0.18526  1.0000
  H   H2188     1.0  0.42988  0.11657  0.19159  1.0000
  H   H2189     1.0  0.44060  0.13463  0.16470  1.0000
  H   H2190     1.0  0.42569  0.13799  0.16606  1.0000
  H   H2191     1.0  0.43427  0.12946  0.15648  1.0000
  H   H2192     1.0  0.60373  0.23843  0.09211  1.0000
  H   H2193     1.0  0.60586  0.23191  0.10602  1.0000
  N   N134      1.0  0.62555  0.19988  0.03489  1.0000
  C   C1407     1.0  0.63053  0.20984  0.02984  1.0000
  C   C1408     1.0  0.63416  0.18978  0.03285  1.0000
  H   H2194     1.0  0.63320  0.21096  0.02061  1.0000
  H   H2195     1.0  0.62439  0.21757  0.03162  1.0000
  H   H2196     1.0  0.63070  0.18209  0.03652  1.0000
  H   H2197     1.0  0.64149  0.18891  0.03658  1.0000
  H   H2198     1.0  0.63737  0.19009  0.02375  1.0000
  H   H2199     1.0  0.62846  0.19898  0.05110  1.0000
  N   N135      1.0  0.45699  0.20229  0.10796  1.0000
  C   C1409     1.0  0.44589  0.20927  0.10648  1.0000
  C   C1410     1.0  0.45800  0.19120  0.10569  1.0000
  C   C1411     1.0  0.45808  0.20104  0.11955  1.0000
  C   C1412     1.0  0.46591  0.20770  0.10011  1.0000
  H   H2200     1.0  0.43901  0.20541  0.11224  1.0000
  H   H2201     1.0  0.44471  0.21034  0.09785  1.0000
  H   H2202     1.0  0.44481  0.21774  0.10802  1.0000
  H   H2203     1.0  0.46630  0.18568  0.10663  1.0000
  H   H2204     1.0  0.45133  0.18693  0.11145  1.0000
  H   H2205     1.0  0.45697  0.19192  0.09707  1.0000
  H   H2206     1.0  0.45134  0.19713  0.12568  1.0000
  H   H2207     1.0  0.45734  0.20928  0.12151  1.0000
  H   H2208     1.0  0.46632  0.19574  0.12105  1.0000
  H   H2209     1.0  0.47444  0.20268  0.10091  1.0000
  H   H2210     1.0  0.46530  0.21614  0.10155  1.0000
  H   H2211     1.0  0.46515  0.20893  0.09131  1.0000
  N   N136      1.0  0.40812  0.18995  0.03444  1.0000
  C   C1413     1.0  0.40930  0.18124  0.04464  1.0000
  C   C1414     1.0  0.39392  0.05768  0.21891  1.0000
  C   C1415     1.0  0.66295  0.32227  0.11073  1.0000
  C   C1416     1.0  0.39705  0.19762  0.03642  1.0000
  H   H2212     1.0  0.64344  0.23081  0.11617  1.0000
  H   H2213     1.0  0.40890  0.23872  0.99683  1.0000
  H   H2214     1.0  0.39580  0.20426  0.02888  1.0000
  H   H2215     1.0  0.60325  0.31031  0.05552  1.0000
  H   H2216     1.0  0.40862  0.18501  0.05186  1.0000
  H   H2217     1.0  0.39618  0.20185  0.04334  1.0000
  H   H2218     1.0  0.63940  0.13736  0.17759  1.0000
  H   H2219     1.0  0.36995  0.31955  0.05445  1.0000
  S   S582      1.0  0.40732  0.02147  0.22571  1.0000
  N   N137      1.0  0.58496  0.26795  0.13949  1.0000
  H   H2220     1.0  0.44752  0.11888  0.23444  1.0000
  H   H2221     1.0  0.61303  0.29893  0.05012  1.0000
  H   H2222     1.0  0.41165  0.23381  0.08526  1.0000
  H   H2223     1.0  0.57694  0.17565  0.17339  1.0000
  C   C1417     1.0  0.59226  0.27587  0.13798  1.0000
  H   H2224     1.0  0.41321  0.21897  0.08865  1.0000
  H   H2225     1.0  0.39748  0.21036  0.10145  1.0000
  C   C1418     1.0  0.45208  0.07593  0.21986  1.0000
  H   H2226     1.0  0.40121  0.05238  0.22248  1.0000
  H   H2227     1.0  0.38479  0.21921  0.10725  1.0000
  H   H2228     1.0  0.38620  0.99885  0.23130  1.0000
  C   C1419     1.0  0.42158  0.21101  0.98883  1.0000
  H   H2229     1.0  0.58541  0.23760  0.11330  1.0000
  H   H2230     1.0  0.59114  0.23267  0.08431  1.0000
  N   N138      1.0  0.44744  0.08342  0.22787  1.0000
  N   N139      1.0  0.39686  0.22795  0.09534  1.0000
  C   C1420     1.0  0.66447  0.28960  0.12376  1.0000
  C   C1421     1.0  0.35375  0.32251  0.07270  1.0000
  N   N140      1.0  0.41301  0.27291  0.11916  1.0000
  C   C1422     1.0  0.41403  0.26328  0.11424  1.0000
  C   C1423     1.0  0.42399  0.27624  0.11625  1.0000
  C   C1424     1.0  0.40453  0.28239  0.11477  1.0000
  H   H2231     1.0  0.40592  0.26051  0.11632  1.0000
  H   H2232     1.0  0.41653  0.26538  0.10501  1.0000
  H   H2233     1.0  0.42037  0.25598  0.11740  1.0000
  H   H2234     1.0  0.42692  0.27871  0.10705  1.0000
  H   H2235     1.0  0.43061  0.26931  0.11946  1.0000
  H   H2236     1.0  0.42353  0.28349  0.11984  1.0000
  H   H2237     1.0  0.39615  0.28016  0.11669  1.0000
  H   H2238     1.0  0.40696  0.28508  0.10555  1.0000
  H   H2239     1.0  0.40344  0.28975  0.11842  1.0000
  H   H2240     1.0  0.60327  0.17467  0.18148  1.0000
  H   H2241     1.0  0.60480  0.18851  0.17416  1.0000
  N   N141      1.0  0.37553  0.18548  0.16160  1.0000
  C   C1425     1.0  0.36458  0.19166  0.15881  1.0000
  C   C1426     1.0  0.38308  0.18164  0.15168  1.0000
  C   C1427     1.0  0.37393  0.17570  0.17077  1.0000
  C   C1428     1.0  0.38058  0.19293  0.16508  1.0000
  H   H2242     1.0  0.35862  0.19469  0.16609  1.0000
  H   H2243     1.0  0.36057  0.18635  0.15601  1.0000
  H   H2244     1.0  0.36562  0.19912  0.15192  1.0000
  H   H2245     1.0  0.39147  0.17715  0.15342  1.0000
  H   H2246     1.0  0.37969  0.17580  0.14892  1.0000
  H   H2247     1.0  0.38437  0.18876  0.14452  1.0000
  H   H2248     1.0  0.38211  0.17082  0.17294  1.0000
  H   H2249     1.0  0.37011  0.16990  0.16845  1.0000
  H   H2250     1.0  0.36836  0.17825  0.17846  1.0000
  H   H2251     1.0  0.38875  0.18846  0.16748  1.0000
  H   H2252     1.0  0.37498  0.19621  0.17239  1.0000
  H   H2253     1.0  0.38219  0.20026  0.15823  1.0000
  N   N142      1.0  0.53417  0.26257  0.07481  1.0000
  C   C1429     1.0  0.52560  0.27114  0.08013  1.0000
  C   C1430     1.0  0.53522  0.25178  0.08289  1.0000
  C   C1431     1.0  0.54514  0.26598  0.07119  1.0000
  C   C1432     1.0  0.53070  0.26134  0.06504  1.0000
  H   H2254     1.0  0.52466  0.27943  0.07433  1.0000
  H   H2255     1.0  0.52784  0.27218  0.08764  1.0000
  H   H2256     1.0  0.51720  0.26886  0.08288  1.0000
  H   H2257     1.0  0.54220  0.24532  0.07950  1.0000
  H   H2258     1.0  0.53703  0.25259  0.09072  1.0000
  H   H2259     1.0  0.52736  0.24853  0.08518  1.0000
  H   H2260     1.0  0.55179  0.25974  0.06706  1.0000
  H   H2261     1.0  0.54811  0.26672  0.07839  1.0000
  H   H2262     1.0  0.54467  0.27418  0.06523  1.0000
  H   H2263     1.0  0.52239  0.25885  0.06748  1.0000
  H   H2264     1.0  0.53692  0.25484  0.06091  1.0000
  H   H2265     1.0  0.52992  0.26930  0.05872  1.0000
  H   H2266     1.0  0.40264  0.17628  0.04700  1.0000
  H   H2267     1.0  0.58679  0.25049  0.14015  1.0000
  C   C1433     1.0  0.61376  0.08233  0.22830  1.0000
  H   H2268     1.0  0.40222  0.17998  0.02678  1.0000
  N   N143      1.0  0.64184  0.23974  0.09960  1.0000
  C   C1434     1.0  0.64950  0.26176  0.06895  1.0000
  H   H2269     1.0  0.39417  0.23550  0.07875  1.0000
  H   H2270     1.0  0.59705  0.27357  0.14474  1.0000
  H   H2271     1.0  0.65110  0.22431  0.09482  1.0000
  H   H2272     1.0  0.59626  0.25362  0.14666  1.0000
  H   H2273     1.0  0.40126  0.26709  0.13387  1.0000
  H   H2274     1.0  0.64759  0.25509  0.09225  1.0000
  N   N144      1.0  0.41315  0.26850  0.05363  1.0000
  C   C1435     1.0  0.41188  0.25782  0.06150  1.0000
  C   C1436     1.0  0.42413  0.27090  0.05321  1.0000
  C   C1437     1.0  0.40399  0.27757  0.05740  1.0000
  C   C1438     1.0  0.41260  0.26770  0.04240  1.0000
  H   H2275     1.0  0.40371  0.25571  0.06192  1.0000
  H   H2276     1.0  0.41223  0.25812  0.07006  1.0000
  H   H2277     1.0  0.41873  0.25083  0.05890  1.0000
  H   H2278     1.0  0.42499  0.27129  0.06159  1.0000
  H   H2279     1.0  0.43122  0.26434  0.05012  1.0000
  H   H2280     1.0  0.42530  0.27901  0.04750  1.0000
  H   H2281     1.0  0.40474  0.28580  0.05173  1.0000
  H   H2282     1.0  0.40409  0.27833  0.06588  1.0000
  H   H2283     1.0  0.39559  0.27607  0.05773  1.0000
  H   H2284     1.0  0.40446  0.26581  0.04241  1.0000
  H   H2285     1.0  0.41940  0.26092  0.03931  1.0000
  H   H2286     1.0  0.41351  0.27559  0.03621  1.0000
  H   H2287     1.0  0.61790  0.19177  0.05122  1.0000
  C   C1439     1.0  0.41716  0.19624  0.03169  1.0000
  H   H2288     1.0  0.36900  0.31173  0.08504  1.0000
  H   H2289     1.0  0.40860  0.27673  0.13547  1.0000
  H   H2290     1.0  0.59406  0.18644  0.18657  1.0000
  H   H2291     1.0  0.38254  0.23957  0.10214  1.0000
  C   C1440     1.0  0.42305  0.06182  0.21360  1.0000
  H   H2292     1.0  0.45830  0.06854  0.22305  1.0000
  Fe  Fe292     1.0  0.42059  0.03159  0.22202  1.0000
  C   C1441     1.0  0.62155  0.19926  0.04702  1.0000
  H   H2293     1.0  0.60920  0.20810  0.03150  1.0000
  H   H2294     1.0  0.63803  0.20937  0.03313  1.0000
  Fe  Fe293     1.0  0.39110  0.10766  0.22053  1.0000
  H   H2295     1.0  0.65103  0.27319  0.07819  1.0000
  H   H2296     1.0  0.66048  0.29772  0.11903  1.0000
  H   H2297     1.0  0.65264  0.31563  0.12622  1.0000
  C   C1442     1.0  0.59266  0.29430  0.05530  1.0000
  C   C1443     1.0  0.60381  0.23055  0.09856  1.0000
  C   C1444     1.0  0.65940  0.32005  0.12235  1.0000
  S   S583      1.0  0.43387  0.01695  0.22779  1.0000
  H   H2298     1.0  0.60020  0.20981  0.10717  1.0000
  C   C1445     1.0  0.61598  0.20071  0.02985  1.0000
  H   H2299     1.0  0.60174  0.17121  0.16312  1.0000
  H   H2300     1.0  0.58789  0.16701  0.18039  1.0000
  H   H2301     1.0  0.61080  0.22413  0.09516  1.0000
  H   H2302     1.0  0.61859  0.20163  0.02062  1.0000
  H   H2303     1.0  0.57812  0.17812  0.18629  1.0000
  S   S584      1.0  0.42312  0.04357  0.20545  1.0000
  H   H2304     1.0  0.57556  0.23347  0.10812  1.0000
  H   H2305     1.0  0.61218  0.19321  0.03323  1.0000
  H   H2306     1.0  0.61490  0.20671  0.04880  1.0000
  N   N145      1.0  0.59057  0.18348  0.17203  1.0000
  C   C1446     1.0  0.59691  0.17996  0.16153  1.0000
  C   C1447     1.0  0.58303  0.17573  0.17830  1.0000
  H   H2307     1.0  0.60206  0.99365  0.23090  1.0000
  C   C1448     1.0  0.60549  0.28259  0.06688  1.0000
  C   C1449     1.0  0.57674  0.26801  0.15020  1.0000
  C   C1450     1.0  0.40951  0.26969  0.13141  1.0000
  C   C1451     1.0  0.59331  0.21663  0.10996  1.0000
  H   H2308     1.0  0.59675  0.21807  0.08822  1.0000
  H   H2309     1.0  0.59473  0.21782  0.11779  1.0000
  H   H2310     1.0  0.58931  0.20094  0.16481  1.0000
  H   H2311     1.0  0.57793  0.19545  0.16405  1.0000
  S   S585      1.0  0.65156  0.11609  0.22295  1.0000
  Fe  Fe294     1.0  0.63307  0.11935  0.22341  1.0000
  H   H2312     1.0  0.58730  0.28455  0.13790  1.0000
  N   N146      1.0  0.59292  0.22707  0.10137  1.0000
  N   N147      1.0  0.38743  0.06619  0.22550  1.0000
  C   C1452     1.0  0.63462  0.27972  0.05912  1.0000
  C   C1453     1.0  0.59060  0.22525  0.09126  1.0000
  H   H2313     1.0  0.58530  0.21366  0.11209  1.0000
  H   H2314     1.0  0.59122  0.18050  0.15595  1.0000
  S   S586      1.0  0.33964  0.30068  0.10002  1.0000
  H   H2315     1.0  0.58103  0.26555  0.15735  1.0000
  H   H2316     1.0  0.63085  0.27154  0.12573  1.0000
  H   H2317     1.0  0.59857  0.25630  0.13176  1.0000
  H   H2318     1.0  0.39582  0.22060  0.08228  1.0000
  H   H2319     1.0  0.57878  0.19785  0.17711  1.0000
  H   H2320     1.0  0.58203  0.22354  0.09282  1.0000
  Fe  Fe295     1.0  0.61005  0.13057  0.23411  1.0000
  H   H2321     1.0  0.63264  0.26822  0.05028  1.0000
  C   C1454     1.0  0.62523  0.08071  0.22809  1.0000
  C   C1455     1.0  0.64698  0.27209  0.07216  1.0000
  H   H2322     1.0  0.58625  0.28907  0.05920  1.0000
  H   H2323     1.0  0.57341  0.26539  0.13110  1.0000
  C   C1456     1.0  0.64799  0.13874  0.17674  1.0000
  C   C1457     1.0  0.58389  0.23590  0.10573  1.0000
  H   H2324     1.0  0.61160  0.05518  0.23340  1.0000
  H   H2325     1.0  0.61316  0.30111  0.06348  1.0000
  H   H2326     1.0  0.42048  0.05702  0.22184  1.0000
  C   C1458     1.0  0.59194  0.25660  0.13951  1.0000
  H   H2327     1.0  0.59854  0.27607  0.12994  1.0000
  H   H2328     1.0  0.41302  0.22615  0.09909  1.0000
  H   H2329     1.0  0.63176  0.23451  0.09150  1.0000
  H   H2330     1.0  0.64459  0.14716  0.19494  1.0000
  C   C1459     1.0  0.42415  0.07290  0.21218  1.0000
  C   C1460     1.0  0.63711  0.23375  0.11081  1.0000
  H   H2331     1.0  0.65840  0.11709  0.18264  1.0000
  H   H2332     1.0  0.41723  0.17882  0.02339  1.0000
  C   C1461     1.0  0.62684  0.06058  0.23192  1.0000
  H   H2333     1.0  0.65559  0.25491  0.07246  1.0000
  C   C1462     1.0  0.57888  0.27127  0.13028  1.0000
  C   C1463     1.0  0.42522  0.05703  0.20431  1.0000
  S   S587      1.0  0.42962  0.09277  0.19936  1.0000
  S   S588      1.0  0.37515  0.10127  0.22529  1.0000
  C   C1464     1.0  0.42780  0.07903  0.20148  1.0000
  C   C1465     1.0  0.65261  0.12113  0.18939  1.0000
  Fe  Fe296     1.0  0.42003  0.00727  0.23297  1.0000
  H   H2334     1.0  0.57124  0.27643  0.15042  1.0000
  H   H2335     1.0  0.64795  0.13406  0.20431  1.0000
  H   H2336     1.0  0.37230  0.06782  0.21988  1.0000
  H   H2337     1.0  0.39362  0.24581  0.09287  1.0000
  N   N148      1.0  0.65238  0.13323  0.18698  1.0000
  H   H2338     1.0  0.39003  0.19312  0.03868  1.0000
  H   H2339     1.0  0.62964  0.23912  0.11512  1.0000
  H   H2340     1.0  0.38164  0.31799  0.06077  1.0000
  C   C1466     1.0  0.39227  0.22834  0.08566  1.0000
  H   H2341     1.0  0.42772  0.12024  0.23346  1.0000
  C   C1467     1.0  0.40380  0.20659  0.98943  1.0000
  H   H2342     1.0  0.40827  0.19108  0.01722  1.0000
  C   C1468     1.0  0.60756  0.30145  0.05786  1.0000
  S   S589      1.0  0.65413  0.29156  0.09430  1.0000
  H   H2343     1.0  0.63228  0.23352  0.99246  1.0000
  H   H2344     1.0  0.41684  0.20011  0.03869  1.0000
  H   H2345     1.0  0.44536  0.07279  0.21819  1.0000
  H   H2346     1.0  0.65580  0.23652  0.08600  1.0000
  S   S590      1.0  0.60367  0.21302  0.99367  1.0000
  C   C1469     1.0  0.40899  0.18471  0.02507  1.0000
  H   H2347     1.0  0.38866  0.05199  0.21867  1.0000
  H   H2348     1.0  0.65901  0.23114  0.09965  1.0000
  C   C1470     1.0  0.61908  0.22560  0.99244  1.0000
  H   H2349     1.0  0.62928  0.28677  0.05492  1.0000
  H   H2350     1.0  0.62564  0.24770  0.09568  1.0000
  H   H2351     1.0  0.41761  0.17536  0.04353  1.0000
  H   H2352     1.0  0.63446  0.22624  0.11036  1.0000
  Fe  Fe297     1.0  0.61276  0.11031  0.22481  1.0000
  H   H2353     1.0  0.65347  0.13550  0.16937  1.0000
  H   H2354     1.0  0.42243  0.07656  0.21936  1.0000
  H   H2355     1.0  0.35306  0.31374  0.07685  1.0000
  H   H2356     1.0  0.66339  0.29052  0.13245  1.0000
  H   H2357     1.0  0.65963  0.28331  0.12404  1.0000
  H   H2358     1.0  0.66394  0.14405  0.18367  1.0000
  H   H2359     1.0  0.65052  0.24857  0.10573  1.0000
  H   H2360     1.0  0.41177  0.25246  0.99253  1.0000
  C   C1471     1.0  0.64497  0.13805  0.19640  1.0000
  C   C1472     1.0  0.63181  0.06982  0.22978  1.0000
  Fe  Fe298     1.0  0.40797  0.11163  0.23108  1.0000
  C   C1473     1.0  0.45669  0.08711  0.23006  1.0000
  H   H2361     1.0  0.58816  0.30290  0.05217  1.0000
  S   S591      1.0  0.39205  0.12242  0.22646  1.0000
  H   H2362     1.0  0.64066  0.06857  0.22961  1.0000
  H   H2363     1.0  0.58692  0.30683  0.07070  1.0000
  H   H2364     1.0  0.37848  0.32110  0.07958  1.0000
  H   H2365     1.0  0.46130  0.09185  0.22234  1.0000
  C   C1474     1.0  0.43951  0.09324  0.22315  1.0000
  H   H2366     1.0  0.52108  0.09765  0.23321  1.0000
  H   H2367     1.0  0.58068  0.30567  0.12333  1.0000
  H   H2368     1.0  0.45734  0.04869  0.22902  1.0000
  C   C1475     1.0  0.37789  0.07305  0.22041  1.0000
  H   H2369     1.0  0.44367  0.09794  0.21511  1.0000
  H   H2370     1.0  0.35217  0.31400  0.10538  1.0000
  H   H2371     1.0  0.40202  0.06856  0.22956  1.0000
  H   H2372     1.0  0.39761  0.25057  0.99484  1.0000
  H   H2373     1.0  0.37268  0.30814  0.06591  1.0000
  C   C1476     1.0  0.33748  0.31508  0.09925  1.0000
  C   C1477     1.0  0.61543  0.06226  0.23196  1.0000
  H   H2374     1.0  0.61100  0.27911  0.05964  1.0000
  C   C1478     1.0  0.40659  0.24709  0.99147  1.0000
  H   H2375     1.0  0.39739  0.06157  0.21016  1.0000
  H   H2376     1.0  0.37263  0.07935  0.22538  1.0000
  H   H2377     1.0  0.43589  0.09907  0.22895  1.0000
  C   C1479     1.0  0.37273  0.31716  0.06252  1.0000
  H   H2378     1.0  0.46293  0.07989  0.23349  1.0000
  H   H2379     1.0  0.39826  0.07777  0.21709  1.0000
  H   H2380     1.0  0.66155  0.32211  0.13796  1.0000
  H   H2381     1.0  0.37461  0.10813  0.28774  1.0000
  H   H2382     1.0  0.42286  0.09805  0.26549  1.0000
  Fe  Fe299     1.0  0.38454  0.08090  0.30009  1.0000
  S   S592      1.0  0.38420  0.07481  0.28525  1.0000
  S   S593      1.0  0.39719  0.09116  0.29829  1.0000
  Fe  Fe300     1.0  0.36439  0.07132  0.31474  1.0000
  S   S594      1.0  0.36217  0.06458  0.30100  1.0000
  S   S595      1.0  0.35533  0.06661  0.33267  1.0000
  Fe  Fe301     1.0  0.38092  0.05921  0.29754  1.0000
  S   S596      1.0  0.39056  0.04245  0.29454  1.0000
  Fe  Fe302     1.0  0.36558  0.08088  0.28990  1.0000
  S   S597      1.0  0.35517  0.09093  0.27732  1.0000
  S   S598      1.0  0.38308  0.06467  0.31201  1.0000
  S   S599      1.0  0.36604  0.08821  0.30402  1.0000
  Fe  Fe303     1.0  0.55784  0.08977  0.26703  1.0000
  S   S600      1.0  0.55414  0.07695  0.28260  1.0000
  S   S601      1.0  0.56149  0.08544  0.25042  1.0000
  Fe  Fe304     1.0  0.55572  0.10780  0.27930  1.0000
  S   S602      1.0  0.55117  0.09669  0.29599  1.0000
  S   S603      1.0  0.55763  0.12487  0.27932  1.0000
  Fe  Fe305     1.0  0.56535  0.08393  0.28893  1.0000
  S   S604      1.0  0.57912  0.07398  0.29806  1.0000
  Fe  Fe306     1.0  0.54037  0.09100  0.28793  1.0000
  S   S605      1.0  0.52226  0.08968  0.29514  1.0000
  S   S606      1.0  0.57043  0.09529  0.27268  1.0000
  S   S607      1.0  0.54353  0.10348  0.27191  1.0000
  Fe  Fe307     1.0  0.60016  0.03044  0.25589  1.0000
  S   S608      1.0  0.41500  0.03736  0.23815  1.0000
  S   S609      1.0  0.58153  0.03381  0.25728  1.0000
  Fe  Fe308     1.0  0.61560  0.02888  0.27126  1.0000
  S   S610      1.0  0.63102  0.02212  0.25944  1.0000
  S   S611      1.0  0.61328  0.03569  0.28661  1.0000
  C   C1480     1.0  0.42012  0.04042  0.27510  1.0000
  C   C1481     1.0  0.60242  0.08788  0.25566  1.0000
  Fe  Fe309     1.0  0.62048  0.01167  0.25643  1.0000
  S   S612      1.0  0.60872  0.04267  0.25831  1.0000
  S   S613      1.0  0.60588  0.01704  0.26979  1.0000
  Fe  Fe310     1.0  0.42711  0.02199  0.24433  1.0000
  C   C1482     1.0  0.52307  0.09858  0.24090  1.0000
  S   S614      1.0  0.43678  0.02218  0.25679  1.0000
  Fe  Fe311     1.0  0.40283  0.02612  0.24235  1.0000
  H   H2383     1.0  0.55088  0.12891  0.30746  1.0000
  S   S615      1.0  0.38509  0.03275  0.25042  1.0000
  C   C1483     1.0  0.43095  0.11512  0.24066  1.0000
  C   C1484     1.0  0.37726  0.07195  0.34189  1.0000
  S   S616      1.0  0.41438  0.01118  0.25003  1.0000
  H   H2384     1.0  0.39006  0.05532  0.24114  1.0000
  Fe  Fe312     1.0  0.46545  0.08724  0.25938  1.0000
  S   S617      1.0  0.46917  0.08110  0.27658  1.0000
  S   S618      1.0  0.46065  0.10496  0.25042  1.0000
  Fe  Fe313     1.0  0.46992  0.06412  0.25477  1.0000
  S   S619      1.0  0.47413  0.05580  0.27142  1.0000
  S   S620      1.0  0.46912  0.05636  0.24111  1.0000
  Fe  Fe314     1.0  0.45921  0.06824  0.27812  1.0000
  S   S621      1.0  0.44687  0.06203  0.29348  1.0000
  Fe  Fe315     1.0  0.48380  0.06927  0.26850  1.0000
  S   S622      1.0  0.50158  0.06404  0.27151  1.0000
  S   S623      1.0  0.45422  0.07539  0.26166  1.0000
  S   S624      1.0  0.48085  0.07651  0.25115  1.0000
  Fe  Fe316     1.0  0.63122  0.09338  0.30048  1.0000
  S   S625      1.0  0.64017  0.08785  0.28455  1.0000
  S   S626      1.0  0.61314  0.10204  0.30001  1.0000
  Fe  Fe317     1.0  0.65257  0.08687  0.31020  1.0000
  Fe  Fe318     1.0  0.65359  0.09601  0.28518  1.0000
  H   H2385     1.0  0.55280  0.11630  0.30290  1.0000
  Fe  Fe319     1.0  0.64860  0.07289  0.29546  1.0000
  S   S627      1.0  0.65248  0.05629  0.29034  1.0000
  S   S628      1.0  0.64409  0.10290  0.30033  1.0000
  S   S629      1.0  0.63876  0.07774  0.31164  1.0000
  H   H2386     1.0  0.64160  0.05420  0.26533  1.0000
  H   H2387     1.0  0.53562  0.08157  0.26166  1.0000
  C   C1485     1.0  0.56039  0.06354  0.25890  1.0000
  H   H2388     1.0  0.59793  0.08524  0.25065  1.0000
  C   C1486     1.0  0.61254  0.08230  0.27062  1.0000
  H   H2389     1.0  0.55191  0.06653  0.26314  1.0000
  C   C1487     1.0  0.37803  0.08867  0.34703  1.0000
  C   C1488     1.0  0.44208  0.11445  0.24126  1.0000
  C   C1489     1.0  0.65154  0.10420  0.25591  1.0000
  C   C1490     1.0  0.64882  0.10651  0.24538  1.0000
  C   C1491     1.0  0.42887  0.05591  0.26471  1.0000
  H   H2390     1.0  0.37770  0.09782  0.34438  1.0000
  H   H2391     1.0  0.64712  0.09897  0.26284  1.0000
  H   H2392     1.0  0.64237  0.10300  0.24427  1.0000
  S   S630      1.0  0.62611  0.99320  0.25608  1.0000
  H   H2393     1.0  0.58154  0.05053  0.27372  1.0000
  C   C1492     1.0  0.44589  0.03154  0.25225  1.0000
  C   C1493     1.0  0.45082  0.03359  0.25998  1.0000
  C   C1494     1.0  0.45783  0.04133  0.25663  1.0000
  C   C1495     1.0  0.46024  0.04676  0.24546  1.0000
  H   H2394     1.0  0.66096  0.04870  0.26855  1.0000
  C   C1496     1.0  0.44809  0.03715  0.24112  1.0000
  H   H2395     1.0  0.44919  0.02918  0.26858  1.0000
  H   H2396     1.0  0.46159  0.04288  0.26265  1.0000
  H   H2397     1.0  0.42814  0.03604  0.27783  1.0000
  H   H2398     1.0  0.39542  0.99801  0.25698  1.0000
  C   C1497     1.0  0.62416  0.04166  0.28725  1.0000
  C   C1498     1.0  0.64137  0.05077  0.28946  1.0000
  C   C1499     1.0  0.63015  0.05649  0.29164  1.0000
  C   C1500     1.0  0.62155  0.05183  0.29071  1.0000
  H   H2399     1.0  0.62810  0.06434  0.29430  1.0000
  H   H2400     1.0  0.61286  0.05607  0.29277  1.0000
  C   C1501     1.0  0.63537  0.03607  0.28489  1.0000
  H   H2401     1.0  0.58597  0.14781  0.26627  1.0000
  H   H2402     1.0  0.61849  0.06249  0.26437  1.0000
  S   S631      1.0  0.60168  0.13960  0.24808  1.0000
  S   S632      1.0  0.66258  0.08454  0.32375  1.0000
  N   N149      1.0  0.65644  0.04975  0.25307  1.0000
  C   C1502     1.0  0.56986  0.12879  0.27037  1.0000
  C   C1503     1.0  0.57605  0.12319  0.26182  1.0000
  C   C1504     1.0  0.58589  0.12641  0.25492  1.0000
  H   H2403     1.0  0.63863  0.11470  0.27373  1.0000
  C   C1505     1.0  0.58329  0.14087  0.26508  1.0000
  C   C1506     1.0  0.57348  0.13766  0.27194  1.0000
  H   H2404     1.0  0.57309  0.11663  0.26026  1.0000
  H   H2405     1.0  0.59056  0.12216  0.24824  1.0000
  C   C1507     1.0  0.56479  0.05204  0.26012  1.0000
  H   H2406     1.0  0.56864  0.14214  0.27839  1.0000
  C   C1508     1.0  0.58901  0.08161  0.29803  1.0000
  C   C1509     1.0  0.58766  0.09300  0.29315  1.0000
  C   C1510     1.0  0.59534  0.09908  0.29349  1.0000
  C   C1511     1.0  0.60444  0.09385  0.29869  1.0000
  C   C1512     1.0  0.60610  0.08236  0.30315  1.0000
  C   C1513     1.0  0.59835  0.07628  0.30288  1.0000
  H   H2407     1.0  0.58058  0.09721  0.28930  1.0000
  H   H2408     1.0  0.59426  0.10787  0.28967  1.0000
  H   H2409     1.0  0.61312  0.07824  0.30717  1.0000
  H   H2410     1.0  0.59951  0.06746  0.30662  1.0000
  C   C1514     1.0  0.51660  0.08285  0.28821  1.0000
  C   C1515     1.0  0.50533  0.08656  0.28715  1.0000
  C   C1516     1.0  0.50065  0.08106  0.28180  1.0000
  C   C1517     1.0  0.50713  0.07156  0.27785  1.0000
  C   C1518     1.0  0.51836  0.06782  0.27897  1.0000
  C   C1519     1.0  0.52313  0.07352  0.28400  1.0000
  H   H2411     1.0  0.50025  0.09380  0.29037  1.0000
  H   H2412     1.0  0.49202  0.08410  0.28086  1.0000
  H   H2413     1.0  0.52342  0.06047  0.27594  1.0000
  H   H2414     1.0  0.53178  0.07052  0.28488  1.0000
  C   C1520     1.0  0.56694  0.07110  0.25207  1.0000
  C   C1521     1.0  0.53939  0.08350  0.23956  1.0000
  H   H2415     1.0  0.43441  0.07449  0.23705  1.0000
  C   C1522     1.0  0.57586  0.04813  0.25486  1.0000
  C   C1523     1.0  0.58247  0.05570  0.24820  1.0000
  C   C1524     1.0  0.57793  0.06719  0.24668  1.0000
  H   H2416     1.0  0.34299  0.08900  0.32477  1.0000
  H   H2417     1.0  0.44713  0.06999  0.24225  1.0000
  C   C1525     1.0  0.34355  0.07544  0.33909  1.0000
  H   H2418     1.0  0.34194  0.06351  0.35471  1.0000
  C   C1526     1.0  0.38565  0.03508  0.26322  1.0000
  C   C1527     1.0  0.37900  0.04461  0.26704  1.0000
  C   C1528     1.0  0.38029  0.04687  0.27682  1.0000
  C   C1529     1.0  0.38806  0.03946  0.28285  1.0000
  C   C1530     1.0  0.39443  0.02981  0.27918  1.0000
  C   C1531     1.0  0.39329  0.02768  0.26935  1.0000
  H   H2419     1.0  0.37304  0.05035  0.26235  1.0000
  H   H2420     1.0  0.37533  0.05434  0.27964  1.0000
  H   H2421     1.0  0.40039  0.02403  0.28386  1.0000
  H   H2422     1.0  0.39826  0.02020  0.26662  1.0000
  C   C1532     1.0  0.43316  0.07033  0.29499  1.0000
  C   C1533     1.0  0.43106  0.08138  0.28912  1.0000
  C   C1534     1.0  0.42004  0.08784  0.29035  1.0000
  C   C1535     1.0  0.41102  0.08313  0.29717  1.0000
  C   C1536     1.0  0.41312  0.07207  0.30305  1.0000
  C   C1537     1.0  0.42419  0.06575  0.30211  1.0000
  H   H2423     1.0  0.43798  0.08502  0.28379  1.0000
  H   H2424     1.0  0.41850  0.09644  0.28591  1.0000
  H   H2425     1.0  0.40625  0.06839  0.30842  1.0000
  H   H2426     1.0  0.42577  0.05722  0.30674  1.0000
  C   C1538     1.0  0.44630  0.10765  0.25050  1.0000
  C   C1539     1.0  0.53119  0.08947  0.25700  1.0000
  H   H2427     1.0  0.52336  0.09261  0.26282  1.0000
  C   C1540     1.0  0.66435  0.10461  0.32796  1.0000
  H   H2428     1.0  0.61975  0.08597  0.26527  1.0000
  H   H2429     1.0  0.56044  0.11830  0.32849  1.0000
  C   C1541     1.0  0.37535  0.10765  0.27896  1.0000
  C   C1542     1.0  0.37723  0.09434  0.24733  1.0000
  C   C1543     1.0  0.37285  0.09166  0.25888  1.0000
  C   C1544     1.0  0.36120  0.09303  0.26294  1.0000
  C   C1545     1.0  0.35402  0.09669  0.25538  1.0000
  C   C1546     1.0  0.35841  0.09897  0.24387  1.0000
  H   H2430     1.0  0.38619  0.09351  0.24427  1.0000
  H   H2431     1.0  0.37846  0.08877  0.26461  1.0000
  H   H2432     1.0  0.34502  0.09777  0.25844  1.0000
  H   H2433     1.0  0.61014  0.00261  0.24123  1.0000
  H   H2434     1.0  0.65775  0.10879  0.32339  1.0000
  H   H2435     1.0  0.63740  0.02807  0.28251  1.0000
  H   H2436     1.0  0.57854  0.03636  0.30854  1.0000
  H   H2437     1.0  0.36482  0.08629  0.32798  1.0000
  C   C1547     1.0  0.58165  0.04280  0.30139  1.0000
  H   H2438     1.0  0.65253  0.03590  0.28481  1.0000
  H   H2439     1.0  0.61542  0.11127  0.27555  1.0000
  H   H2440     1.0  0.36817  0.01046  0.24820  1.0000
  Fe  Fe320     1.0  0.62354  0.03541  0.24630  1.0000
  H   H2441     1.0  0.59632  0.09454  0.25964  1.0000
  C   C1548     1.0  0.58356  0.03112  0.28852  1.0000
  H   H2442     1.0  0.36670  0.10918  0.27745  1.0000
  H   H2443     1.0  0.38141  0.01437  0.24137  1.0000
  H   H2444     1.0  0.38624  0.09499  0.32504  1.0000
  H   H2445     1.0  0.56249  0.05312  0.29436  1.0000
  C   C1549     1.0  0.56638  0.04473  0.29238  1.0000
  H   H2446     1.0  0.37003  0.07022  0.34887  1.0000
  H   H2447     1.0  0.38096  0.13332  0.26653  1.0000
  C   C1550     1.0  0.61507  0.06988  0.25829  1.0000
  N   N150      1.0  0.48367  0.05116  0.30381  1.0000
  C   C1551     1.0  0.48515  0.06283  0.30048  1.0000
  C   C1552     1.0  0.47201  0.05094  0.30379  1.0000
  C   C1553     1.0  0.48592  0.04626  0.31511  1.0000
  C   C1554     1.0  0.49161  0.04464  0.29583  1.0000
  H   H2448     1.0  0.49384  0.06335  0.30049  1.0000
  H   H2449     1.0  0.47915  0.06810  0.30614  1.0000
  H   H2450     1.0  0.48373  0.06667  0.29190  1.0000
  H   H2451     1.0  0.47002  0.05470  0.29541  1.0000
  H   H2452     1.0  0.47055  0.04227  0.30609  1.0000
  H   H2453     1.0  0.46572  0.05578  0.30968  1.0000
  H   H2454     1.0  0.48481  0.03747  0.31791  1.0000
  H   H2455     1.0  0.48012  0.05105  0.32131  1.0000
  H   H2456     1.0  0.49469  0.04628  0.31536  1.0000
  H   H2457     1.0  0.48989  0.04789  0.28728  1.0000
  H   H2458     1.0  0.49101  0.03570  0.29823  1.0000
  H   H2459     1.0  0.50048  0.04508  0.29518  1.0000
  H   H2460     1.0  0.61578  0.07536  0.27719  1.0000
  H   H2461     1.0  0.59269  0.04925  0.28053  1.0000
  C   C1555     1.0  0.58339  0.05076  0.28172  1.0000
  H   H2462     1.0  0.66628  0.11985  0.33117  1.0000
  H   H2463     1.0  0.58012  0.02455  0.29525  1.0000
  N   N151      1.0  0.57874  0.04235  0.29102  1.0000
  H   H2464     1.0  0.56397  0.04458  0.28461  1.0000
  C   C1556     1.0  0.38264  0.11467  0.25954  1.0000
  H   H2465     1.0  0.59286  0.02903  0.28763  1.0000
  H   H2466     1.0  0.60057  0.06627  0.27800  1.0000
  H   H2467     1.0  0.35878  0.08842  0.34184  1.0000
  C   C1557     1.0  0.44140  0.07744  0.23842  1.0000
  C   C1558     1.0  0.56865  0.10410  0.31444  1.0000
  C   C1559     1.0  0.55365  0.11968  0.30979  1.0000
  H   H2468     1.0  0.42481  0.05241  0.28706  1.0000
  H   H2469     1.0  0.58293  0.07309  0.24143  1.0000
  H   H2470     1.0  0.41651  0.06561  0.28159  1.0000
  H   H2471     1.0  0.43652  0.05237  0.26835  1.0000
  C   C1560     1.0  0.37621  0.12711  0.27239  1.0000
  H   H2472     1.0  0.36541  0.09882  0.33160  1.0000
  H   H2473     1.0  0.37948  0.09894  0.27818  1.0000
  H   H2474     1.0  0.38617  0.08466  0.34967  1.0000
  C   C1561     1.0  0.64512  0.05661  0.25626  1.0000
  C   C1562     1.0  0.36601  0.08968  0.33471  1.0000
  H   H2475     1.0  0.62340  0.13479  0.25272  1.0000
  N   N152      1.0  0.60691  0.07836  0.26400  1.0000
  H   H2476     1.0  0.39454  0.08169  0.33030  1.0000
  H   H2477     1.0  0.37114  0.08733  0.35450  1.0000
  H   H2478     1.0  0.37547  0.12812  0.28100  1.0000
  H   H2479     1.0  0.58175  0.11890  0.30219  1.0000
  H   H2480     1.0  0.62221  0.07336  0.25253  1.0000
  H   H2481     1.0  0.37418  0.11603  0.25766  1.0000
  N   N153      1.0  0.37688  0.08406  0.33797  1.0000
  H   H2482     1.0  0.63465  0.12753  0.27849  1.0000
  N   N154      1.0  0.52874  0.08780  0.24688  1.0000
  H   H2483     1.0  0.52529  0.07150  0.25473  1.0000
  H   H2484     1.0  0.64530  0.06563  0.25434  1.0000
  H   H2485     1.0  0.37315  0.99469  0.23838  1.0000
  C   C1563     1.0  0.36999  0.09800  0.23980  1.0000
  H   H2486     1.0  0.35276  0.10176  0.23813  1.0000
  H   H2487     1.0  0.59093  0.04136  0.30050  1.0000
  H   H2488     1.0  0.59119  0.07957  0.27571  1.0000
  H   H2489     1.0  0.40982  0.05420  0.28931  1.0000
  H   H2490     1.0  0.37678  0.06813  0.33515  1.0000
  C   C1564     1.0  0.59757  0.07334  0.27143  1.0000
  H   H2491     1.0  0.42009  0.03740  0.26766  1.0000
  H   H2492     1.0  0.43777  0.08292  0.24461  1.0000
  H   H2493     1.0  0.65239  0.03487  0.26458  1.0000
  H   H2494     1.0  0.53675  0.09558  0.25486  1.0000
  C   C1565     1.0  0.52133  0.07969  0.25007  1.0000
  N   N155      1.0  0.38188  0.11563  0.27105  1.0000
  H   H2495     1.0  0.57982  0.05934  0.28328  1.0000
  H   H2496     1.0  0.56257  0.03848  0.29925  1.0000
  H   H2497     1.0  0.51317  0.08273  0.25551  1.0000
  H   H2498     1.0  0.40944  0.05524  0.26000  1.0000
  C   C1566     1.0  0.42817  0.10269  0.25876  1.0000
  C   C1567     1.0  0.43926  0.10201  0.25933  1.0000
  H   H2499     1.0  0.57487  0.11878  0.32208  1.0000
  H   H2500     1.0  0.59323  0.07022  0.26666  1.0000
  C   C1568     1.0  0.42410  0.10902  0.24931  1.0000
  C   C1569     1.0  0.39458  0.99537  0.24961  1.0000
  H   H2501     1.0  0.36757  0.12928  0.27070  1.0000
  N   N156      1.0  0.62337  0.12539  0.26949  1.0000
  C   C1570     1.0  0.61952  0.11615  0.26757  1.0000
  N   N157      1.0  0.38266  0.99697  0.24911  1.0000
  C   C1571     1.0  0.61356  0.13312  0.27459  1.0000
  C   C1572     1.0  0.62907  0.13142  0.25876  1.0000
  H   H2502     1.0  0.62666  0.11028  0.26351  1.0000
  H   H2503     1.0  0.57027  0.12982  0.29815  1.0000
  H   H2504     1.0  0.44244  0.09703  0.26658  1.0000
  C   C1573     1.0  0.39331  0.11307  0.27334  1.0000
  H   H2505     1.0  0.54405  0.07552  0.24391  1.0000
  H   H2506     1.0  0.58177  0.03056  0.28059  1.0000
  H   H2507     1.0  0.60903  0.12875  0.28264  1.0000
  H   H2508     1.0  0.60743  0.13680  0.26903  1.0000
  H   H2509     1.0  0.61613  0.14016  0.27624  1.0000
  S   S633      1.0  0.63472  0.04699  0.23524  1.0000
  H   H2510     1.0  0.63662  0.12586  0.25479  1.0000
  H   H2511     1.0  0.51937  0.07814  0.24265  1.0000
  H   H2512     1.0  0.60662  0.08881  0.27492  1.0000
  C   C1574     1.0  0.56616  0.12122  0.32054  1.0000
  H   H2513     1.0  0.57761  0.10130  0.31527  1.0000
  H   H2514     1.0  0.57797  0.05108  0.30366  1.0000
  C   C1575     1.0  0.57295  0.12065  0.30106  1.0000
  C   C1576     1.0  0.38619  0.08595  0.32825  1.0000
  H   H2515     1.0  0.60925  0.09174  0.24969  1.0000
  H   H2516     1.0  0.38518  0.06744  0.34476  1.0000
  S   S634      1.0  0.62007  0.11312  0.23788  1.0000
  C   C1577     1.0  0.65993  0.10872  0.25739  1.0000
  H   H2517     1.0  0.62720  0.11651  0.28539  1.0000
  H   H2518     1.0  0.63914  0.05554  0.25175  1.0000
  H   H2519     1.0  0.39785  0.10445  0.27238  1.0000
  H   H2520     1.0  0.56335  0.10061  0.32244  1.0000
  H   H2521     1.0  0.55968  0.04618  0.26526  1.0000
  H   H2522     1.0  0.56773  0.10017  0.30796  1.0000
  C   C1578     1.0  0.33922  0.08609  0.33340  1.0000
  N   N158      1.0  0.41879  0.05269  0.27267  1.0000
  H   H2523     1.0  0.42802  0.06513  0.26246  1.0000
  H   H2524     1.0  0.40102  0.05579  0.27366  1.0000
  C   C1579     1.0  0.40875  0.05801  0.26780  1.0000
  H   H2525     1.0  0.39854  0.11888  0.26750  1.0000
  H   H2526     1.0  0.39922  0.00033  0.24206  1.0000
  H   H2527     1.0  0.43047  0.05277  0.25692  1.0000
  H   H2528     1.0  0.61105  0.06681  0.25320  1.0000
  C   C1580     1.0  0.38201  0.99370  0.23902  1.0000
  H   H2529     1.0  0.61329  0.11936  0.26207  1.0000
  C   C1581     1.0  0.37715  0.00885  0.24872  1.0000
  H   H2530     1.0  0.41317  0.03760  0.28183  1.0000
  S   S635      1.0  0.61421  0.02455  0.24230  1.0000
  H   H2531     1.0  0.40746  0.06727  0.26587  1.0000
  H   H2532     1.0  0.38735  0.10626  0.25809  1.0000
  C   C1582     1.0  0.33857  0.07173  0.35026  1.0000
  S   S636      1.0  0.41063  0.10865  0.24838  1.0000
  H   H2533     1.0  0.39308  0.11360  0.28200  1.0000
  C   C1583     1.0  0.64392  0.04051  0.28620  1.0000
  N   N159      1.0  0.56535  0.11641  0.31146  1.0000
  C   C1584     1.0  0.63130  0.12084  0.27711  1.0000
  H   H2534     1.0  0.57300  0.11673  0.29418  1.0000
  H   H2535     1.0  0.38548  0.08270  0.32121  1.0000
  C   C1585     1.0  0.58948  0.13529  0.25653  1.0000
  H   H2536     1.0  0.38720  0.12083  0.25331  1.0000
  C   C1586     1.0  0.41741  0.05640  0.28311  1.0000
  H   H2537     1.0  0.56387  0.13050  0.31848  1.0000
  H   H2538     1.0  0.54765  0.11654  0.31741  1.0000
  H   H2539     1.0  0.63189  0.13857  0.25986  1.0000
  H   H2540     1.0  0.66475  0.06010  0.25771  1.0000
  H   H2541     1.0  0.59100  0.05270  0.24404  1.0000
  C   C1587     1.0  0.61280  0.99373  0.24158  1.0000
  H   H2542     1.0  0.65004  0.03651  0.25090  1.0000
  H   H2543     1.0  0.37745  0.05513  0.23728  1.0000
  H   H2544     1.0  0.45352  0.09258  0.23623  1.0000
  C   C1588     1.0  0.38310  0.06065  0.23704  1.0000
  S   S637      1.0  0.66305  0.10672  0.27059  1.0000
  C   C1589     1.0  0.65574  0.03787  0.25558  1.0000
  H   H2545     1.0  0.51502  0.10206  0.24623  1.0000
  H   H2546     1.0  0.52846  0.10489  0.23840  1.0000
  C   C1590     1.0  0.66332  0.11732  0.23765  1.0000
  H   H2547     1.0  0.37736  0.99218  0.26689  1.0000
  H   H2548     1.0  0.37743  0.01159  0.25626  1.0000
  S   S638      1.0  0.66293  0.08062  0.29483  1.0000
  H   H2549     1.0  0.54514  0.08949  0.23688  1.0000
  C   C1591     1.0  0.45540  0.04463  0.23770  1.0000
  H   H2550     1.0  0.37822  0.06684  0.24227  1.0000
  C   C1592     1.0  0.66083  0.05332  0.24099  1.0000
  H   H2551     1.0  0.66125  0.06231  0.23871  1.0000
  C   C1593     1.0  0.65472  0.11310  0.23623  1.0000
  C   C1594     1.0  0.66406  0.05122  0.25940  1.0000
  H   H2552     1.0  0.66412  0.03243  0.25327  1.0000
  H   H2553     1.0  0.36792  0.99100  0.25904  1.0000
  H   H2554     1.0  0.65539  0.05211  0.23597  1.0000
  C   C1595     1.0  0.66582  0.11525  0.24821  1.0000
  H   H2555     1.0  0.44437  0.03554  0.23510  1.0000
  H   H2556     1.0  0.64753  0.10871  0.65749  1.0000
  S   S639      1.0  0.36274  0.08889  0.70975  1.0000
  H   H2557     1.0  0.39919  0.11835  0.72959  1.0000
  S   S640      1.0  0.36176  0.11398  0.71341  1.0000
  Fe  Fe321     1.0  0.35022  0.10516  0.70926  1.0000
  Fe  Fe322     1.0  0.37358  0.09718  0.71515  1.0000
  S   S641      1.0  0.39253  0.09342  0.70929  1.0000
  H   H2558     1.0  0.38209  0.10283  0.65967  1.0000
  S   S642      1.0  0.62456  0.13561  0.71163  1.0000
  S   S643      1.0  0.62363  0.10893  0.72023  1.0000
  Fe  Fe323     1.0  0.63700  0.11926  0.71358  1.0000
  S   S644      1.0  0.65294  0.11290  0.70172  1.0000
  Fe  Fe324     1.0  0.61135  0.12542  0.71982  1.0000
  S   S645      1.0  0.59442  0.13217  0.71531  1.0000
  H   H2559     1.0  0.37230  0.06945  0.72463  1.0000
  S   S646      1.0  0.63876  0.12006  0.73050  1.0000
  C   C1596     1.0  0.38296  0.09869  0.68133  1.0000
  H   H2560     1.0  0.64472  0.13491  0.68868  1.0000
  H   H2561     1.0  0.59085  0.00287  0.73314  1.0000
  H   H2562     1.0  0.36066  0.12033  0.67796  1.0000
  C   C1597     1.0  0.65305  0.13148  0.68438  1.0000
  C   C1598     1.0  0.59241  0.16149  0.71117  1.0000
  H   H2563     1.0  0.42811  0.07005  0.71888  1.0000
  C   C1599     1.0  0.40056  0.09810  0.71597  1.0000
  C   C1600     1.0  0.41187  0.09276  0.71581  1.0000
  C   C1601     1.0  0.41850  0.09634  0.72099  1.0000
  C   C1602     1.0  0.37786  0.10980  0.66410  1.0000
  S   S647      1.0  0.45286  0.09128  0.72489  1.0000
  C   C1603     1.0  0.39597  0.10719  0.72118  1.0000
  H   H2564     1.0  0.41552  0.08594  0.71152  1.0000
  H   H2565     1.0  0.42721  0.09218  0.72080  1.0000
  H   H2566     1.0  0.38708  0.01320  0.72751  1.0000
  H   H2567     1.0  0.66022  0.12155  0.65556  1.0000
  C   C1604     1.0  0.49795  0.10675  0.73021  1.0000
  H   H2568     1.0  0.66348  0.09229  0.67135  1.0000
  C   C1605     1.0  0.36529  0.09869  0.67720  1.0000
  H   H2569     1.0  0.59637  0.10812  0.72234  1.0000
  C   C1606     1.0  0.58439  0.12381  0.72159  1.0000
  H   H2570     1.0  0.60440  0.17107  0.72686  1.0000
  S   S648      1.0  0.48106  0.10102  0.72441  1.0000
  N   N160      1.0  0.37353  0.10555  0.67605  1.0000
  H   H2571     1.0  0.65498  0.10530  0.64426  1.0000
  C   C1607     1.0  0.57930  0.10569  0.72875  1.0000
  H   H2572     1.0  0.58964  0.14804  0.73131  1.0000
  H   H2573     1.0  0.41070  0.04917  0.72377  1.0000
  H   H2574     1.0  0.65326  0.14531  0.67022  1.0000
  C   C1608     1.0  0.57299  0.12895  0.72389  1.0000
  C   C1609     1.0  0.37247  0.06205  0.73118  1.0000
  C   C1610     1.0  0.65488  0.10304  0.65336  1.0000
  H   H2575     1.0  0.38408  0.11503  0.66292  1.0000
  H   H2576     1.0  0.36912  0.09142  0.67314  1.0000
  H   H2577     1.0  0.55604  0.12657  0.73063  1.0000
  H   H2578     1.0  0.38730  0.11147  0.72123  1.0000
  Fe  Fe325     1.0  0.62504  0.13539  0.72919  1.0000
  H   H2579     1.0  0.43271  0.03990  0.73144  1.0000
  C   C1611     1.0  0.48636  0.10898  0.73053  1.0000
  S   S649      1.0  0.34099  0.11150  0.69466  1.0000
  S   S650      1.0  0.62438  0.15165  0.73346  1.0000
  H   H2580     1.0  0.37387  0.12049  0.68086  1.0000
  C   C1612     1.0  0.59631  0.15293  0.72941  1.0000
  H   H2581     1.0  0.59057  0.16936  0.70495  1.0000
  C   C1613     1.0  0.56479  0.12250  0.72891  1.0000
  H   H2582     1.0  0.39051  0.05734  0.72761  1.0000
  H   H2583     1.0  0.57047  0.13795  0.72183  1.0000
  H   H2584     1.0  0.41369  0.06226  0.71533  1.0000
  C   C1614     1.0  0.65790  0.13733  0.67393  1.0000
  C   C1615     1.0  0.43067  0.06216  0.72479  1.0000
  H   H2585     1.0  0.61112  0.16455  0.71527  1.0000
  C   C1616     1.0  0.41736  0.05419  0.72043  1.0000
  H   H2586     1.0  0.38001  0.09542  0.69037  1.0000
  H   H2587     1.0  0.42312  0.13459  0.73161  1.0000
  C   C1617     1.0  0.65890  0.12107  0.68913  1.0000
  H   H2588     1.0  0.36178  0.09538  0.68611  1.0000
  N   N161      1.0  0.59370  0.16366  0.72159  1.0000
  C   C1618     1.0  0.36797  0.11507  0.68156  1.0000
  H   H2589     1.0  0.38735  0.09138  0.67745  1.0000
  Fe  Fe326     1.0  0.35454  0.08526  0.72780  1.0000
  Fe  Fe327     1.0  0.35416  0.10791  0.73154  1.0000
  H   H2590     1.0  0.35797  0.10366  0.67345  1.0000
  H   H2591     1.0  0.65340  0.09439  0.65652  1.0000
  C   C1619     1.0  0.41398  0.10561  0.72596  1.0000
  H   H2592     1.0  0.65813  0.10669  0.67224  1.0000
  C   C1620     1.0  0.60302  0.16957  0.71912  1.0000
  H   H2593     1.0  0.36463  0.11213  0.69057  1.0000
  C   C1621     1.0  0.58757  0.11216  0.72418  1.0000
  C   C1622     1.0  0.33631  0.09182  0.69268  1.0000
  H   H2594     1.0  0.37093  0.11503  0.65991  1.0000
  H   H2595     1.0  0.38930  0.10362  0.68069  1.0000
  N   N162      1.0  0.42145  0.05600  0.72955  1.0000
  C   C1623     1.0  0.40272  0.11106  0.72594  1.0000
  H   H2596     1.0  0.60138  0.17776  0.71329  1.0000
  C   C1624     1.0  0.58313  0.17052  0.72669  1.0000
  H   H2597     1.0  0.60019  0.15610  0.70726  1.0000
  H   H2598     1.0  0.34068  0.08757  0.69939  1.0000
  H   H2599     1.0  0.42428  0.04962  0.71477  1.0000
  C   C1625     1.0  0.33513  0.10338  0.68895  1.0000
  H   H2600     1.0  0.43827  0.05711  0.72025  1.0000
  H   H2601     1.0  0.58547  0.15699  0.71276  1.0000
  H   H2602     1.0  0.58176  0.09668  0.73048  1.0000
  H   H2603     1.0  0.50349  0.10007  0.72638  1.0000
  H   H2604     1.0  0.58087  0.17868  0.72099  1.0000
  S   S651      1.0  0.34144  0.10098  0.72724  1.0000
  C   C1626     1.0  0.56790  0.11086  0.73128  1.0000
  H   H2605     1.0  0.60431  0.14774  0.72576  1.0000
  H   H2606     1.0  0.40885  0.07091  0.73160  1.0000
  H   H2607     1.0  0.57598  0.16621  0.72872  1.0000
  H   H2608     1.0  0.43333  0.06446  0.73139  1.0000
  S   S652      1.0  0.42205  0.11067  0.73226  1.0000
  H   H2609     1.0  0.41462  0.14827  0.73245  1.0000
  C   C1627     1.0  0.50244  0.11317  0.73475  1.0000
  C   C1628     1.0  0.38280  0.05516  0.73285  1.0000
  N   N163      1.0  0.66549  0.10396  0.65559  1.0000
  C   C1629     1.0  0.66499  0.10089  0.66773  1.0000
  H   H2610     1.0  0.51139  0.11145  0.73436  1.0000
  Fe  Fe328     1.0  0.46423  0.09646  0.73282  1.0000
  S   S653      1.0  0.36663  0.09170  0.73326  1.0000
  H   H2611     1.0  0.38853  0.02312  0.73459  1.0000
  H   H2612     1.0  0.58386  0.17225  0.73458  1.0000
  C   C1630     1.0  0.38979  0.01403  0.73486  1.0000
  H   H2613     1.0  0.39899  0.01048  0.73386  1.0000
  C   C1631     1.0  0.66707  0.11557  0.65128  1.0000
  C   C1632     1.0  0.35484  0.30638  0.89694  1.0000
  H   H2614     1.0  0.33402  0.31696  0.89408  1.0000
  Fe  Fe329     1.0  0.60517  0.21651  0.95176  1.0000
  S   S654      1.0  0.59001  0.22942  0.94820  1.0000
  S   S655      1.0  0.61614  0.21052  0.93632  1.0000
  Fe  Fe330     1.0  0.59397  0.23872  0.95879  1.0000
  S   S656      1.0  0.59057  0.25731  0.95358  1.0000
  Fe  Fe331     1.0  0.58090  0.22059  0.96426  1.0000
  S   S657      1.0  0.56345  0.21853  0.96517  1.0000
  S   S658      1.0  0.61034  0.22679  0.96084  1.0000
  S   S659      1.0  0.59588  0.20686  0.96740  1.0000
  Fe  Fe332     1.0  0.53699  0.26023  0.92368  1.0000
  S   S660      1.0  0.53895  0.27384  0.90830  1.0000
  S   S661      1.0  0.53353  0.26188  0.94146  1.0000
  Fe  Fe333     1.0  0.54081  0.24228  0.91085  1.0000
  S   S662      1.0  0.54376  0.25405  0.89427  1.0000
  S   S663      1.0  0.54096  0.22407  0.91370  1.0000
  Fe  Fe334     1.0  0.55386  0.26122  0.90179  1.0000
  S   S664      1.0  0.57144  0.26348  0.89242  1.0000
  Fe  Fe335     1.0  0.52864  0.26545  0.90217  1.0000
  S   S665      1.0  0.51382  0.27350  0.89382  1.0000
  S   S666      1.0  0.55245  0.24812  0.91753  1.0000
  S   S667      1.0  0.52525  0.25322  0.91830  1.0000
  Fe  Fe336     1.0  0.39461  0.21058  0.96593  1.0000
  S   S668      1.0  0.38631  0.22870  0.96455  1.0000
  Fe  Fe337     1.0  0.39941  0.21180  0.94080  1.0000
  S   S669      1.0  0.39157  0.22998  0.93781  1.0000
  S   S670      1.0  0.40754  0.20760  0.92383  1.0000
  Fe  Fe338     1.0  0.40062  0.23129  0.95011  1.0000
  S   S671      1.0  0.40932  0.24558  0.94626  1.0000
  Fe  Fe339     1.0  0.37804  0.22567  0.95244  1.0000
  S   S672      1.0  0.36058  0.23400  0.95013  1.0000
  S   S673      1.0  0.40965  0.21340  0.95219  1.0000
  S   S674      1.0  0.38506  0.20722  0.95480  1.0000
  Fe  Fe340     1.0  0.45848  0.23301  0.90367  1.0000
  S   S675      1.0  0.46254  0.24963  0.89501  1.0000
  S   S676      1.0  0.45768  0.22559  0.92177  1.0000
  Fe  Fe341     1.0  0.45805  0.22662  0.88237  1.0000
  S   S677      1.0  0.46273  0.24260  0.87153  1.0000
  S   S678      1.0  0.45554  0.21089  0.87902  1.0000
  Fe  Fe342     1.0  0.47496  0.24038  0.88261  1.0000
  S   S679      1.0  0.49371  0.23990  0.87921  1.0000
  Fe  Fe343     1.0  0.44995  0.25057  0.88490  1.0000
  S   S680      1.0  0.43610  0.26593  0.88320  1.0000
  S   S681      1.0  0.47148  0.22365  0.89201  1.0000
  S   S682      1.0  0.44466  0.23478  0.89497  1.0000
  Fe  Fe344     1.0  0.38287  0.13466  0.78133  1.0000
  S   S683      1.0  0.37482  0.12858  0.79930  1.0000
  H   H2615     1.0  0.59175  0.23620  0.85820  1.0000
  Fe  Fe345     1.0  0.40522  0.13314  0.78732  1.0000
  S   S684      1.0  0.39944  0.12630  0.80545  1.0000
  S   S685      1.0  0.42233  0.13677  0.77945  1.0000
  Fe  Fe346     1.0  0.39112  0.11579  0.79955  1.0000
  S   S686      1.0  0.39443  0.09688  0.80487  1.0000
  Fe  Fe347     1.0  0.38391  0.13967  0.80379  1.0000
  S   S687      1.0  0.37789  0.15295  0.81459  1.0000
  S   S688      1.0  0.39861  0.12148  0.78157  1.0000
  S   S689      1.0  0.39024  0.14689  0.78569  1.0000
  H   H2616     1.0  0.62493  0.11661  0.76180  1.0000
  H   H2617     1.0  0.36272  0.01822  0.78388  1.0000
  Fe  Fe348     1.0  0.36571  0.27301  0.89790  1.0000
  S   S690      1.0  0.36853  0.28454  0.88116  1.0000
  S   S691      1.0  0.36797  0.27689  0.91327  1.0000
  Fe  Fe349     1.0  0.36042  0.25545  0.88891  1.0000
  S   S692      1.0  0.36263  0.26548  0.87146  1.0000
  S   S693      1.0  0.35683  0.23821  0.89463  1.0000
  Fe  Fe350     1.0  0.37788  0.26877  0.87510  1.0000
  S   S694      1.0  0.39496  0.26468  0.86400  1.0000
  Fe  Fe351     1.0  0.35301  0.28020  0.87926  1.0000
  S   S695      1.0  0.37625  0.25767  0.89205  1.0000
  S   S696      1.0  0.34965  0.26971  0.89649  1.0000
  Fe  Fe352     1.0  0.39617  0.18448  0.87854  1.0000
  S   S697      1.0  0.39400  0.20261  0.87061  1.0000
  S   S698      1.0  0.39302  0.17947  0.89741  1.0000
  Fe  Fe353     1.0  0.40030  0.17752  0.85598  1.0000
  S   S699      1.0  0.39889  0.19532  0.84648  1.0000
  S   S700      1.0  0.40281  0.16246  0.84806  1.0000
  Fe  Fe354     1.0  0.40906  0.19742  0.85770  1.0000
  S   S701      1.0  0.42033  0.21001  0.85173  1.0000
  Fe  Fe355     1.0  0.38414  0.19896  0.86027  1.0000
  S   S702      1.0  0.36839  0.21112  0.85665  1.0000
  S   S703      1.0  0.41195  0.17922  0.86615  1.0000
  S   S704      1.0  0.38484  0.18119  0.86926  1.0000
  Fe  Fe356     1.0  0.58397  0.06239  0.78074  1.0000
  S   S705      1.0  0.59853  0.04993  0.78655  1.0000
  S   S706      1.0  0.58574  0.07154  0.76299  1.0000
  Fe  Fe357     1.0  0.56904  0.05984  0.80337  1.0000
  S   S707      1.0  0.58223  0.04712  0.81125  1.0000
  S   S708      1.0  0.55246  0.06569  0.81404  1.0000
  Fe  Fe358     1.0  0.59377  0.05849  0.80096  1.0000
  S   S709      1.0  0.60716  0.06081  0.80833  1.0000
  Fe  Fe359     1.0  0.58581  0.03958  0.79623  1.0000
  S   S710      1.0  0.59155  0.02079  0.79793  1.0000
  S   S711      1.0  0.58023  0.07188  0.79431  1.0000
  S   S712      1.0  0.57145  0.05146  0.78915  1.0000
  Fe  Fe360     1.0  0.52548  0.10725  0.76962  1.0000
  S   S713      1.0  0.52538  0.10580  0.75254  1.0000
  S   S714      1.0  0.51835  0.09462  0.78382  1.0000
  Fe  Fe361     1.0  0.53405  0.12896  0.76142  1.0000
  C   C1633     1.0  0.36245  0.05954  0.73817  1.0000
  S   S715      1.0  0.54275  0.14090  0.76468  1.0000
  Fe  Fe362     1.0  0.51733  0.12399  0.75041  1.0000
  H   H2618     1.0  0.43019  0.21134  0.98462  1.0000
  Fe  Fe363     1.0  0.54179  0.11149  0.74742  1.0000
  H   H2619     1.0  0.47834  0.13133  0.74302  1.0000
  S   S716      1.0  0.51672  0.12521  0.76790  1.0000
  S   S717      1.0  0.54268  0.11105  0.76487  1.0000
  H   H2620     1.0  0.64657  0.24275  0.91444  1.0000
  Fe  Fe364     1.0  0.38378  0.05061  0.78234  1.0000
  S   S718      1.0  0.39924  0.05101  0.76874  1.0000
  S   S719      1.0  0.37330  0.06732  0.78581  1.0000
  Fe  Fe365     1.0  0.38709  0.02518  0.78635  1.0000
  S   S720      1.0  0.40316  0.02366  0.77351  1.0000
  S   S721      1.0  0.38171  0.00877  0.79465  1.0000
  Fe  Fe366     1.0  0.40714  0.03632  0.78039  1.0000
  S   S722      1.0  0.42470  0.03480  0.78230  1.0000
  Fe  Fe367     1.0  0.39385  0.03831  0.76317  1.0000
  H   H2621     1.0  0.56984  0.19152  0.94555  1.0000
  S   S723      1.0  0.39200  0.03652  0.79446  1.0000
  S   S724      1.0  0.37740  0.03930  0.77551  1.0000
  H   H2622     1.0  0.57719  0.28013  0.94634  1.0000
  S   S725      1.0  0.43772  0.08550  0.75057  1.0000
  H   H2623     1.0  0.54077  0.06362  0.76655  1.0000
  S   S726      1.0  0.46528  0.08096  0.74625  1.0000
  S   S727      1.0  0.64943  0.26903  0.90417  1.0000
  C   C1634     1.0  0.36559  0.17180  0.85518  1.0000
  H   H2624     1.0  0.54534  0.20509  0.93204  1.0000
  Fe  Fe368     1.0  0.45058  0.09090  0.75598  1.0000
  S   S728      1.0  0.45027  0.08934  0.77401  1.0000
  C   C1635     1.0  0.56663  0.09623  0.80884  1.0000
  S   S729      1.0  0.45006  0.10680  0.74304  1.0000
  Fe  Fe369     1.0  0.61849  0.28412  0.90367  1.0000
  S   S730      1.0  0.62313  0.26652  0.91273  1.0000
  S   S731      1.0  0.59991  0.29152  0.90466  1.0000
  Fe  Fe370     1.0  0.64301  0.28693  0.89640  1.0000
  C   C1636     1.0  0.38526  0.99636  0.74550  1.0000
  H   H2625     1.0  0.37343  0.17153  0.85781  1.0000
  Fe  Fe371     1.0  0.63664  0.26445  0.89754  1.0000
  S   S732      1.0  0.63952  0.24730  0.89351  1.0000
  Fe  Fe372     1.0  0.63539  0.27256  0.91846  1.0000
  S   S733      1.0  0.63819  0.26721  0.93590  1.0000
  S   S734      1.0  0.63159  0.28208  0.88802  1.0000
  S   S735      1.0  0.62934  0.29049  0.91110  1.0000
  Fe  Fe373     1.0  0.60544  0.19167  0.86612  1.0000
  S   S736      1.0  0.59946  0.20984  0.85871  1.0000
  S   S737      1.0  0.61277  0.17931  0.85428  1.0000
  Fe  Fe374     1.0  0.59685  0.19559  0.89007  1.0000
  S   S738      1.0  0.58937  0.21349  0.88418  1.0000
  S   S739      1.0  0.59331  0.19065  0.90900  1.0000
  Fe  Fe375     1.0  0.58387  0.20791  0.87161  1.0000
  S   S740      1.0  0.56719  0.21608  0.86696  1.0000
  Fe  Fe376     1.0  0.60565  0.21415  0.87188  1.0000
  S   S741      1.0  0.60965  0.23130  0.86964  1.0000
  S   S742      1.0  0.58945  0.18978  0.87876  1.0000
  S   S743      1.0  0.61355  0.19611  0.87809  1.0000
  H   H2626     1.0  0.38352  0.08461  0.76845  1.0000
  H   H2627     1.0  0.63245  0.21917  0.94172  1.0000
  H   H2628     1.0  0.39253  0.10094  0.77633  1.0000
  H   H2629     1.0  0.58099  0.18548  0.80498  1.0000
  C   C1637     1.0  0.38695  0.10168  0.75140  1.0000
  Fe  Fe377     1.0  0.60151  0.12383  0.81027  1.0000
  S   S744      1.0  0.59318  0.13023  0.79565  1.0000
  S   S745      1.0  0.61426  0.10756  0.81136  1.0000
  Fe  Fe378     1.0  0.58959  0.14406  0.82125  1.0000
  S   S746      1.0  0.57960  0.15144  0.80771  1.0000
  S   S747      1.0  0.58606  0.15457  0.83462  1.0000
  Fe  Fe379     1.0  0.57761  0.13413  0.80863  1.0000
  S   S748      1.0  0.56249  0.12768  0.80855  1.0000
  Fe  Fe380     1.0  0.59598  0.14686  0.79596  1.0000
  S   S749      1.0  0.60141  0.16059  0.78184  1.0000
  S   S750      1.0  0.58587  0.12698  0.82340  1.0000
  S   S751      1.0  0.60606  0.14013  0.80932  1.0000
  C   C1638     1.0  0.55888  0.27641  0.93294  1.0000
  C   C1639     1.0  0.61272  0.14560  0.75516  1.0000
  C   C1640     1.0  0.60754  0.14762  0.76591  1.0000
  C   C1641     1.0  0.60748  0.15770  0.76850  1.0000
  C   C1642     1.0  0.61238  0.16579  0.76030  1.0000
  H   H2630     1.0  0.35062  0.11550  0.76953  1.0000
  H   H2631     1.0  0.61282  0.13781  0.75319  1.0000
  H   H2632     1.0  0.60354  0.14147  0.77217  1.0000
  H   H2633     1.0  0.61232  0.17361  0.76223  1.0000
  C   C1643     1.0  0.62501  0.22773  0.88314  1.0000
  C   C1644     1.0  0.60521  0.17231  0.84910  1.0000
  C   C1645     1.0  0.61120  0.16485  0.84202  1.0000
  C   C1646     1.0  0.60558  0.15918  0.83769  1.0000
  C   C1647     1.0  0.59381  0.16092  0.84032  1.0000
  C   C1648     1.0  0.58782  0.16837  0.84740  1.0000
  C   C1649     1.0  0.59344  0.17402  0.85173  1.0000
  H   H2634     1.0  0.62030  0.16335  0.83998  1.0000
  H   H2635     1.0  0.61039  0.15336  0.83245  1.0000
  H   H2636     1.0  0.57873  0.16981  0.84954  1.0000
  H   H2637     1.0  0.58866  0.17968  0.85716  1.0000
  H   H2638     1.0  0.37786  0.10145  0.75442  1.0000
  H   H2639     1.0  0.64766  0.10780  0.76827  1.0000
  C   C1650     1.0  0.65245  0.30984  0.90614  1.0000
  H   H2640     1.0  0.62404  0.03597  0.81679  1.0000
  H   H2641     1.0  0.64427  0.30771  0.90913  1.0000
  C   C1651     1.0  0.63056  0.24296  0.88751  1.0000
  C   C1652     1.0  0.62270  0.25064  0.88180  1.0000
  C   C1653     1.0  0.61634  0.24690  0.87646  1.0000
  C   C1654     1.0  0.61750  0.23544  0.87702  1.0000
  H   H2642     1.0  0.56313  0.12469  0.75488  1.0000
  H   H2643     1.0  0.57687  0.12460  0.74614  1.0000
  H   H2644     1.0  0.62183  0.25949  0.88113  1.0000
  H   H2645     1.0  0.61060  0.25295  0.87172  1.0000
  H   H2646     1.0  0.58426  0.23725  0.87819  1.0000
  C   C1655     1.0  0.37549  0.00338  0.78690  1.0000
  C   C1656     1.0  0.36606  0.00975  0.78267  1.0000
  C   C1657     1.0  0.57338  0.00095  0.78548  1.0000
  C   C1658     1.0  0.65960  0.27757  0.94565  1.0000
  C   C1659     1.0  0.37307  0.04326  0.74854  1.0000
  H   H2647     1.0  0.34610  0.28823  0.90793  1.0000
  H   H2648     1.0  0.56466  0.26970  0.92881  1.0000
  C   C1660     1.0  0.43253  0.04150  0.77002  1.0000
  C   C1661     1.0  0.44349  0.03623  0.76579  1.0000
  C   C1662     1.0  0.44989  0.04163  0.75607  1.0000
  Fe  Fe381     1.0  0.59974  0.21829  0.97631  1.0000
  C   C1663     1.0  0.43457  0.05780  0.75514  1.0000
  C   C1664     1.0  0.42804  0.05227  0.76465  1.0000
  H   H2649     1.0  0.44700  0.02792  0.76994  1.0000
  H   H2650     1.0  0.38841  0.11292  0.76594  1.0000
  H   H2651     1.0  0.43104  0.06606  0.75101  1.0000
  H   H2652     1.0  0.41970  0.05650  0.76804  1.0000
  C   C1665     1.0  0.54815  0.13717  0.77692  1.0000
  C   C1666     1.0  0.54445  0.12899  0.78594  1.0000
  C   C1667     1.0  0.54883  0.12624  0.79563  1.0000
  C   C1668     1.0  0.55709  0.13148  0.79630  1.0000
  C   C1669     1.0  0.56091  0.13953  0.78721  1.0000
  C   C1670     1.0  0.55637  0.14244  0.77760  1.0000
  H   H2653     1.0  0.53804  0.12497  0.78554  1.0000
  H   H2654     1.0  0.54569  0.12014  0.80269  1.0000
  H   H2655     1.0  0.56722  0.14366  0.78767  1.0000
  H   H2656     1.0  0.55920  0.14882  0.77067  1.0000
  H   H2657     1.0  0.59318  0.17964  0.82388  1.0000
  H   H2658     1.0  0.39636  0.08021  0.75905  1.0000
  H   H2659     1.0  0.59304  0.25295  0.91013  1.0000
  H   H2660     1.0  0.40683  0.26643  0.90212  1.0000
  H   H2661     1.0  0.52735  0.21797  0.88445  1.0000
  N   N164      1.0  0.39312  0.09731  0.76057  1.0000
  H   H2662     1.0  0.39673  0.08202  0.77248  1.0000
  C   C1671     1.0  0.61778  0.15368  0.74702  1.0000
  H   H2663     1.0  0.37804  0.13638  0.74264  1.0000
  H   H2664     1.0  0.41013  0.15389  0.79148  1.0000
  H   H2665     1.0  0.56872  0.25944  0.94735  1.0000
  H   H2666     1.0  0.42886  0.04606  0.74337  1.0000
  C   C1672     1.0  0.63159  0.23149  0.88824  1.0000
  H   H2667     1.0  0.41009  0.16003  0.81838  1.0000
  H   H2668     1.0  0.39431  0.99222  0.74480  1.0000
  C   C1673     1.0  0.36318  0.12495  0.76757  1.0000
  H   H2669     1.0  0.56270  0.21096  0.91950  1.0000
  C   C1674     1.0  0.55472  0.28617  0.94792  1.0000
  C   C1675     1.0  0.59679  0.07856  0.75995  1.0000
  C   C1676     1.0  0.60255  0.07781  0.76821  1.0000
  C   C1677     1.0  0.61112  0.08370  0.76594  1.0000
  C   C1678     1.0  0.61381  0.09054  0.75546  1.0000
  H   H2670     1.0  0.54447  0.20102  0.94683  1.0000
  C   C1679     1.0  0.56715  0.20601  0.92628  1.0000
  H   H2671     1.0  0.60049  0.07266  0.77637  1.0000
  H   H2672     1.0  0.61563  0.08296  0.77235  1.0000
  C   C1680     1.0  0.38807  0.10396  0.76927  1.0000
  N   N165      1.0  0.41471  0.13672  0.74821  1.0000
  C   C1681     1.0  0.60842  0.07415  0.80901  1.0000
  C   C1682     1.0  0.60092  0.08405  0.80548  1.0000
  C   C1683     1.0  0.60225  0.09443  0.80652  1.0000
  C   C1684     1.0  0.61127  0.09490  0.81082  1.0000
  C   C1685     1.0  0.61879  0.08501  0.81412  1.0000
  C   C1686     1.0  0.61731  0.07472  0.81333  1.0000
  H   H2673     1.0  0.59420  0.08369  0.80189  1.0000
  H   H2674     1.0  0.59650  0.10207  0.80378  1.0000
  H   H2675     1.0  0.62581  0.08529  0.81738  1.0000
  H   H2676     1.0  0.62316  0.06716  0.81605  1.0000
  C   C1687     1.0  0.58446  0.01331  0.79304  1.0000
  H   H2677     1.0  0.64711  0.21934  0.93895  1.0000
  H   H2678     1.0  0.42212  0.24089  0.96675  1.0000
  H   H2679     1.0  0.61177  0.02875  0.79680  1.0000
  C   C1688     1.0  0.56977  0.01257  0.78428  1.0000
  C   C1689     1.0  0.57527  0.01873  0.78805  1.0000
  H   H2680     1.0  0.34919  0.07269  0.78374  1.0000
  H   H2681     1.0  0.54604  0.28453  0.95067  1.0000
  H   H2682     1.0  0.56262  0.01683  0.78050  1.0000
  H   H2683     1.0  0.57233  0.02766  0.78717  1.0000
  C   C1690     1.0  0.54308  0.07397  0.80567  1.0000
  C   C1691     1.0  0.54710  0.07937  0.79478  1.0000
  C   C1692     1.0  0.53951  0.08600  0.78814  1.0000
  C   C1693     1.0  0.52792  0.08695  0.79225  1.0000
  C   C1694     1.0  0.52392  0.08147  0.80311  1.0000
  C   C1695     1.0  0.53150  0.07513  0.80988  1.0000
  H   H2684     1.0  0.55605  0.07850  0.79151  1.0000
  H   H2685     1.0  0.54260  0.09019  0.77979  1.0000
  H   H2686     1.0  0.51497  0.08219  0.80632  1.0000
  H   H2687     1.0  0.52838  0.07093  0.81829  1.0000
  H   H2688     1.0  0.57916  0.26200  0.86947  1.0000
  C   C1696     1.0  0.35930  0.23083  0.88405  1.0000
  C   C1697     1.0  0.35753  0.23630  0.87337  1.0000
  C   C1698     1.0  0.35972  0.23016  0.86503  1.0000
  C   C1699     1.0  0.36398  0.21863  0.86732  1.0000
  C   C1700     1.0  0.36563  0.21318  0.87802  1.0000
  C   C1701     1.0  0.36314  0.21924  0.88640  1.0000
  H   H2689     1.0  0.35433  0.24522  0.87159  1.0000
  H   H2690     1.0  0.35841  0.23439  0.85676  1.0000
  H   H2691     1.0  0.36887  0.20426  0.87986  1.0000
  H   H2692     1.0  0.36445  0.21490  0.89462  1.0000
  H   H2693     1.0  0.45832  0.03748  0.75272  1.0000
  H   H2694     1.0  0.61382  0.10841  0.78646  1.0000
  C   C1702     1.0  0.58882  0.24589  0.91470  1.0000
  C   C1703     1.0  0.36067  0.00502  0.77726  1.0000
  H   H2695     1.0  0.59701  0.19453  0.79428  1.0000
  S   S752      1.0  0.50073  0.13059  0.74480  1.0000
  H   H2696     1.0  0.40298  0.25403  0.89200  1.0000
  H   H2697     1.0  0.36811  0.01268  0.73932  1.0000
  H   H2698     1.0  0.35022  0.30854  0.86732  1.0000
  H   H2699     1.0  0.60765  0.23008  0.91801  1.0000
  C   C1704     1.0  0.38500  0.15544  0.82384  1.0000
  C   C1705     1.0  0.38349  0.16640  0.82532  1.0000
  C   C1706     1.0  0.38886  0.16870  0.83267  1.0000
  C   C1707     1.0  0.39557  0.16002  0.83890  1.0000
  C   C1708     1.0  0.39709  0.14908  0.83741  1.0000
  C   C1709     1.0  0.39188  0.14680  0.82992  1.0000
  H   H2700     1.0  0.37826  0.17317  0.82061  1.0000
  H   H2701     1.0  0.38799  0.17718  0.83342  1.0000
  H   H2702     1.0  0.40231  0.14229  0.84213  1.0000
  H   H2703     1.0  0.39300  0.13831  0.82904  1.0000
  C   C1710     1.0  0.43128  0.12373  0.77927  1.0000
  C   C1711     1.0  0.42768  0.11427  0.78625  1.0000
  C   C1712     1.0  0.43399  0.10364  0.78513  1.0000
  C   C1713     1.0  0.44374  0.10249  0.77683  1.0000
  C   C1714     1.0  0.44756  0.11195  0.77005  1.0000
  C   C1715     1.0  0.44142  0.12262  0.77142  1.0000
  H   H2704     1.0  0.41987  0.11507  0.79234  1.0000
  H   H2705     1.0  0.43094  0.09638  0.79032  1.0000
  H   H2706     1.0  0.45509  0.11106  0.76359  1.0000
  H   H2707     1.0  0.44419  0.12995  0.76599  1.0000
  C   C1716     1.0  0.38828  0.08875  0.79976  1.0000
  C   C1717     1.0  0.39373  0.07764  0.79932  1.0000
  C   C1718     1.0  0.38919  0.07096  0.79515  1.0000
  C   C1719     1.0  0.37899  0.07527  0.79162  1.0000
  C   C1720     1.0  0.37343  0.08632  0.79222  1.0000
  C   C1721     1.0  0.37810  0.09307  0.79619  1.0000
  H   H2708     1.0  0.40148  0.07420  0.80227  1.0000
  H   H2709     1.0  0.39351  0.06244  0.79479  1.0000
  H   H2710     1.0  0.36550  0.08972  0.78959  1.0000
  H   H2711     1.0  0.37374  0.10156  0.79665  1.0000
  H   H2712     1.0  0.53039  0.23363  0.86893  1.0000
  C   C1722     1.0  0.37228  0.13156  0.74856  1.0000
  C   C1723     1.0  0.36622  0.12605  0.74465  1.0000
  H   H2713     1.0  0.40300  0.23810  0.97000  1.0000
  C   C1724     1.0  0.42034  0.14113  0.73671  1.0000
  C   C1725     1.0  0.44496  0.21114  0.87213  1.0000
  C   C1726     1.0  0.44128  0.20125  0.87347  1.0000
  C   C1727     1.0  0.43331  0.20096  0.86768  1.0000
  C   C1728     1.0  0.42925  0.21047  0.86018  1.0000
  C   C1729     1.0  0.43283  0.22041  0.85892  1.0000
  C   C1730     1.0  0.44051  0.22080  0.86503  1.0000
  H   H2714     1.0  0.44476  0.19371  0.87886  1.0000
  H   H2715     1.0  0.43068  0.19325  0.86864  1.0000
  H   H2716     1.0  0.42984  0.22778  0.85307  1.0000
  H   H2717     1.0  0.44334  0.22844  0.86386  1.0000
  C   C1731     1.0  0.42490  0.26557  0.87754  1.0000
  C   C1732     1.0  0.42573  0.25737  0.87169  1.0000
  C   C1733     1.0  0.41656  0.25723  0.86741  1.0000
  C   C1734     1.0  0.40643  0.26509  0.86922  1.0000
  C   C1735     1.0  0.40556  0.27318  0.87520  1.0000
  C   C1736     1.0  0.41484  0.27353  0.87917  1.0000
  H   H2718     1.0  0.43348  0.25123  0.87034  1.0000
  H   H2719     1.0  0.41731  0.25096  0.86277  1.0000
  H   H2720     1.0  0.39782  0.27933  0.87656  1.0000
  H   H2721     1.0  0.41419  0.27996  0.88358  1.0000
  C   C1737     1.0  0.36125  0.24711  0.94131  1.0000
  C   C1738     1.0  0.35402  0.25164  0.93383  1.0000
  C   C1739     1.0  0.35590  0.26098  0.92536  1.0000
  C   C1740     1.0  0.36466  0.26613  0.92467  1.0000
  C   C1741     1.0  0.37127  0.26219  0.93273  1.0000
  C   C1742     1.0  0.36971  0.25255  0.94091  1.0000
  H   H2722     1.0  0.34729  0.24763  0.93426  1.0000
  H   H2723     1.0  0.35055  0.26415  0.91937  1.0000
  H   H2724     1.0  0.37792  0.26628  0.93235  1.0000
  H   H2725     1.0  0.37515  0.24924  0.94684  1.0000
  C   C1743     1.0  0.40299  0.19990  0.91677  1.0000
  C   C1744     1.0  0.40577  0.20211  0.90506  1.0000
  C   C1745     1.0  0.40274  0.19591  0.89908  1.0000
  C   C1746     1.0  0.39688  0.18743  0.90474  1.0000
  C   C1747     1.0  0.39403  0.18526  0.91645  1.0000
  C   C1748     1.0  0.39707  0.19147  0.92246  1.0000
  H   H2726     1.0  0.41023  0.20867  0.90052  1.0000
  H   H2727     1.0  0.40507  0.19760  0.89008  1.0000
  H   H2728     1.0  0.38956  0.17865  0.92088  1.0000
  H   H2729     1.0  0.39505  0.18957  0.93147  1.0000
  C   C1749     1.0  0.42343  0.24084  0.94036  1.0000
  C   C1750     1.0  0.42930  0.23045  0.94512  1.0000
  C   C1751     1.0  0.44009  0.22599  0.93962  1.0000
  C   C1752     1.0  0.44488  0.23181  0.92925  1.0000
  C   C1753     1.0  0.43917  0.24235  0.92463  1.0000
  C   C1754     1.0  0.42853  0.24698  0.93033  1.0000
  H   H2730     1.0  0.42548  0.22580  0.95301  1.0000
  H   H2731     1.0  0.44454  0.21786  0.94323  1.0000
  H   H2732     1.0  0.44288  0.24692  0.91663  1.0000
  H   H2733     1.0  0.42409  0.25511  0.92674  1.0000
  N   N166      1.0  0.63047  0.11008  0.77730  1.0000
  H   H2734     1.0  0.54388  0.08410  0.74771  1.0000
  N   N167      1.0  0.56480  0.09183  0.82100  1.0000
  C   C1755     1.0  0.54614  0.22045  0.90074  1.0000
  C   C1756     1.0  0.54346  0.22812  0.89121  1.0000
  C   C1757     1.0  0.54947  0.22642  0.88066  1.0000
  C   C1758     1.0  0.55809  0.21701  0.87972  1.0000
  C   C1759     1.0  0.56023  0.20895  0.88921  1.0000
  C   C1760     1.0  0.55412  0.21059  0.89975  1.0000
  H   H2735     1.0  0.53702  0.23555  0.89200  1.0000
  H   H2736     1.0  0.54793  0.23272  0.87332  1.0000
  H   H2737     1.0  0.56686  0.20161  0.88847  1.0000
  H   H2738     1.0  0.55608  0.20452  0.90709  1.0000
  C   C1761     1.0  0.57913  0.27128  0.89612  1.0000
  C   C1762     1.0  0.57404  0.27845  0.90354  1.0000
  C   C1763     1.0  0.58046  0.28464  0.90612  1.0000
  C   C1764     1.0  0.59207  0.28342  0.90160  1.0000
  C   C1765     1.0  0.59718  0.27607  0.89436  1.0000
  C   C1766     1.0  0.59069  0.27024  0.89144  1.0000
  H   H2739     1.0  0.56511  0.27948  0.90699  1.0000
  H   H2740     1.0  0.57642  0.29045  0.91156  1.0000
  H   H2741     1.0  0.60607  0.27515  0.89072  1.0000
  H   H2742     1.0  0.59468  0.26494  0.88549  1.0000
  C   C1767     1.0  0.50806  0.26420  0.88992  1.0000
  C   C1768     1.0  0.49797  0.26798  0.88604  1.0000
  C   C1769     1.0  0.49324  0.26054  0.88310  1.0000
  C   C1770     1.0  0.49872  0.24932  0.88380  1.0000
  C   C1771     1.0  0.50878  0.24558  0.88773  1.0000
  C   C1772     1.0  0.51333  0.25293  0.89091  1.0000
  H   H2743     1.0  0.49382  0.27669  0.88529  1.0000
  H   H2744     1.0  0.48555  0.26356  0.87998  1.0000
  H   H2745     1.0  0.51305  0.23694  0.88845  1.0000
  H   H2746     1.0  0.52096  0.24992  0.89410  1.0000
  C   C1773     1.0  0.60313  0.26178  0.95092  1.0000
  C   C1774     1.0  0.60490  0.27103  0.94239  1.0000
  C   C1775     1.0  0.61561  0.27339  0.93860  1.0000
  C   C1776     1.0  0.62454  0.26658  0.94335  1.0000
  C   C1777     1.0  0.62257  0.25798  0.95261  1.0000
  C   C1778     1.0  0.61181  0.25553  0.95637  1.0000
  H   H2747     1.0  0.59824  0.27591  0.93816  1.0000
  H   H2748     1.0  0.61704  0.28014  0.93155  1.0000
  H   H2749     1.0  0.62946  0.25272  0.95636  1.0000
  H   H2750     1.0  0.61031  0.24863  0.96326  1.0000
  C   C1779     1.0  0.61001  0.20459  0.92890  1.0000
  C   C1780     1.0  0.61474  0.20445  0.91761  1.0000
  C   C1781     1.0  0.60967  0.20029  0.91136  1.0000
  C   C1782     1.0  0.60014  0.19574  0.91653  1.0000
  C   C1783     1.0  0.59572  0.19545  0.92793  1.0000
  C   C1784     1.0  0.60044  0.20012  0.93403  1.0000
  H   H2751     1.0  0.62227  0.20771  0.91361  1.0000
  H   H2752     1.0  0.61325  0.20042  0.90261  1.0000
  H   H2753     1.0  0.58862  0.19157  0.93206  1.0000
  H   H2754     1.0  0.59687  0.19997  0.94278  1.0000
  C   C1785     1.0  0.55524  0.23107  0.95919  1.0000
  C   C1786     1.0  0.56001  0.23784  0.94944  1.0000
  C   C1787     1.0  0.55332  0.24729  0.94407  1.0000
  C   C1788     1.0  0.54184  0.25023  0.94856  1.0000
  C   C1789     1.0  0.53705  0.24367  0.95847  1.0000
  C   C1790     1.0  0.54372  0.23397  0.96368  1.0000
  H   H2755     1.0  0.56872  0.23552  0.94566  1.0000
  H   H2756     1.0  0.55709  0.25235  0.93649  1.0000
  H   H2757     1.0  0.52815  0.24589  0.96195  1.0000
  H   H2758     1.0  0.53995  0.22874  0.97119  1.0000
  H   H2759     1.0  0.55729  0.28692  0.95538  1.0000
  C   C1791     1.0  0.58814  0.00169  0.79415  1.0000
  H   H2760     1.0  0.60154  0.99874  0.75892  1.0000
  N   N168      1.0  0.52484  0.21932  0.86801  1.0000
  C   C1792     1.0  0.52159  0.21599  0.88028  1.0000
  C   C1793     1.0  0.52481  0.23140  0.86477  1.0000
  C   C1794     1.0  0.51668  0.21697  0.86291  1.0000
  C   C1795     1.0  0.53624  0.21294  0.86410  1.0000
  H   H2761     1.0  0.52183  0.20687  0.88302  1.0000
  H   H2762     1.0  0.51287  0.22038  0.88345  1.0000
  H   H2763     1.0  0.52768  0.23410  0.85561  1.0000
  H   H2764     1.0  0.51624  0.23649  0.86712  1.0000
  H   H2765     1.0  0.51641  0.20794  0.86519  1.0000
  H   H2766     1.0  0.51882  0.21941  0.85365  1.0000
  H   H2767     1.0  0.50799  0.22170  0.86572  1.0000
  H   H2768     1.0  0.54260  0.21454  0.86780  1.0000
  H   H2769     1.0  0.53901  0.21522  0.85489  1.0000
  H   H2770     1.0  0.53661  0.20378  0.86643  1.0000
  N   N169      1.0  0.48330  0.24442  0.91958  1.0000
  C   C1796     1.0  0.47129  0.24507  0.92500  1.0000
  C   C1797     1.0  0.49018  0.24084  0.92818  1.0000
  C   C1798     1.0  0.48493  0.25553  0.91289  1.0000
  C   C1799     1.0  0.48682  0.23627  0.91225  1.0000
  H   H2771     1.0  0.46978  0.23687  0.93030  1.0000
  H   H2772     1.0  0.46589  0.24746  0.91873  1.0000
  H   H2773     1.0  0.46825  0.25131  0.93041  1.0000
  H   H2774     1.0  0.49929  0.24036  0.92434  1.0000
  H   H2775     1.0  0.48774  0.24679  0.93388  1.0000
  H   H2776     1.0  0.48922  0.23244  0.93335  1.0000
  H   H2777     1.0  0.49395  0.25540  0.90897  1.0000
  H   H2778     1.0  0.48214  0.26197  0.91807  1.0000
  H   H2779     1.0  0.48014  0.25839  0.90608  1.0000
  H   H2780     1.0  0.49594  0.23526  0.90835  1.0000
  H   H2781     1.0  0.48219  0.23896  0.90533  1.0000
  H   H2782     1.0  0.48517  0.22791  0.91692  1.0000
  N   N170      1.0  0.48605  0.10070  0.77103  1.0000
  C   C1800     1.0  0.49169  0.11025  0.76793  1.0000
  C   C1801     1.0  0.49370  0.09051  0.77561  1.0000
  C   C1802     1.0  0.48319  0.09914  0.76107  1.0000
  C   C1803     1.0  0.47562  0.10292  0.77951  1.0000
  H   H2783     1.0  0.48621  0.11816  0.76448  1.0000
  H   H2784     1.0  0.49952  0.10891  0.76144  1.0000
  H   H2785     1.0  0.49417  0.11157  0.77520  1.0000
  H   H2786     1.0  0.49598  0.09140  0.78318  1.0000
  H   H2787     1.0  0.48982  0.08308  0.77794  1.0000
  H   H2788     1.0  0.50173  0.08875  0.76946  1.0000
  H   H2789     1.0  0.47902  0.09194  0.76305  1.0000
  H   H2790     1.0  0.49081  0.09767  0.75437  1.0000
  H   H2791     1.0  0.47731  0.10663  0.75753  1.0000
  H   H2792     1.0  0.47100  0.09600  0.78184  1.0000
  H   H2793     1.0  0.46978  0.11070  0.77636  1.0000
  H   H2794     1.0  0.47747  0.10396  0.78723  1.0000
  C   C1804     1.0  0.55267  0.09218  0.82555  1.0000
  C   C1805     1.0  0.56874  0.09875  0.82628  1.0000
  H   H2795     1.0  0.54763  0.10086  0.82384  1.0000
  H   H2796     1.0  0.54945  0.08697  0.82178  1.0000
  H   H2797     1.0  0.55092  0.08899  0.83473  1.0000
  H   H2798     1.0  0.56207  0.10507  0.80686  1.0000
  H   H2799     1.0  0.56392  0.10755  0.82496  1.0000
  H   H2800     1.0  0.56776  0.09553  0.83543  1.0000
  N   N171      1.0  0.43703  0.06042  0.79078  1.0000
  C   C1806     1.0  0.44161  0.04867  0.79560  1.0000
  C   C1807     1.0  0.42487  0.06190  0.79131  1.0000
  C   C1808     1.0  0.44297  0.06329  0.77906  1.0000
  C   C1809     1.0  0.43864  0.06784  0.79718  1.0000
  H   H2801     1.0  0.43737  0.04621  0.80447  1.0000
  H   H2802     1.0  0.45080  0.04721  0.79522  1.0000
  H   H2803     1.0  0.44038  0.04286  0.79101  1.0000
  H   H2804     1.0  0.42111  0.07067  0.78775  1.0000
  H   H2805     1.0  0.42331  0.05640  0.78663  1.0000
  H   H2806     1.0  0.42017  0.05976  0.80005  1.0000
  H   H2807     1.0  0.43911  0.07176  0.77485  1.0000
  H   H2808     1.0  0.44286  0.05727  0.77419  1.0000
  H   H2809     1.0  0.45197  0.06326  0.77841  1.0000
  H   H2810     1.0  0.44772  0.06703  0.79693  1.0000
  H   H2811     1.0  0.43423  0.06599  0.80606  1.0000
  H   H2812     1.0  0.43532  0.07675  0.79365  1.0000
  N   N172      1.0  0.40645  0.24905  0.90843  1.0000
  C   C1810     1.0  0.39440  0.25130  0.91385  1.0000
  C   C1811     1.0  0.40768  0.24685  0.89729  1.0000
  C   C1812     1.0  0.41255  0.23919  0.91527  1.0000
  C   C1813     1.0  0.41116  0.25887  0.90734  1.0000
  H   H2813     1.0  0.39324  0.25270  0.92239  1.0000
  H   H2814     1.0  0.39041  0.24425  0.91455  1.0000
  H   H2815     1.0  0.38962  0.25893  0.90909  1.0000
  H   H2816     1.0  0.41666  0.24540  0.89286  1.0000
  H   H2817     1.0  0.40438  0.23938  0.89781  1.0000
  H   H2818     1.0  0.42174  0.23756  0.91163  1.0000
  H   H2819     1.0  0.40946  0.23154  0.91600  1.0000
  H   H2820     1.0  0.41148  0.24041  0.92386  1.0000
  H   H2821     1.0  0.42028  0.25750  0.90336  1.0000
  H   H2822     1.0  0.41019  0.26084  0.91560  1.0000
  N   N173      1.0  0.44164  0.20125  0.91264  1.0000
  C   C1814     1.0  0.45388  0.19945  0.90799  1.0000
  C   C1815     1.0  0.43554  0.20597  0.90344  1.0000
  C   C1816     1.0  0.43857  0.20908  0.92026  1.0000
  C   C1817     1.0  0.43857  0.19050  0.91882  1.0000
  H   H2823     1.0  0.45881  0.19573  0.91464  1.0000
  H   H2824     1.0  0.45643  0.20745  0.90341  1.0000
  H   H2825     1.0  0.45645  0.19386  0.90191  1.0000
  H   H2826     1.0  0.42634  0.20779  0.90662  1.0000
  H   H2827     1.0  0.43788  0.21389  0.89834  1.0000
  H   H2828     1.0  0.43742  0.20015  0.89770  1.0000
  H   H2829     1.0  0.42945  0.21042  0.92417  1.0000
  H   H2830     1.0  0.44047  0.21738  0.91579  1.0000
  H   H2831     1.0  0.44332  0.20597  0.92709  1.0000
  H   H2832     1.0  0.42933  0.19160  0.92229  1.0000
  H   H2833     1.0  0.44291  0.18673  0.92592  1.0000
  H   H2834     1.0  0.44082  0.18439  0.91331  1.0000
  N   N174      1.0  0.36829  0.21731  0.92127  1.0000
  C   C1818     1.0  0.37241  0.20977  0.93104  1.0000
  C   C1819     1.0  0.36469  0.22882  0.92315  1.0000
  C   C1820     1.0  0.35861  0.21378  0.91973  1.0000
  C   C1821     1.0  0.37740  0.21688  0.91122  1.0000
  H   H2835     1.0  0.36604  0.21055  0.93892  1.0000
  H   H2836     1.0  0.38018  0.21173  0.93197  1.0000
  H   H2837     1.0  0.37444  0.20090  0.93029  1.0000
  H   H2838     1.0  0.36190  0.23488  0.91582  1.0000
  H   H2839     1.0  0.35749  0.22947  0.93038  1.0000
  H   H2840     1.0  0.37159  0.23160  0.92493  1.0000
  H   H2841     1.0  0.35496  0.21961  0.91275  1.0000
  H   H2842     1.0  0.35177  0.21364  0.92734  1.0000
  H   H2843     1.0  0.36113  0.20529  0.91782  1.0000
  H   H2844     1.0  0.37468  0.22271  0.90375  1.0000
  H   H2845     1.0  0.38010  0.20836  0.90937  1.0000
  H   H2846     1.0  0.38491  0.21924  0.91224  1.0000
  N   N175      1.0  0.39281  0.23758  0.85293  1.0000
  C   C1822     1.0  0.39163  0.22866  0.84812  1.0000
  C   C1823     1.0  0.38334  0.24722  0.85139  1.0000
  C   C1824     1.0  0.40356  0.24106  0.84725  1.0000
  C   C1825     1.0  0.39269  0.23336  0.86495  1.0000
  H   H2847     1.0  0.39858  0.22122  0.84916  1.0000
  H   H2848     1.0  0.39175  0.23150  0.83905  1.0000
  H   H2849     1.0  0.38363  0.22583  0.85222  1.0000
  H   H2850     1.0  0.37513  0.24491  0.85572  1.0000
  H   H2851     1.0  0.38398  0.25416  0.85483  1.0000
  H   H2852     1.0  0.38313  0.25056  0.84243  1.0000
  H   H2853     1.0  0.40476  0.24774  0.85074  1.0000
  H   H2854     1.0  0.40397  0.24433  0.83817  1.0000
  H   H2855     1.0  0.41086  0.23394  0.84822  1.0000
  H   H2856     1.0  0.39340  0.23997  0.86885  1.0000
  H   H2857     1.0  0.39985  0.22617  0.86636  1.0000
  H   H2858     1.0  0.38475  0.23049  0.86949  1.0000
  C   C1826     1.0  0.62654  0.11955  0.76863  1.0000
  C   C1827     1.0  0.63270  0.11440  0.78606  1.0000
  H   H2859     1.0  0.63284  0.12492  0.76478  1.0000
  H   H2860     1.0  0.61858  0.12489  0.77218  1.0000
  H   H2861     1.0  0.63943  0.11930  0.78267  1.0000
  H   H2862     1.0  0.62502  0.11996  0.78988  1.0000
  H   H2863     1.0  0.63530  0.10749  0.79296  1.0000
  H   H2864     1.0  0.55032  0.27453  0.93534  1.0000
  H   H2865     1.0  0.57870  0.23398  0.85706  1.0000
  H   H2866     1.0  0.35367  0.30677  0.88846  1.0000
  H   H2867     1.0  0.62449  0.09603  0.78871  1.0000
  H   H2868     1.0  0.56356  0.09131  0.80463  1.0000
  C   C1828     1.0  0.64090  0.10299  0.77226  1.0000
  H   H2869     1.0  0.36224  0.18820  0.86629  1.0000
  H   H2870     1.0  0.41776  0.16961  0.80833  1.0000
  C   C1829     1.0  0.58326  0.24056  0.85654  1.0000
  H   H2871     1.0  0.57084  0.24606  0.88222  1.0000
  H   H2872     1.0  0.57779  0.09900  0.82275  1.0000
  C   C1830     1.0  0.62171  0.10340  0.78230  1.0000
  H   H2873     1.0  0.64412  0.09580  0.77860  1.0000
  H   H2874     1.0  0.36952  0.02246  0.74654  1.0000
  H   H2875     1.0  0.37906  0.10359  0.77274  1.0000
  H   H2876     1.0  0.58968  0.24407  0.92353  1.0000
  H   H2877     1.0  0.57972  0.24887  0.91451  1.0000
  H   H2878     1.0  0.63945  0.09952  0.76569  1.0000
  H   H2879     1.0  0.61961  0.10023  0.77591  1.0000
  H   H2880     1.0  0.56974  0.07651  0.83242  1.0000
  C   C1831     1.0  0.57115  0.08017  0.82332  1.0000
  H   H2881     1.0  0.56853  0.07476  0.81930  1.0000
  H   H2882     1.0  0.57568  0.09606  0.80508  1.0000
  H   H2883     1.0  0.56085  0.24694  0.86301  1.0000
  H   H2884     1.0  0.33711  0.08353  0.78128  1.0000
  C   C1832     1.0  0.39242  0.08552  0.76533  1.0000
  C   C1833     1.0  0.57590  0.24098  0.87599  1.0000
  H   H2885     1.0  0.56676  0.10459  0.75755  1.0000
  H   H2886     1.0  0.58994  0.22409  0.92494  1.0000
  N   N176      1.0  0.57713  0.24781  0.86455  1.0000
  C   C1834     1.0  0.58836  0.22664  0.91632  1.0000
  H   H2887     1.0  0.57909  0.22897  0.91693  1.0000
  C   C1835     1.0  0.56586  0.25325  0.86221  1.0000
  H   H2888     1.0  0.57162  0.23406  0.87693  1.0000
  C   C1836     1.0  0.57552  0.10391  0.75825  1.0000
  H   H2889     1.0  0.58091  0.10344  0.74986  1.0000
  H   H2890     1.0  0.58036  0.07959  0.82019  1.0000
  N   N177      1.0  0.59379  0.23597  0.90967  1.0000
  H   H2891     1.0  0.58447  0.24542  0.84781  1.0000
  C   C1837     1.0  0.36486  0.99402  0.77571  1.0000
  H   H2892     1.0  0.56643  0.25847  0.85363  1.0000
  C   C1838     1.0  0.58353  0.25638  0.86354  1.0000
  C   C1839     1.0  0.41211  0.06256  0.73652  1.0000
  H   H2893     1.0  0.34966  0.18287  0.86954  1.0000
  H   H2894     1.0  0.56116  0.11374  0.77436  1.0000
  H   H2895     1.0  0.57805  0.09584  0.76395  1.0000
  H   H2896     1.0  0.59205  0.25249  0.86537  1.0000
  H   H2897     1.0  0.59579  0.24568  0.89294  1.0000
  H   H2898     1.0  0.59163  0.21918  0.91247  1.0000
  C   C1840     1.0  0.35508  0.18794  0.86288  1.0000
  C   C1841     1.0  0.38735  0.00973  0.75485  1.0000
  C   C1842     1.0  0.57212  0.12400  0.75493  1.0000
  C   C1843     1.0  0.59201  0.23854  0.89816  1.0000
  C   C1844     1.0  0.60598  0.23277  0.90944  1.0000
  C   C1845     1.0  0.57402  0.27965  0.93913  1.0000
  H   H2899     1.0  0.55769  0.07830  0.74089  1.0000
  C   C1846     1.0  0.65955  0.30643  0.89660  1.0000
  C   C1847     1.0  0.49540  0.12211  0.73932  1.0000
  H   H2900     1.0  0.56103  0.25877  0.86815  1.0000
  N   N178      1.0  0.57663  0.11345  0.76216  1.0000
  C   C1848     1.0  0.57027  0.11311  0.77376  1.0000
  H   H2901     1.0  0.57249  0.13141  0.75781  1.0000
  H   H2902     1.0  0.59594  0.23130  0.89404  1.0000
  H   H2903     1.0  0.58290  0.24074  0.89802  1.0000
  H   H2904     1.0  0.62164  0.32228  0.89580  1.0000
  H   H2905     1.0  0.57032  0.19733  0.92484  1.0000
  H   H2906     1.0  0.57336  0.10522  0.77943  1.0000
  H   H2907     1.0  0.61025  0.23982  0.90491  1.0000
  H   H2908     1.0  0.40564  0.15300  0.75100  1.0000
  H   H2909     1.0  0.58671  0.00432  0.76281  1.0000
  H   H2910     1.0  0.35497  0.04802  0.75206  1.0000
  H   H2911     1.0  0.41883  0.14817  0.75555  1.0000
  H   H2912     1.0  0.54999  0.22273  0.93224  1.0000
  H   H2913     1.0  0.64133  0.28812  0.93717  1.0000
  N   N179      1.0  0.35903  0.18335  0.85265  1.0000
  H   H2914     1.0  0.35190  0.17989  0.84063  1.0000
  H   H2915     1.0  0.36620  0.00928  0.75415  1.0000
  H   H2916     1.0  0.59912  0.02641  0.81549  1.0000
  H   H2917     1.0  0.57098  0.12016  0.77700  1.0000
  S   S753      1.0  0.45354  0.05916  0.73871  1.0000
  H   H2918     1.0  0.61010  0.22574  0.90510  1.0000
  H   H2919     1.0  0.42698  0.13878  0.81310  1.0000
  H   H2920     1.0  0.59511  0.08593  0.74300  1.0000
  C   C1849     1.0  0.40504  0.09810  0.75628  1.0000
  H   H2921     1.0  0.40996  0.09476  0.76297  1.0000
  H   H2922     1.0  0.40912  0.09339  0.74950  1.0000
  C   C1850     1.0  0.37963  0.99234  0.78545  1.0000
  C   C1851     1.0  0.36619  0.19038  0.84412  1.0000
  H   H2923     1.0  0.34363  0.17807  0.85459  1.0000
  H   H2924     1.0  0.36167  0.19927  0.84238  1.0000
  H   H2925     1.0  0.40681  0.14249  0.76341  1.0000
  H   H2926     1.0  0.36146  0.29884  0.89897  1.0000
  H   H2927     1.0  0.56202  0.22241  0.93739  1.0000
  C   C1852     1.0  0.55515  0.21801  0.93851  1.0000
  H   H2928     1.0  0.40658  0.12716  0.74233  1.0000
  C   C1853     1.0  0.34922  0.18330  0.84837  1.0000
  H   H2929     1.0  0.34410  0.19189  0.84634  1.0000
  H   H2930     1.0  0.57420  0.28769  0.93298  1.0000
  H   H2931     1.0  0.54968  0.21853  0.94689  1.0000
  H   H2932     1.0  0.56079  0.20048  0.95465  1.0000
  H   H2933     1.0  0.36892  0.18748  0.83612  1.0000
  H   H2934     1.0  0.58470  0.26167  0.85499  1.0000
  C   C1854     1.0  0.37074  0.13111  0.76002  1.0000
  C   C1855     1.0  0.35829  0.12032  0.75217  1.0000
  H   H2935     1.0  0.55433  0.29440  0.94199  1.0000
  H   H2936     1.0  0.35307  0.06417  0.76241  1.0000
  H   H2937     1.0  0.58017  0.27300  0.93517  1.0000
  S   S754      1.0  0.37804  0.13876  0.76445  1.0000
  H   H2938     1.0  0.55853  0.28437  0.92661  1.0000
  H   H2939     1.0  0.35260  0.29757  0.91885  1.0000
  H   H2940     1.0  0.40585  0.10692  0.75277  1.0000
  C   C1856     1.0  0.55033  0.20083  0.93860  1.0000
  C   C1857     1.0  0.56617  0.20038  0.94615  1.0000
  N   N180      1.0  0.55971  0.20629  0.93738  1.0000
  H   H2941     1.0  0.55347  0.19195  0.93784  1.0000
  H   H2942     1.0  0.56110  0.07898  0.76878  1.0000
  H   H2943     1.0  0.65713  0.27782  0.92509  1.0000
  H   H2944     1.0  0.57321  0.20442  0.94559  1.0000
  C   C1858     1.0  0.57987  0.99226  0.75242  1.0000
  H   H2945     1.0  0.37388  0.19029  0.84692  1.0000
  C   C1859     1.0  0.35686  0.11974  0.76364  1.0000
  H   H2946     1.0  0.56584  0.26669  0.95837  1.0000
  S   S755      1.0  0.34955  0.11432  0.74761  1.0000
  Fe  Fe382     1.0  0.43867  0.10026  0.73636  1.0000
  C   C1860     1.0  0.55848  0.08141  0.76063  1.0000
  H   H2947     1.0  0.57055  0.06394  0.75177  1.0000
  C   C1861     1.0  0.35743  0.07071  0.76249  1.0000
  H   H2948     1.0  0.42327  0.23336  0.98065  1.0000
  C   C1862     1.0  0.34164  0.31235  0.87063  1.0000
  H   H2949     1.0  0.63927  0.30513  0.87527  1.0000
  H   H2950     1.0  0.57462  0.20954  0.92527  1.0000
  C   C1863     1.0  0.56305  0.06236  0.75847  1.0000
  H   H2951     1.0  0.59737  0.15415  0.73741  1.0000
  C   C1864     1.0  0.34004  0.29609  0.90542  1.0000
  N   N181      1.0  0.55410  0.07256  0.75869  1.0000
  H   H2952     1.0  0.36732  0.12665  0.73580  1.0000
  H   H2953     1.0  0.41023  0.26343  0.97336  1.0000
  H   H2954     1.0  0.39040  0.09679  0.74472  1.0000
  C   C1865     1.0  0.59695  0.18461  0.81581  1.0000
  H   H2955     1.0  0.62676  0.24176  0.91694  1.0000
  H   H2956     1.0  0.42505  0.15743  0.81657  1.0000
  Fe  Fe383     1.0  0.45251  0.07684  0.73954  1.0000
  C   C1866     1.0  0.55054  0.07632  0.74788  1.0000
  C   C1867     1.0  0.62490  0.31559  0.89091  1.0000
  H   H2957     1.0  0.64613  0.30071  0.93005  1.0000
  H   H2958     1.0  0.40064  0.12896  0.75635  1.0000
  H   H2959     1.0  0.54680  0.06734  0.77603  1.0000
  S   S756      1.0  0.58371  0.23095  0.97462  1.0000
  H   H2960     1.0  0.36820  0.16789  0.84777  1.0000
  C   C1868     1.0  0.60274  0.18622  0.79584  1.0000
  C   C1869     1.0  0.41978  0.14224  0.80881  1.0000
  C   C1870     1.0  0.54437  0.07022  0.76776  1.0000
  H   H2961     1.0  0.35020  0.19669  0.86123  1.0000
  H   H2962     1.0  0.36368  0.06675  0.76787  1.0000
  C   C1871     1.0  0.34325  0.07648  0.77797  1.0000
  C   C1872     1.0  0.40458  0.13312  0.74792  1.0000
  C   C1873     1.0  0.41137  0.14551  0.75479  1.0000
  H   H2963     1.0  0.36139  0.08551  0.77209  1.0000
  H   H2964     1.0  0.36066  0.16637  0.86199  1.0000
  H   H2965     1.0  0.60468  0.02379  0.82775  1.0000
  N   N182      1.0  0.59826  0.17914  0.80649  1.0000
  H   H2966     1.0  0.63765  0.22547  0.89262  1.0000
  H   H2967     1.0  0.62604  0.21890  0.88362  1.0000
  C   C1874     1.0  0.60613  0.16822  0.80812  1.0000
  C   C1875     1.0  0.58720  0.17744  0.80616  1.0000
  C   C1876     1.0  0.33573  0.31621  0.90240  1.0000
  C   C1877     1.0  0.38309  0.04595  0.74172  1.0000
  H   H2968     1.0  0.61837  0.31049  0.89293  1.0000
  H   H2969     1.0  0.60378  0.18225  0.78867  1.0000
  H   H2970     1.0  0.58362  0.17204  0.81406  1.0000
  N   N183      1.0  0.38343  0.00839  0.74540  1.0000
  H   H2971     1.0  0.57318  0.99944  0.75484  1.0000
  H   H2972     1.0  0.53752  0.07782  0.76823  1.0000
  H   H2973     1.0  0.39808  0.14033  0.74489  1.0000
  H   H2974     1.0  0.37326  0.03616  0.75544  1.0000
  H   H2975     1.0  0.58788  0.17331  0.79922  1.0000
  H   H2976     1.0  0.59135  0.19303  0.81469  1.0000
  S   S757      1.0  0.62425  0.09816  0.75299  1.0000
  C   C1878     1.0  0.66655  0.31897  0.90820  1.0000
  C   C1879     1.0  0.58864  0.11275  0.76168  1.0000
  H   H2977     1.0  0.62711  0.23905  0.94197  1.0000
  H   H2978     1.0  0.65524  0.23275  0.92320  1.0000
  S   S758      1.0  0.56636  0.99367  0.78030  1.0000
  C   C1880     1.0  0.36272  0.04995  0.74664  1.0000
  H   H2979     1.0  0.34937  0.31253  0.91667  1.0000
  H   H2980     1.0  0.55438  0.26438  0.95395  1.0000
  H   H2981     1.0  0.59523  0.99742  0.79802  1.0000
  H   H2982     1.0  0.33655  0.07900  0.75876  1.0000
  C   C1881     1.0  0.62826  0.23346  0.92264  1.0000
  H   H2983     1.0  0.62998  0.22702  0.91758  1.0000
  H   H2984     1.0  0.65000  0.22838  0.91350  1.0000
  H   H2985     1.0  0.62032  0.23267  0.92893  1.0000
  H   H2986     1.0  0.36214  0.07325  0.75384  1.0000
  C   C1882     1.0  0.56287  0.26647  0.95094  1.0000
  H   H2987     1.0  0.55206  0.08930  0.76051  1.0000
  H   H2988     1.0  0.62500  0.02248  0.82601  1.0000
  C   C1883     1.0  0.48381  0.12438  0.73958  1.0000
  C   C1884     1.0  0.60795  0.09144  0.74722  1.0000
  C   C1885     1.0  0.41800  0.16059  0.81205  1.0000
  H   H2989     1.0  0.59369  0.11295  0.75302  1.0000
  H   H2990     1.0  0.40365  0.23053  0.98388  1.0000
  H   H2991     1.0  0.42079  0.13714  0.80258  1.0000
  H   H2992     1.0  0.39615  0.26134  0.97566  1.0000
  H   H2993     1.0  0.41198  0.14096  0.81514  1.0000
  N   N184      1.0  0.41921  0.15417  0.80350  1.0000
  H   H2994     1.0  0.58984  0.11982  0.76457  1.0000
  H   H2995     1.0  0.35816  0.31381  0.89651  1.0000
  C   C1886     1.0  0.40156  0.23903  0.97874  1.0000
  Fe  Fe384     1.0  0.62470  0.11083  0.73696  1.0000
  C   C1887     1.0  0.34621  0.30522  0.91645  1.0000
  H   H2996     1.0  0.61438  0.16904  0.80909  1.0000
  C   C1888     1.0  0.64784  0.23405  0.91945  1.0000
  H   H2997     1.0  0.64164  0.23986  0.93933  1.0000
  C   C1889     1.0  0.63467  0.24034  0.93527  1.0000
  N   N185      1.0  0.63768  0.23213  0.92807  1.0000
  H   H2998     1.0  0.63417  0.02418  0.81245  1.0000
  C   C1890     1.0  0.40942  0.15842  0.79810  1.0000
  H   H2999     1.0  0.40495  0.05823  0.74010  1.0000
  H   H3000     1.0  0.60268  0.16243  0.81571  1.0000
  H   H3001     1.0  0.62509  0.30617  0.87425  1.0000
  H   H3002     1.0  0.60774  0.16413  0.80096  1.0000
  H   H3003     1.0  0.33837  0.30481  0.92298  1.0000
  C   C1891     1.0  0.62546  0.02684  0.81713  1.0000
  H   H3004     1.0  0.33856  0.07006  0.77833  1.0000
  C   C1892     1.0  0.34119  0.08522  0.75909  1.0000
  H   H3005     1.0  0.40856  0.16745  0.79419  1.0000
  H   H3006     1.0  0.42947  0.16433  0.79078  1.0000
  H   H3007     1.0  0.59233  0.10482  0.76695  1.0000
  C   C1893     1.0  0.65591  0.31610  0.91183  1.0000
  C   C1894     1.0  0.61751  0.16379  0.74962  1.0000
  H   H3008     1.0  0.64172  0.21428  0.92987  1.0000
  C   C1895     1.0  0.63988  0.22073  0.93494  1.0000
  H   H3009     1.0  0.60996  0.09674  0.73912  1.0000
  H   H3010     1.0  0.40142  0.15734  0.80419  1.0000
  H   H3011     1.0  0.35321  0.00993  0.77425  1.0000
  H   H3012     1.0  0.60382  0.03727  0.81855  1.0000
  H   H3013     1.0  0.41893  0.04022  0.74025  1.0000
  H   H3014     1.0  0.56010  0.05545  0.75703  1.0000
  H   H3015     1.0  0.38278  0.00559  0.76294  1.0000
  N   N186      1.0  0.34931  0.08031  0.76649  1.0000
  C   C1896     1.0  0.60567  0.02814  0.81884  1.0000
  C   C1897     1.0  0.40521  0.25764  0.97287  1.0000
  H   H3016     1.0  0.60520  0.18555  0.81670  1.0000
  C   C1898     1.0  0.59954  0.08533  0.74942  1.0000
  H   H3017     1.0  0.36182  0.12465  0.77640  1.0000
  H   H3018     1.0  0.64462  0.32088  0.87916  1.0000
  N   N187      1.0  0.61707  0.02441  0.81239  1.0000
  N   N188      1.0  0.56263  0.27718  0.94273  1.0000
  S   S759      1.0  0.34982  0.06911  0.73723  1.0000
  C   C1899     1.0  0.64707  0.29347  0.93713  1.0000
  H   H3019     1.0  0.61632  0.03964  0.79995  1.0000
  H   H3020     1.0  0.62760  0.00917  0.80808  1.0000
  C   C1900     1.0  0.61911  0.01229  0.81291  1.0000
  C   C1901     1.0  0.42964  0.15545  0.79504  1.0000
  C   C1902     1.0  0.58263  0.99552  0.79039  1.0000
  S   S760      1.0  0.39594  0.03859  0.74506  1.0000
  H   H3021     1.0  0.56594  0.08328  0.75402  1.0000
  C   C1903     1.0  0.42566  0.04507  0.73643  1.0000
  H   H3022     1.0  0.54719  0.06988  0.74606  1.0000
  H   H3023     1.0  0.63267  0.24900  0.93040  1.0000
  C   C1904     1.0  0.61795  0.03045  0.80065  1.0000
  H   H3024     1.0  0.43719  0.15236  0.79885  1.0000
  S   S761      1.0  0.33683  0.29146  0.87505  1.0000
  H   H3025     1.0  0.62646  0.02793  0.79553  1.0000
  H   H3026     1.0  0.43085  0.15064  0.78849  1.0000
  H   H3027     1.0  0.61845  0.00746  0.82165  1.0000
  S   S762      1.0  0.55771  0.10265  0.73760  1.0000
  H   H3028     1.0  0.34552  0.08824  0.75039  1.0000
  H   H3029     1.0  0.56603  0.05940  0.76645  1.0000
  N   N189      1.0  0.40846  0.24638  0.97968  1.0000
  H   H3030     1.0  0.61281  0.01031  0.80937  1.0000
  H   H3031     1.0  0.66245  0.29022  0.91824  1.0000
  S   S763      1.0  0.65544  0.29866  0.88904  1.0000
  H   H3032     1.0  0.61112  0.18759  0.79579  1.0000
  H   H3033     1.0  0.62232  0.22454  0.98393  1.0000
  C   C1905     1.0  0.44549  0.05246  0.75081  1.0000
  C   C1906     1.0  0.59304  0.99699  0.76024  1.0000
  C   C1907     1.0  0.66262  0.28318  0.92560  1.0000
  H   H3034     1.0  0.41876  0.12379  0.76225  1.0000
  H   H3035     1.0  0.43042  0.12949  0.75343  1.0000
  H   H3036     1.0  0.38743  0.11053  0.74752  1.0000
  H   H3037     1.0  0.60067  0.00642  0.73895  1.0000
  H   H3038     1.0  0.33880  0.29616  0.89705  1.0000
  S   S764      1.0  0.53380  0.12968  0.74361  1.0000
  H   H3039     1.0  0.65675  0.28030  0.95376  1.0000
  H   H3040     1.0  0.66579  0.30198  0.92920  1.0000
  C   C1908     1.0  0.35538  0.08882  0.76641  1.0000
  H   H3041     1.0  0.40655  0.25735  0.96392  1.0000
  H   H3042     1.0  0.39648  0.00606  0.75435  1.0000
  H   H3043     1.0  0.63404  0.31424  0.86355  1.0000
  C   C1909     1.0  0.42254  0.12711  0.75342  1.0000
  H   H3044     1.0  0.65421  0.27183  0.94579  1.0000
  H   H3045     1.0  0.64398  0.29671  0.94496  1.0000
  S   S765      1.0  0.61118  0.12619  0.73721  1.0000
  C   C1910     1.0  0.47928  0.11776  0.73533  1.0000
  N   N190      1.0  0.59123  0.99460  0.75015  1.0000
  H   H3046     1.0  0.36020  0.09175  0.75792  1.0000
  H   H3047     1.0  0.63242  0.31014  0.89397  1.0000
  C   C1911     1.0  0.37130  0.01344  0.74639  1.0000
  N   N191      1.0  0.65886  0.28721  0.93615  1.0000
  H   H3048     1.0  0.41828  0.20479  0.97603  1.0000
  H   H3049     1.0  0.38605  0.01866  0.75512  1.0000
  H   H3050     1.0  0.39241  0.24234  0.98153  1.0000
  N   N192      1.0  0.62781  0.32025  0.87883  1.0000
  H   H3051     1.0  0.38052  0.99191  0.75337  1.0000
  H   H3052     1.0  0.41484  0.06387  0.74363  1.0000
  H   H3053     1.0  0.42497  0.12015  0.74891  1.0000
  H   H3054     1.0  0.62138  0.17007  0.74338  1.0000
  H   H3055     1.0  0.58585  0.01192  0.74294  1.0000
  C   C1912     1.0  0.42048  0.24176  0.97557  1.0000
  H   H3056     1.0  0.34945  0.09630  0.76911  1.0000
  H   H3057     1.0  0.42796  0.14406  0.73663  1.0000
  H   H3058     1.0  0.42594  0.24717  0.97598  1.0000
  C   C1913     1.0  0.63170  0.31106  0.87270  1.0000
  N   N193      1.0  0.34420  0.30598  0.90531  1.0000
  C   C1914     1.0  0.59220  0.00439  0.74087  1.0000
  H   H3059     1.0  0.65032  0.31874  0.91915  1.0000
  C   C1915     1.0  0.66613  0.29461  0.93626  1.0000
  H   H3060     1.0  0.38237  0.99501  0.73851  1.0000
  S   S766      1.0  0.39551  0.20147  0.98358  1.0000
  H   H3061     1.0  0.66351  0.29787  0.94407  1.0000
  H   H3062     1.0  0.61074  0.32342  0.87689  1.0000
  H   H3063     1.0  0.33494  0.09252  0.76180  1.0000
  C   C1916     1.0  0.41485  0.20732  0.98394  1.0000
  H   H3064     1.0  0.47038  0.11966  0.73544  1.0000
  H   H3065     1.0  0.64571  0.37746  0.13368  1.0000
  H   H3066     1.0  0.66388  0.38316  0.12375  1.0000
  H   H3067     1.0  0.37443  0.33738  0.06400  1.0000
  H   H3068     1.0  0.34895  0.33447  0.10386  1.0000
  H   H3069     1.0  0.64372  0.37545  0.12091  1.0000
  H   H3070     1.0  0.64347  0.36427  0.13300  1.0000
  N   N194      1.0  0.65992  0.36737  0.12476  1.0000
  H   H3071     1.0  0.36028  0.34133  0.07157  1.0000
  C   C1917     1.0  0.66209  0.35925  0.11758  1.0000
  H   H3072     1.0  0.65629  0.64743  0.12986  1.0000
  C   C1918     1.0  0.66105  0.65190  0.13245  1.0000
  H   H3073     1.0  0.35054  0.32459  0.06489  1.0000
  H   H3074     1.0  0.66111  0.35452  0.13959  1.0000
  H   H3075     1.0  0.65827  0.35189  0.12205  1.0000
  C   C1919     1.0  0.66475  0.36190  0.13473  1.0000
  H   H3076     1.0  0.65866  0.36304  0.10990  1.0000
  C   C1920     1.0  0.66447  0.32378  0.12900  1.0000
  C   C1921     1.0  0.66517  0.37696  0.11853  1.0000
  H   H3077     1.0  0.34794  0.32800  0.07826  1.0000
  C   C1922     1.0  0.64765  0.37133  0.12824  1.0000
  H   H3078     1.0  0.36451  0.32583  0.08707  1.0000
  C   C1923     1.0  0.34313  0.33107  0.10147  1.0000
  C   C1924     1.0  0.36573  0.33593  0.06573  1.0000
  H   H3079     1.0  0.36269  0.33887  0.05778  1.0000
  H   H3080     1.0  0.66172  0.38134  0.11095  1.0000
  H   H3081     1.0  0.66336  0.36774  0.14036  1.0000
  N   N195      1.0  0.36543  0.32404  0.07049  1.0000
  C   C1925     1.0  0.62690  0.65156  0.90733  1.0000
  H   H3082     1.0  0.61960  0.33147  0.86607  1.0000
  H   H3083     1.0  0.60951  0.63676  0.92744  1.0000
  C   C1926     1.0  0.36653  0.64053  0.90067  1.0000
  H   H3084     1.0  0.61218  0.65259  0.93376  1.0000
  C   C1927     1.0  0.61661  0.63817  0.92022  1.0000
  N   N196      1.0  0.37234  0.64974  0.89449  1.0000
  H   H3085     1.0  0.38880  0.63907  0.89340  1.0000
  H   H3086     1.0  0.62720  0.64865  0.92892  1.0000
  C   C1928     1.0  0.61775  0.32787  0.87517  1.0000
  H   H3087     1.0  0.63928  0.33012  0.86753  1.0000
  H   H3088     1.0  0.35817  0.64368  0.90575  1.0000
  C   C1929     1.0  0.61922  0.65354  0.92637  1.0000
  H   H3089     1.0  0.37147  0.63430  0.90650  1.0000
  C   C1930     1.0  0.65642  0.64103  0.92610  1.0000
  H   H3090     1.0  0.61462  0.33493  0.87959  1.0000
  C   C1931     1.0  0.66455  0.63349  0.92028  1.0000
  H   H3091     1.0  0.66530  0.64919  0.89398  1.0000
  H   H3092     1.0  0.63431  0.33334  0.88119  1.0000
  H   H3093     1.0  0.38244  0.64090  0.88176  1.0000
  H   H3094     1.0  0.37929  0.64971  0.90828  1.0000
  C   C1932     1.0  0.65167  0.65159  0.92040  1.0000
  C   C1933     1.0  0.38339  0.64521  0.88793  1.0000
  H   H3095     1.0  0.34468  0.32909  0.86585  1.0000
  H   H3096     1.0  0.63503  0.64644  0.90940  1.0000
  H   H3097     1.0  0.61525  0.63524  0.91326  1.0000
  H   H3098     1.0  0.36499  0.63609  0.89493  1.0000
  H   H3099     1.0  0.33862  0.32387  0.90210  1.0000
  H   H3100     1.0  0.62448  0.63277  0.92269  1.0000
  H   H3101     1.0  0.59945  0.65620  0.92090  1.0000
  C   C1934     1.0  0.66283  0.64694  0.90296  1.0000
  H   H3102     1.0  0.65402  0.63880  0.93510  1.0000
  N   N197      1.0  0.61737  0.65005  0.91691  1.0000
  H   H3103     1.0  0.38802  0.65197  0.88326  1.0000
  H   H3104     1.0  0.60501  0.65453  0.90672  1.0000
  C   C1935     1.0  0.65495  0.65460  0.90881  1.0000
  H   H3105     1.0  0.62577  0.64915  0.89996  1.0000
  C   C1936     1.0  0.63687  0.32645  0.87656  1.0000
  H   H3106     1.0  0.36374  0.65370  0.88094  1.0000
  C   C1937     1.0  0.33848  0.32398  0.86975  1.0000
  C   C1938     1.0  0.37402  0.65546  0.90247  1.0000
  C   C1939     1.0  0.60677  0.65695  0.91377  1.0000
  H   H3107     1.0  0.65031  0.69293  0.09208  1.0000
  H   H3108     1.0  0.52195  0.71188  0.13925  1.0000
  H   H3109     1.0  0.36702  0.70173  0.07394  1.0000
  N   N198      1.0  0.37982  0.70379  0.08114  1.0000
  C   C1940     1.0  0.44952  0.94746  0.21831  1.0000
  S   S767      1.0  0.40656  0.91167  0.21052  1.0000
  H   H3110     1.0  0.35442  0.77666  0.01985  1.0000
  H   H3111     1.0  0.37359  0.89421  0.22254  1.0000
  H   H3112     1.0  0.39735  0.98894  0.20960  1.0000
  Fe  Fe385     1.0  0.39044  0.85584  0.21390  1.0000
  C   C1941     1.0  0.34046  0.77058  0.15264  1.0000
  S   S768      1.0  0.38064  0.87332  0.21528  1.0000
  Fe  Fe386     1.0  0.39806  0.83553  0.20239  1.0000
  S   S769      1.0  0.40764  0.82542  0.21568  1.0000
  S   S770      1.0  0.40005  0.82876  0.18663  1.0000
  C   C1942     1.0  0.43373  0.84179  0.22755  1.0000
  Fe  Fe387     1.0  0.41340  0.84097  0.21482  1.0000
  S   S771      1.0  0.43116  0.84200  0.21450  1.0000
  S   S772      1.0  0.38247  0.84161  0.21463  1.0000
  S   S773      1.0  0.40515  0.85078  0.20055  1.0000
  Fe  Fe388     1.0  0.39794  0.76973  0.15128  1.0000
  S   S774      1.0  0.39186  0.78802  0.14488  1.0000
  S   S775      1.0  0.41554  0.76150  0.15287  1.0000
  Fe  Fe389     1.0  0.37499  0.76412  0.15768  1.0000
  S   S776      1.0  0.36671  0.78217  0.15293  1.0000
  S   S777      1.0  0.36616  0.74959  0.16496  1.0000
  Fe  Fe390     1.0  0.38061  0.78198  0.13749  1.0000
  S   S778      1.0  0.37480  0.78682  0.12112  1.0000
  Fe  Fe391     1.0  0.37871  0.78662  0.16082  1.0000
  S   S779      1.0  0.37454  0.79738  0.17404  1.0000
  S   S780      1.0  0.38831  0.76384  0.14224  1.0000
  S   S781      1.0  0.38535  0.76840  0.16725  1.0000
  Fe  Fe392     1.0  0.35010  0.70797  0.13431  1.0000
  S   S782      1.0  0.35917  0.68990  0.13602  1.0000
  Fe  Fe393     1.0  0.34808  0.70952  0.11068  1.0000
  S   S783      1.0  0.35756  0.69200  0.11036  1.0000
  C   C1943     1.0  0.60504  0.90779  0.22270  1.0000
  Fe  Fe394     1.0  0.34667  0.68754  0.12718  1.0000
  Fe  Fe395     1.0  0.36907  0.69600  0.11897  1.0000
  S   S784      1.0  0.38800  0.69209  0.11260  1.0000
  S   S785      1.0  0.36050  0.71404  0.11766  1.0000
  Fe  Fe396     1.0  0.60686  0.86376  0.21567  1.0000
  S   S786      1.0  0.60269  0.88251  0.20980  1.0000
  Fe  Fe397     1.0  0.61397  0.84110  0.20845  1.0000
  H   H3113     1.0  0.34921  0.73728  0.17461  1.0000
  S   S787      1.0  0.61883  0.83312  0.19307  1.0000
  C   C1944     1.0  0.51067  0.69535  0.14914  1.0000
  H   H3114     1.0  0.48412  0.67705  0.10419  1.0000
  S   S788      1.0  0.59742  0.85300  0.21171  1.0000
  S   S789      1.0  0.62370  0.85261  0.21106  1.0000
  Fe  Fe398     1.0  0.62955  0.71535  0.13506  1.0000
  S   S790      1.0  0.62767  0.70266  0.15109  1.0000
  S   S791      1.0  0.63094  0.73326  0.13169  1.0000
  Fe  Fe399     1.0  0.62724  0.69988  0.12171  1.0000
  S   S792      1.0  0.62496  0.68572  0.13648  1.0000
  S   S793      1.0  0.62620  0.70014  0.10432  1.0000
  Fe  Fe400     1.0  0.61380  0.69923  0.14524  1.0000
  S   S794      1.0  0.59658  0.69964  0.15630  1.0000
  Fe  Fe401     1.0  0.63907  0.69025  0.14103  1.0000
  S   S795      1.0  0.65484  0.67895  0.14618  1.0000
  S   S796      1.0  0.61487  0.71287  0.13003  1.0000
  S   S797      1.0  0.64217  0.70334  0.12552  1.0000
  Fe  Fe402     1.0  0.59061  0.80086  0.16157  1.0000
  S   S798      1.0  0.58069  0.78717  0.16908  1.0000
  S   S799      1.0  0.58851  0.81278  0.17323  1.0000
  Fe  Fe403     1.0  0.59919  0.79262  0.13943  1.0000
  S   S800      1.0  0.59029  0.77845  0.14550  1.0000
  S   S801      1.0  0.60916  0.79507  0.12165  1.0000
  Fe  Fe404     1.0  0.57574  0.79075  0.15258  1.0000
  S   S802      1.0  0.55935  0.79110  0.14827  1.0000
  Fe  Fe405     1.0  0.59612  0.77611  0.16125  1.0000
  S   S803      1.0  0.60268  0.75869  0.16993  1.0000
  S   S804      1.0  0.58423  0.80538  0.14554  1.0000
  S   S805      1.0  0.60642  0.78931  0.15476  1.0000
  Fe  Fe406     1.0  0.61501  0.75625  0.06934  1.0000
  S   S806      1.0  0.61116  0.77439  0.06111  1.0000
  S   S807      1.0  0.63106  0.74795  0.07513  1.0000
  Fe  Fe407     1.0  0.59159  0.75332  0.07155  1.0000
  S   S808      1.0  0.58565  0.77117  0.06371  1.0000
  S   S809      1.0  0.58015  0.74121  0.07759  1.0000
  Fe  Fe408     1.0  0.60195  0.76870  0.05128  1.0000
  S   S810      1.0  0.60110  0.77538  0.03304  1.0000
  Fe  Fe409     1.0  0.59530  0.77493  0.07436  1.0000
  S   S811      1.0  0.58783  0.78811  0.08476  1.0000
  S   S812      1.0  0.60726  0.75045  0.05850  1.0000
  S   S813      1.0  0.59981  0.75721  0.08320  1.0000
  Fe  Fe410     1.0  0.54465  0.72362  0.13363  1.0000
  S   S814      1.0  0.54940  0.73978  0.13208  1.0000
  S   S815      1.0  0.55812  0.70876  0.12965  1.0000
  Fe  Fe411     1.0  0.51958  0.73277  0.14062  1.0000
  S   S816      1.0  0.52215  0.74984  0.14019  1.0000
  S   S817      1.0  0.50226  0.72836  0.14575  1.0000
  Fe  Fe412     1.0  0.53444  0.74749  0.12425  1.0000
  S   S818      1.0  0.53659  0.76145  0.10947  1.0000
  Fe  Fe413     1.0  0.53694  0.74088  0.14813  1.0000
  S   S819      1.0  0.54293  0.74530  0.16137  1.0000
  S   S820      1.0  0.53091  0.73116  0.12402  1.0000
  S   S821      1.0  0.53318  0.72396  0.15036  1.0000
  H   H3115     1.0  0.39638  0.77445  0.18313  1.0000
  H   H3116     1.0  0.59252  0.96451  0.21470  1.0000
  S   S822      1.0  0.58250  0.74583  0.01194  1.0000
  H   H3117     1.0  0.43061  0.83964  0.16746  1.0000
  H   H3118     1.0  0.65152  0.69797  0.10345  1.0000
  H   H3119     1.0  0.57244  0.76366  0.03329  1.0000
  C   C1945     1.0  0.38071  0.71027  0.08883  1.0000
  Fe  Fe414     1.0  0.37442  0.75997  0.06503  1.0000
  S   S823      1.0  0.38415  0.77289  0.05456  1.0000
  S   S824      1.0  0.35564  0.76358  0.06918  1.0000
  Fe  Fe415     1.0  0.39537  0.74179  0.06634  1.0000
  S   S825      1.0  0.40676  0.75314  0.05585  1.0000
  S   S826      1.0  0.40156  0.72419  0.07456  1.0000
  Fe  Fe416     1.0  0.39594  0.76529  0.06646  1.0000
  S   S827      1.0  0.40406  0.77261  0.07599  1.0000
  Fe  Fe417     1.0  0.39371  0.75926  0.04516  1.0000
  S   S828      1.0  0.39752  0.76229  0.02620  1.0000
  S   S829      1.0  0.38536  0.75345  0.07752  1.0000
  S   S830      1.0  0.38316  0.74686  0.05507  1.0000
  Fe  Fe418     1.0  0.46114  0.71514  0.11588  1.0000
  S   S831      1.0  0.45996  0.72746  0.09969  1.0000
  S   S832      1.0  0.47913  0.70861  0.11844  1.0000
  Fe  Fe419     1.0  0.43605  0.71415  0.12089  1.0000
  S   S833      1.0  0.43337  0.72624  0.10507  1.0000
  S   S834      1.0  0.42008  0.70948  0.13241  1.0000
  Fe  Fe420     1.0  0.44978  0.71677  0.09714  1.0000
  S   S835      1.0  0.45180  0.71460  0.07980  1.0000
  Fe  Fe421     1.0  0.44379  0.73573  0.10903  1.0000
  S   S836      1.0  0.43784  0.75415  0.10485  1.0000
  S   S837      1.0  0.45187  0.70367  0.11261  1.0000
  S   S838      1.0  0.44547  0.72444  0.12566  1.0000
  C   C1946     1.0  0.35267  0.73564  0.16632  1.0000
  H   H3120     1.0  0.59329  0.72943  0.12426  1.0000
  S   S839      1.0  0.37398  0.74150  0.00020  1.0000
  C   C1947     1.0  0.39107  0.75635  0.01902  1.0000
  C   C1948     1.0  0.39158  0.76044  0.00754  1.0000
  C   C1949     1.0  0.38650  0.75589  0.00162  1.0000
  C   C1950     1.0  0.38080  0.74725  0.00716  1.0000
  C   C1951     1.0  0.38032  0.74314  0.01862  1.0000
  C   C1952     1.0  0.38553  0.74758  0.02449  1.0000
  H   H3121     1.0  0.39583  0.76723  0.00322  1.0000
  H   H3122     1.0  0.38679  0.75924  0.99282  1.0000
  H   H3123     1.0  0.37599  0.73641  0.02296  1.0000
  H   H3124     1.0  0.38534  0.74411  0.03322  1.0000
  C   C1953     1.0  0.41565  0.72136  0.07562  1.0000
  C   C1954     1.0  0.42387  0.72529  0.06671  1.0000
  C   C1955     1.0  0.43513  0.72277  0.06777  1.0000
  C   C1956     1.0  0.43808  0.71665  0.07786  1.0000
  C   C1957     1.0  0.42984  0.71276  0.08673  1.0000
  C   C1958     1.0  0.41868  0.71499  0.08557  1.0000
  H   H3125     1.0  0.42159  0.73003  0.05893  1.0000
  H   H3126     1.0  0.44152  0.72568  0.06085  1.0000
  H   H3127     1.0  0.43212  0.70791  0.09447  1.0000
  H   H3128     1.0  0.41235  0.71191  0.09243  1.0000
  S   S840      1.0  0.34564  0.71758  0.14823  1.0000
  H   H3129     1.0  0.36529  0.71554  0.07625  1.0000
  H   H3130     1.0  0.48915  0.70593  0.09323  1.0000
  C   C1959     1.0  0.40572  0.77161  0.18117  1.0000
  C   C1960     1.0  0.49577  0.72425  0.13706  1.0000
  C   C1961     1.0  0.48416  0.72445  0.14022  1.0000
  C   C1962     1.0  0.47886  0.72024  0.13422  1.0000
  C   C1963     1.0  0.48519  0.71542  0.12520  1.0000
  C   C1964     1.0  0.49680  0.71525  0.12200  1.0000
  C   C1965     1.0  0.50203  0.71983  0.12775  1.0000
  H   H3131     1.0  0.47924  0.72780  0.14742  1.0000
  H   H3132     1.0  0.46994  0.72036  0.13684  1.0000
  H   H3133     1.0  0.50178  0.71157  0.11503  1.0000
  H   H3134     1.0  0.51093  0.71972  0.12511  1.0000
  C   C1966     1.0  0.59693  0.76703  0.02640  1.0000
  C   C1967     1.0  0.59859  0.75546  0.03018  1.0000
  C   C1968     1.0  0.59474  0.74900  0.02515  1.0000
  C   C1969     1.0  0.58908  0.75402  0.01639  1.0000
  C   C1970     1.0  0.58755  0.76559  0.01245  1.0000
  C   C1971     1.0  0.59161  0.77206  0.01736  1.0000
  H   H3135     1.0  0.60282  0.75147  0.03701  1.0000
  H   H3136     1.0  0.59592  0.74006  0.02826  1.0000
  H   H3137     1.0  0.58278  0.76961  0.00602  1.0000
  H   H3138     1.0  0.59019  0.78103  0.01447  1.0000
  C   C1972     1.0  0.56776  0.74706  0.08598  1.0000
  C   C1973     1.0  0.56619  0.75790  0.08757  1.0000
  C   C1974     1.0  0.55635  0.76251  0.09443  1.0000
  C   C1975     1.0  0.54825  0.75614  0.09998  1.0000
  C   C1976     1.0  0.54986  0.74526  0.09848  1.0000
  C   C1977     1.0  0.55956  0.74076  0.09136  1.0000
  H   H3139     1.0  0.57261  0.76269  0.08376  1.0000
  H   H3140     1.0  0.55519  0.77086  0.09573  1.0000
  H   H3141     1.0  0.54358  0.74036  0.10272  1.0000
  H   H3142     1.0  0.56077  0.73236  0.09019  1.0000
  C   C1978     1.0  0.55481  0.77836  0.15198  1.0000
  C   C1979     1.0  0.54882  0.77607  0.14526  1.0000
  C   C1980     1.0  0.54521  0.76593  0.14803  1.0000
  C   C1981     1.0  0.54710  0.75822  0.15782  1.0000
  C   C1982     1.0  0.55274  0.76069  0.16474  1.0000
  C   C1983     1.0  0.55684  0.77059  0.16169  1.0000
  H   H3143     1.0  0.54695  0.78214  0.13789  1.0000
  H   H3144     1.0  0.54076  0.76416  0.14270  1.0000
  H   H3145     1.0  0.55395  0.75494  0.17249  1.0000
  H   H3146     1.0  0.56123  0.77240  0.16704  1.0000
  C   C1984     1.0  0.60369  0.79245  0.11140  1.0000
  C   C1985     1.0  0.59907  0.78303  0.11323  1.0000
  C   C1986     1.0  0.59496  0.78115  0.10473  1.0000
  C   C1987     1.0  0.59515  0.78884  0.09451  1.0000
  C   C1988     1.0  0.59984  0.79816  0.09271  1.0000
  C   C1989     1.0  0.60431  0.79981  0.10101  1.0000
  H   H3147     1.0  0.59873  0.77719  0.12116  1.0000
  H   H3148     1.0  0.59126  0.77398  0.10622  1.0000
  H   H3149     1.0  0.59988  0.80422  0.08492  1.0000
  H   H3150     1.0  0.60794  0.80704  0.09949  1.0000
  C   C1990     1.0  0.62785  0.71325  0.09590  1.0000
  C   C1991     1.0  0.62347  0.71729  0.08622  1.0000
  C   C1992     1.0  0.62434  0.72801  0.07983  1.0000
  C   C1993     1.0  0.63002  0.73448  0.08286  1.0000
  C   C1994     1.0  0.63464  0.73030  0.09236  1.0000
  C   C1995     1.0  0.63332  0.71984  0.09898  1.0000
  H   H3151     1.0  0.61919  0.71224  0.08379  1.0000
  H   H3152     1.0  0.62079  0.73118  0.07246  1.0000
  H   H3153     1.0  0.63904  0.73522  0.09477  1.0000
  H   H3154     1.0  0.63665  0.71692  0.10643  1.0000
  C   C1996     1.0  0.58583  0.70132  0.14921  1.0000
  C   C1997     1.0  0.57493  0.70675  0.15344  1.0000
  C   C1998     1.0  0.56642  0.70917  0.14741  1.0000
  C   C1999     1.0  0.56862  0.70555  0.13743  1.0000
  C   C2000     1.0  0.57938  0.69955  0.13349  1.0000
  C   C2001     1.0  0.58804  0.69763  0.13926  1.0000
  H   H3155     1.0  0.57310  0.70917  0.16137  1.0000
  H   H3156     1.0  0.55811  0.71366  0.15060  1.0000
  H   H3157     1.0  0.58109  0.69660  0.12586  1.0000
  H   H3158     1.0  0.59642  0.69326  0.13604  1.0000
  C   C2002     1.0  0.62354  0.74009  0.14263  1.0000
  C   C2003     1.0  0.62130  0.75175  0.14053  1.0000
  C   C2004     1.0  0.61517  0.75743  0.14901  1.0000
  C   C2005     1.0  0.61132  0.75148  0.15968  1.0000
  C   C2006     1.0  0.61369  0.73979  0.16187  1.0000
  C   C2007     1.0  0.61972  0.73410  0.15331  1.0000
  H   H3159     1.0  0.62422  0.75642  0.13232  1.0000
  H   H3160     1.0  0.61350  0.76645  0.14728  1.0000
  H   H3161     1.0  0.61072  0.73515  0.17011  1.0000
  H   H3162     1.0  0.62149  0.72509  0.15502  1.0000
  C   C2008     1.0  0.61030  0.82734  0.18778  1.0000
  C   C2009     1.0  0.59890  0.82760  0.19257  1.0000
  C   C2010     1.0  0.59242  0.82317  0.18794  1.0000
  C   C2011     1.0  0.59721  0.81833  0.17854  1.0000
  C   C2012     1.0  0.60862  0.81808  0.17373  1.0000
  C   C2013     1.0  0.61509  0.82256  0.17832  1.0000
  H   H3163     1.0  0.59505  0.83123  0.19983  1.0000
  H   H3164     1.0  0.58361  0.82349  0.19173  1.0000
  H   H3165     1.0  0.61244  0.81451  0.16643  1.0000
  H   H3166     1.0  0.62388  0.82235  0.17450  1.0000
  H   H3167     1.0  0.38529  0.71580  0.06660  1.0000
  H   H3168     1.0  0.58864  0.74139  0.16804  1.0000
  H   H3169     1.0  0.60038  0.91616  0.22329  1.0000
  C   C2014     1.0  0.40819  0.98937  0.22008  1.0000
  H   H3170     1.0  0.66180  0.68498  0.11807  1.0000
  C   C2015     1.0  0.35122  0.75136  0.07707  1.0000
  C   C2016     1.0  0.35791  0.74344  0.08392  1.0000
  C   C2017     1.0  0.35446  0.73355  0.09001  1.0000
  H   H3171     1.0  0.34308  0.78242  0.03739  1.0000
  N   N199      1.0  0.60447  0.78302  0.19320  1.0000
  H   H3172     1.0  0.36562  0.74500  0.08472  1.0000
  H   H3173     1.0  0.35954  0.72753  0.09540  1.0000
  C   C2018     1.0  0.39681  0.69677  0.11839  1.0000
  C   C2019     1.0  0.40813  0.69634  0.11301  1.0000
  C   C2020     1.0  0.41534  0.70014  0.11729  1.0000
  C   C2021     1.0  0.41135  0.70414  0.12715  1.0000
  C   C2022     1.0  0.40007  0.70436  0.13267  1.0000
  C   C2023     1.0  0.39278  0.70086  0.12822  1.0000
  H   H3174     1.0  0.41135  0.69308  0.10547  1.0000
  H   H3175     1.0  0.42403  0.69979  0.11305  1.0000
  H   H3176     1.0  0.39690  0.70730  0.14038  1.0000
  H   H3177     1.0  0.38409  0.70110  0.13252  1.0000
  C   C2024     1.0  0.42284  0.76117  0.13924  1.0000
  C   C2025     1.0  0.43343  0.75419  0.13723  1.0000
  C   C2026     1.0  0.43845  0.75260  0.12641  1.0000
  C   C2027     1.0  0.43288  0.75804  0.11767  1.0000
  C   C2028     1.0  0.42260  0.76551  0.11958  1.0000
  C   C2029     1.0  0.41754  0.76704  0.13041  1.0000
  H   H3178     1.0  0.43757  0.74970  0.14405  1.0000
  H   H3179     1.0  0.44656  0.74704  0.12483  1.0000
  H   H3180     1.0  0.41835  0.76973  0.11280  1.0000
  H   H3181     1.0  0.40942  0.77257  0.13189  1.0000
  C   C2030     1.0  0.38316  0.78203  0.10905  1.0000
  C   C2031     1.0  0.37784  0.78068  0.10122  1.0000
  C   C2032     1.0  0.38419  0.77754  0.09121  1.0000
  C   C2033     1.0  0.39591  0.77601  0.08878  1.0000
  C   C2034     1.0  0.40125  0.77730  0.09663  1.0000
  C   C2035     1.0  0.39491  0.78012  0.10681  1.0000
  H   H3182     1.0  0.36876  0.78227  0.10281  1.0000
  H   H3183     1.0  0.37995  0.77670  0.08519  1.0000
  H   H3184     1.0  0.41031  0.77623  0.09480  1.0000
  H   H3185     1.0  0.39908  0.78133  0.11269  1.0000
  C   C2036     1.0  0.36140  0.74064  0.15939  1.0000
  H   H3186     1.0  0.50677  0.68946  0.15635  1.0000
  H   H3187     1.0  0.52959  0.70039  0.16095  1.0000
  C   C2037     1.0  0.35247  0.72616  0.15206  1.0000
  H   H3188     1.0  0.53572  0.70361  0.14025  1.0000
  H   H3189     1.0  0.52763  0.70049  0.13220  1.0000
  C   C2038     1.0  0.39251  0.82034  0.18326  1.0000
  C   C2039     1.0  0.38396  0.81561  0.19102  1.0000
  C   C2040     1.0  0.37846  0.80881  0.18799  1.0000
  C   C2041     1.0  0.38143  0.80654  0.17719  1.0000
  C   C2042     1.0  0.38987  0.81141  0.16939  1.0000
  C   C2043     1.0  0.39539  0.81818  0.17243  1.0000
  H   H3190     1.0  0.38156  0.81718  0.19937  1.0000
  H   H3191     1.0  0.37189  0.80522  0.19410  1.0000
  H   H3192     1.0  0.39206  0.81010  0.16095  1.0000
  H   H3193     1.0  0.40185  0.82189  0.16628  1.0000
  C   C2044     1.0  0.38316  0.69174  0.08583  1.0000
  N   N200      1.0  0.52204  0.69573  0.15000  1.0000
  N   N201      1.0  0.41129  0.78118  0.17606  1.0000
  C   C2045     1.0  0.38800  0.90187  0.21754  1.0000
  H   H3194     1.0  0.62161  0.87766  0.22053  1.0000
  H   H3195     1.0  0.41051  0.78197  0.15917  1.0000
  H   H3196     1.0  0.37490  0.70847  0.09702  1.0000
  H   H3197     1.0  0.38951  0.72614  0.15658  1.0000
  H   H3198     1.0  0.44960  0.84689  0.22060  1.0000
  Fe  Fe422     1.0  0.58240  0.74642  0.99398  1.0000
  C   C2046     1.0  0.39925  0.90106  0.21199  1.0000
  S   S841      1.0  0.33669  0.70507  0.12722  1.0000
  H   H3199     1.0  0.62256  0.75234  0.09856  1.0000
  C   C2047     1.0  0.38803  0.88378  0.21415  1.0000
  C   C2048     1.0  0.39936  0.88288  0.20875  1.0000
  C   C2049     1.0  0.40488  0.89156  0.20755  1.0000
  H   H3200     1.0  0.34442  0.75137  0.14608  1.0000
  H   H3201     1.0  0.33596  0.75542  0.07091  1.0000
  H   H3202     1.0  0.40376  0.87564  0.20524  1.0000
  H   H3203     1.0  0.41355  0.89096  0.20310  1.0000
  C   C2050     1.0  0.52706  0.70323  0.13998  1.0000
  H   H3204     1.0  0.60462  0.73071  0.10456  1.0000
  H   H3205     1.0  0.39630  0.70468  0.07109  1.0000
  H   H3206     1.0  0.62862  0.88931  0.22890  1.0000
  H   H3207     1.0  0.47427  0.70750  0.09657  1.0000
  H   H3208     1.0  0.40459  0.73708  0.01039  1.0000
  H   H3209     1.0  0.62594  0.76893  0.08409  1.0000
  C   C2051     1.0  0.36808  0.70647  0.07966  1.0000
  C   C2052     1.0  0.60131  0.90129  0.21754  1.0000
  C   C2053     1.0  0.60722  0.89036  0.21678  1.0000
  H   H3210     1.0  0.65948  0.67336  0.09029  1.0000
  C   C2054     1.0  0.35545  0.76838  0.13654  1.0000
  H   H3211     1.0  0.59249  0.71579  0.12361  1.0000
  H   H3212     1.0  0.36213  0.70443  0.08771  1.0000
  H   H3213     1.0  0.34366  0.77282  0.05052  1.0000
  H   H3214     1.0  0.43332  0.73665  0.99342  1.0000
  H   H3215     1.0  0.60486  0.77329  0.20977  1.0000
  H   H3216     1.0  0.61161  0.77248  0.99886  1.0000
  N   N202      1.0  0.43782  0.75741  0.07161  1.0000
  C   C2055     1.0  0.44313  0.74862  0.06509  1.0000
  C   C2056     1.0  0.42888  0.75354  0.08084  1.0000
  C   C2057     1.0  0.43285  0.76769  0.06436  1.0000
  C   C2058     1.0  0.44637  0.75978  0.07619  1.0000
  H   H3217     1.0  0.45001  0.75117  0.05809  1.0000
  H   H3218     1.0  0.43688  0.74671  0.06147  1.0000
  H   H3219     1.0  0.44681  0.74069  0.07040  1.0000
  H   H3220     1.0  0.42467  0.75998  0.08596  1.0000
  H   H3221     1.0  0.42230  0.75171  0.07764  1.0000
  H   H3222     1.0  0.43236  0.74586  0.08652  1.0000
  H   H3223     1.0  0.42632  0.76622  0.06079  1.0000
  H   H3224     1.0  0.43933  0.77094  0.05731  1.0000
  H   H3225     1.0  0.42861  0.77443  0.06911  1.0000
  H   H3226     1.0  0.45024  0.75220  0.08176  1.0000
  H   H3227     1.0  0.44257  0.76628  0.08129  1.0000
  H   H3228     1.0  0.45324  0.76277  0.06948  1.0000
  N   N203      1.0  0.56264  0.80202  0.11427  1.0000
  C   C2059     1.0  0.56335  0.80659  0.10220  1.0000
  C   C2060     1.0  0.55148  0.80675  0.12051  1.0000
  C   C2061     1.0  0.57152  0.80499  0.11787  1.0000
  C   C2062     1.0  0.56422  0.78974  0.11649  1.0000
  H   H3229     1.0  0.57178  0.80341  0.09728  1.0000
  H   H3230     1.0  0.56196  0.81586  0.10024  1.0000
  H   H3231     1.0  0.55703  0.80419  0.09912  1.0000
  H   H3232     1.0  0.55063  0.80339  0.12964  1.0000
  H   H3233     1.0  0.55005  0.81599  0.11917  1.0000
  H   H3234     1.0  0.54457  0.80471  0.11799  1.0000
  H   H3235     1.0  0.58003  0.80163  0.11325  1.0000
  H   H3236     1.0  0.57134  0.80155  0.12691  1.0000
  H   H3237     1.0  0.57055  0.81418  0.11644  1.0000
  H   H3238     1.0  0.57214  0.78599  0.11125  1.0000
  H   H3239     1.0  0.55722  0.78717  0.11465  1.0000
  H   H3240     1.0  0.56464  0.78594  0.12536  1.0000
  C   C2063     1.0  0.60988  0.77860  0.20291  1.0000
  H   H3241     1.0  0.34511  0.76342  0.15804  1.0000
  H   H3242     1.0  0.40836  0.76685  0.18907  1.0000
  H   H3243     1.0  0.42193  0.87594  0.21869  1.0000
  H   H3244     1.0  0.49479  0.67889  0.08453  1.0000
  C   C2064     1.0  0.36584  0.73829  0.14866  1.0000
  H   H3245     1.0  0.47395  0.68151  0.08859  1.0000
  H   H3246     1.0  0.42677  0.77254  0.18129  1.0000
  H   H3247     1.0  0.46530  0.69367  0.09347  1.0000
  C   C2065     1.0  0.40145  0.98437  0.21643  1.0000
  C   C2066     1.0  0.35620  0.75509  0.04225  1.0000
  C   C2067     1.0  0.43034  0.94735  0.22804  1.0000
  S   S842      1.0  0.38302  0.93696  0.22288  1.0000
  C   C2068     1.0  0.34420  0.77342  0.04148  1.0000
  S   S843      1.0  0.60491  0.97077  0.22943  1.0000
  C   C2069     1.0  0.42362  0.77710  0.17359  1.0000
  C   C2070     1.0  0.40822  0.78882  0.18388  1.0000
  H   H3248     1.0  0.42292  0.74222  0.00439  1.0000
  C   C2071     1.0  0.36435  0.77140  0.03745  1.0000
  H   H3249     1.0  0.60998  0.85955  0.16262  1.0000
  H   H3250     1.0  0.34926  0.75148  0.04171  1.0000
  H   H3251     1.0  0.62490  0.76295  0.99626  1.0000
  H   H3252     1.0  0.58841  0.97284  0.20210  1.0000
  C   C2072     1.0  0.47345  0.69049  0.08811  1.0000
  H   H3253     1.0  0.45813  0.94772  0.21882  1.0000
  N   N204      1.0  0.34325  0.76912  0.14099  1.0000
  S   S844      1.0  0.62025  0.91165  0.23284  1.0000
  N   N205      1.0  0.39832  0.74063  0.10717  1.0000
  C   C2073     1.0  0.40430  0.74135  0.09542  1.0000
  C   C2074     1.0  0.40324  0.74654  0.11267  1.0000
  C   C2075     1.0  0.39949  0.72877  0.11290  1.0000
  C   C2076     1.0  0.38628  0.74582  0.10766  1.0000
  H   H3254     1.0  0.40083  0.73692  0.09106  1.0000
  H   H3255     1.0  0.41338  0.73742  0.09472  1.0000
  H   H3256     1.0  0.40359  0.75019  0.09080  1.0000
  H   H3257     1.0  0.41234  0.74288  0.11244  1.0000
  H   H3258     1.0  0.40255  0.75550  0.10849  1.0000
  H   H3259     1.0  0.39891  0.74621  0.12155  1.0000
  H   H3260     1.0  0.39506  0.72780  0.12180  1.0000
  H   H3261     1.0  0.40848  0.72464  0.11265  1.0000
  H   H3262     1.0  0.39597  0.72400  0.10891  1.0000
  H   H3263     1.0  0.38149  0.74539  0.11641  1.0000
  H   H3264     1.0  0.38233  0.74157  0.10354  1.0000
  H   H3265     1.0  0.38512  0.75478  0.10336  1.0000
  Fe  Fe423     1.0  0.39288  0.94872  0.22466  1.0000
  H   H3266     1.0  0.59384  0.79757  0.19899  1.0000
  H   H3267     1.0  0.56339  0.96606  0.23172  1.0000
  S   S845      1.0  0.33816  0.67244  0.13148  1.0000
  H   H3268     1.0  0.58697  0.97908  0.21372  1.0000
  C   C2077     1.0  0.65548  0.66148  0.13680  1.0000
  C   C2078     1.0  0.42618  0.73480  0.00045  1.0000
  C   C2079     1.0  0.34115  0.74932  0.07619  1.0000
  H   H3269     1.0  0.41535  0.72044  0.98818  1.0000
  H   H3270     1.0  0.56545  0.95712  0.21609  1.0000
  C   C2080     1.0  0.34450  0.73142  0.08898  1.0000
  H   H3271     1.0  0.36414  0.77113  0.04630  1.0000
  H   H3272     1.0  0.36050  0.76153  0.14180  1.0000
  Fe  Fe424     1.0  0.59664  0.84420  0.22951  1.0000
  C   C2081     1.0  0.35546  0.76782  0.02448  1.0000
  C   C2082     1.0  0.52926  0.68442  0.15083  1.0000
  H   H3273     1.0  0.53792  0.68451  0.15137  1.0000
  H   H3274     1.0  0.53004  0.68098  0.14340  1.0000
  H   H3275     1.0  0.52581  0.67853  0.15835  1.0000
  H   H3276     1.0  0.57556  0.76820  0.04413  1.0000
  H   H3277     1.0  0.43251  0.82244  0.18894  1.0000
  H   H3278     1.0  0.45167  0.82628  0.18536  1.0000
  H   H3279     1.0  0.44252  0.82848  0.16956  1.0000
  H   H3280     1.0  0.37261  0.74205  0.14321  1.0000
  H   H3281     1.0  0.51733  0.69459  0.16774  1.0000
  H   H3282     1.0  0.41058  0.74374  0.14201  1.0000
  H   H3283     1.0  0.38681  0.70208  0.06417  1.0000
  C   C2083     1.0  0.49369  0.68796  0.08418  1.0000
  H   H3284     1.0  0.56186  0.77309  0.04079  1.0000
  N   N206      1.0  0.56504  0.75606  0.04984  1.0000
  C   C2084     1.0  0.57474  0.74662  0.05106  1.0000
  C   C2085     1.0  0.55989  0.75925  0.06072  1.0000
  C   C2086     1.0  0.55666  0.75268  0.04589  1.0000
  C   C2087     1.0  0.56888  0.76568  0.04167  1.0000
  H   H3285     1.0  0.57834  0.74349  0.04321  1.0000
  H   H3286     1.0  0.57232  0.73948  0.05774  1.0000
  H   H3287     1.0  0.58159  0.74908  0.05329  1.0000
  H   H3288     1.0  0.55695  0.75217  0.06714  1.0000
  H   H3289     1.0  0.56604  0.76180  0.06391  1.0000
  H   H3290     1.0  0.55254  0.76636  0.06017  1.0000
  H   H3291     1.0  0.55366  0.74538  0.05184  1.0000
  H   H3292     1.0  0.56032  0.75026  0.03765  1.0000
  H   H3293     1.0  0.54920  0.75959  0.04489  1.0000
  C   C2088     1.0  0.36141  0.73097  0.14502  1.0000
  H   H3294     1.0  0.40775  0.76572  0.17545  1.0000
  C   C2089     1.0  0.66481  0.67315  0.09610  1.0000
  C   C2090     1.0  0.42912  0.83138  0.18931  1.0000
  H   H3295     1.0  0.33919  0.78673  0.13413  1.0000
  H   H3296     1.0  0.42765  0.83201  0.19815  1.0000
  N   N207      1.0  0.43685  0.83854  0.18197  1.0000
  S   S846      1.0  0.61262  0.83163  0.22626  1.0000
  H   H3297     1.0  0.58770  0.74552  0.11024  1.0000
  H   H3298     1.0  0.49385  0.69240  0.07534  1.0000
  S   S847      1.0  0.59918  0.94199  0.22724  1.0000
  C   C2091     1.0  0.44769  0.83516  0.18563  1.0000
  H   H3299     1.0  0.44652  0.83607  0.19437  1.0000
  H   H3300     1.0  0.57270  0.97509  0.23080  1.0000
  H   H3301     1.0  0.36476  0.72915  0.13679  1.0000
  H   H3302     1.0  0.40974  0.74966  0.99168  1.0000
  H   H3303     1.0  0.42078  0.83381  0.18693  1.0000
  C   C2092     1.0  0.38238  0.89333  0.21851  1.0000
  H   H3304     1.0  0.57791  0.96040  0.23172  1.0000
  H   H3305     1.0  0.51086  0.69277  0.14137  1.0000
  C   C2093     1.0  0.43870  0.83727  0.17036  1.0000
  H   H3306     1.0  0.45375  0.84038  0.18030  1.0000
  H   H3307     1.0  0.57131  0.72449  0.11264  1.0000
  H   H3308     1.0  0.37867  0.71941  0.08541  1.0000
  H   H3309     1.0  0.38936  0.70817  0.09048  1.0000
  H   H3310     1.0  0.38352  0.90925  0.22078  1.0000
  H   H3311     1.0  0.50111  0.68914  0.08657  1.0000
  H   H3312     1.0  0.51583  0.70857  0.15958  1.0000
  H   H3313     1.0  0.50492  0.70370  0.14900  1.0000
  H   H3314     1.0  0.57381  0.74275  0.11268  1.0000
  H   H3315     1.0  0.42365  0.85317  0.17992  1.0000
  H   H3316     1.0  0.34274  0.77827  0.15322  1.0000
  C   C2094     1.0  0.59875  0.72642  0.10293  1.0000
  H   H3317     1.0  0.59843  0.72929  0.09393  1.0000
  H   H3318     1.0  0.60258  0.71732  0.10433  1.0000
  H   H3319     1.0  0.44440  0.84264  0.16455  1.0000
  C   C2095     1.0  0.52117  0.69998  0.16002  1.0000
  H   H3320     1.0  0.62232  0.86285  0.16451  1.0000
  S   S848      1.0  0.34040  0.71883  0.09592  1.0000
  N   N208      1.0  0.58742  0.72868  0.11012  1.0000
  C   C2096     1.0  0.58825  0.72474  0.12194  1.0000
  C   C2097     1.0  0.58265  0.74080  0.10797  1.0000
  H   H3321     1.0  0.40609  0.74045  0.98530  1.0000
  H   H3322     1.0  0.39824  0.78943  0.16694  1.0000
  H   H3323     1.0  0.57978  0.72558  0.12758  1.0000
  S   S849      1.0  0.40951  0.93691  0.22133  1.0000
  C   C2098     1.0  0.58005  0.72271  0.10766  1.0000
  H   H3324     1.0  0.58259  0.74411  0.09900  1.0000
  H   H3325     1.0  0.58319  0.71351  0.10957  1.0000
  C   C2099     1.0  0.43185  0.85033  0.18261  1.0000
  N   N209      1.0  0.48309  0.69220  0.09158  1.0000
  C   C2100     1.0  0.41409  0.73520  0.14636  1.0000
  H   H3326     1.0  0.37781  0.68926  0.09416  1.0000
  S   S850      1.0  0.60426  0.85612  0.23390  1.0000
  H   H3327     1.0  0.57955  0.72519  0.09871  1.0000
  H   H3328     1.0  0.43748  0.85598  0.17724  1.0000
  H   H3329     1.0  0.59896  0.73470  0.14561  1.0000
  H   H3330     1.0  0.41739  0.71908  0.16437  1.0000
  H   H3331     1.0  0.43028  0.85158  0.19129  1.0000
  H   H3332     1.0  0.57499  0.74055  0.14094  1.0000
  H   H3333     1.0  0.57752  0.75250  0.16365  1.0000
  H   H3334     1.0  0.52593  0.87191  0.22984  1.0000
  C   C2101     1.0  0.41578  0.89011  0.23272  1.0000
  H   H3335     1.0  0.49024  0.68754  0.10618  1.0000
  H   H3336     1.0  0.63537  0.76395  0.11525  1.0000
  H   H3337     1.0  0.61230  0.75774  0.00294  1.0000
  H   H3338     1.0  0.59377  0.90471  0.21419  1.0000
  C   C2102     1.0  0.59224  0.73061  0.15151  1.0000
  H   H3339     1.0  0.59590  0.72533  0.15874  1.0000
  H   H3340     1.0  0.59031  0.72480  0.14742  1.0000
  H   H3341     1.0  0.59934  0.77674  0.18163  1.0000
  H   H3342     1.0  0.41081  0.79498  0.16195  1.0000
  N   N210      1.0  0.58207  0.73890  0.15507  1.0000
  C   C2103     1.0  0.57758  0.74575  0.14522  1.0000
  C   C2104     1.0  0.58500  0.74624  0.16067  1.0000
  H   H3343     1.0  0.57001  0.75218  0.14764  1.0000
  H   H3344     1.0  0.59129  0.75098  0.15494  1.0000
  H   H3345     1.0  0.58390  0.75021  0.13912  1.0000
  C   C2105     1.0  0.61694  0.88602  0.22116  1.0000
  Fe  Fe425     1.0  0.39250  0.83238  0.22775  1.0000
  C   C2106     1.0  0.57346  0.73304  0.16287  1.0000
  H   H3346     1.0  0.57023  0.72832  0.15862  1.0000
  H   H3347     1.0  0.56603  0.73896  0.16643  1.0000
  C   C2107     1.0  0.38737  0.70670  0.07024  1.0000
  H   H3348     1.0  0.39220  0.73823  0.14611  1.0000
  C   C2108     1.0  0.60381  0.87754  0.17206  1.0000
  H   H3349     1.0  0.63244  0.77885  0.08650  1.0000
  H   H3350     1.0  0.58002  0.95174  0.21603  1.0000
  N   N211      1.0  0.35505  0.76693  0.03641  1.0000
  C   C2109     1.0  0.48198  0.70424  0.09080  1.0000
  H   H3351     1.0  0.36365  0.76322  0.02037  1.0000
  H   H3352     1.0  0.39396  0.73413  0.17025  1.0000
  C   C2110     1.0  0.39624  0.72979  0.15017  1.0000
  H   H3353     1.0  0.42805  0.78413  0.16963  1.0000
  H   H3354     1.0  0.40737  0.73804  0.16751  1.0000
  H   H3355     1.0  0.39950  0.72455  0.14377  1.0000
  H   H3356     1.0  0.40650  0.89169  0.23353  1.0000
  H   H3357     1.0  0.61832  0.77789  0.09361  1.0000
  C   C2111     1.0  0.66154  0.66714  0.14038  1.0000
  C   C2112     1.0  0.40071  0.73742  0.16356  1.0000
  H   H3358     1.0  0.42103  0.73592  0.14986  1.0000
  H   H3359     1.0  0.57684  0.72707  0.16995  1.0000
  H   H3360     1.0  0.41183  0.79642  0.18017  1.0000
  C   C2113     1.0  0.41217  0.97251  0.23390  1.0000
  C   C2114     1.0  0.48322  0.68619  0.10322  1.0000
  N   N212      1.0  0.40536  0.73035  0.15517  1.0000
  N   N213      1.0  0.41725  0.73228  0.99654  1.0000
  H   H3361     1.0  0.39696  0.74607  0.15972  1.0000
  C   C2115     1.0  0.62675  0.77290  0.09061  1.0000
  H   H3362     1.0  0.58787  0.78528  0.20364  1.0000
  H   H3363     1.0  0.39893  0.79171  0.18618  1.0000
  H   H3364     1.0  0.59788  0.76836  0.19545  1.0000
  C   C2116     1.0  0.57394  0.95916  0.21264  1.0000
  C   C2117     1.0  0.41040  0.71898  0.16061  1.0000
  H   H3365     1.0  0.41392  0.71340  0.15452  1.0000
  H   H3366     1.0  0.41793  0.72999  0.13997  1.0000
  N   N214      1.0  0.63100  0.76446  0.09986  1.0000
  C   C2118     1.0  0.64233  0.75823  0.09553  1.0000
  H   H3367     1.0  0.63693  0.77645  0.10485  1.0000
  H   H3368     1.0  0.64223  0.75428  0.08873  1.0000
  H   H3369     1.0  0.64846  0.76381  0.09206  1.0000
  C   C2119     1.0  0.63166  0.77005  0.10843  1.0000
  C   C2120     1.0  0.64842  0.67689  0.11058  1.0000
  C   C2121     1.0  0.42186  0.72241  0.99140  1.0000
  H   H3370     1.0  0.40405  0.71508  0.16731  1.0000
  H   H3371     1.0  0.42715  0.95432  0.22148  1.0000
  H   H3372     1.0  0.58026  0.86158  0.22874  1.0000
  C   C2122     1.0  0.62330  0.75663  0.10485  1.0000
  H   H3373     1.0  0.42614  0.77128  0.16773  1.0000
  H   H3374     1.0  0.61470  0.76105  0.10828  1.0000
  H   H3375     1.0  0.58866  0.79293  0.18956  1.0000
  H   H3376     1.0  0.38251  0.68652  0.08035  1.0000
  H   H3377     1.0  0.42189  0.86340  0.22921  1.0000
  H   H3378     1.0  0.56813  0.98043  0.20187  1.0000
  H   H3379     1.0  0.34250  0.75715  0.13208  1.0000
  C   C2123     1.0  0.40549  0.96754  0.23027  1.0000
  H   H3380     1.0  0.66706  0.66431  0.10058  1.0000
  H   H3381     1.0  0.62166  0.86920  0.18164  1.0000
  H   H3382     1.0  0.43746  0.96585  0.22639  1.0000
  H   H3383     1.0  0.61739  0.85658  0.18966  1.0000
  H   H3384     1.0  0.64559  0.75145  0.10220  1.0000
  H   H3385     1.0  0.41119  0.78470  0.19176  1.0000
  S   S851      1.0  0.57213  0.73584  0.99095  1.0000
  C   C2124     1.0  0.34818  0.72862  0.16265  1.0000
  H   H3386     1.0  0.39197  0.68952  0.08710  1.0000
  H   H3387     1.0  0.45012  0.93967  0.21551  1.0000
  C   C2125     1.0  0.59323  0.78998  0.19653  1.0000
  H   H3388     1.0  0.35604  0.75409  0.05124  1.0000
  S   S852      1.0  0.39172  0.96712  0.21695  1.0000
  Fe  Fe426     1.0  0.39954  0.92451  0.22142  1.0000
  H   H3389     1.0  0.47533  0.68921  0.10903  1.0000
  N   N215      1.0  0.57462  0.96935  0.21577  1.0000
  H   H3390     1.0  0.41065  0.72246  0.01235  1.0000
  H   H3391     1.0  0.60745  0.79368  0.17698  1.0000
  H   H3392     1.0  0.59866  0.87824  0.16593  1.0000
  H   H3393     1.0  0.40077  0.72858  0.00334  1.0000
  C   C2126     1.0  0.44352  0.84471  0.22815  1.0000
  Fe  Fe427     1.0  0.62046  0.84432  0.22930  1.0000
  H   H3394     1.0  0.60026  0.85196  0.18748  1.0000
  H   H3395     1.0  0.47300  0.69506  0.07941  1.0000
  H   H3396     1.0  0.37269  0.76652  0.03404  1.0000
  C   C2127     1.0  0.40756  0.78716  0.16558  1.0000
  C   C2128     1.0  0.59769  0.86079  0.18318  1.0000
  H   H3397     1.0  0.65020  0.66806  0.11514  1.0000
  H   H3398     1.0  0.61991  0.78481  0.18124  1.0000
  C   C2129     1.0  0.34015  0.75878  0.14067  1.0000
  H   H3399     1.0  0.43052  0.93937  0.22586  1.0000
  H   H3400     1.0  0.36426  0.74992  0.03865  1.0000
  N   N216      1.0  0.44156  0.94788  0.22912  1.0000
  H   H3401     1.0  0.34873  0.76429  0.02335  1.0000
  H   H3402     1.0  0.44681  0.95465  0.21169  1.0000
  C   C2130     1.0  0.61150  0.78986  0.18428  1.0000
  H   H3403     1.0  0.57579  0.96004  0.20344  1.0000
  H   H3404     1.0  0.59210  0.86543  0.18961  1.0000
  H   H3405     1.0  0.59260  0.86079  0.17725  1.0000
  H   H3406     1.0  0.41936  0.89409  0.22404  1.0000
  C   C2131     1.0  0.57200  0.96773  0.22804  1.0000
  H   H3407     1.0  0.43704  0.88009  0.22502  1.0000
  H   H3408     1.0  0.64647  0.66435  0.13761  1.0000
  H   H3409     1.0  0.61109  0.88154  0.16759  1.0000
  H   H3410     1.0  0.59859  0.88253  0.17836  1.0000
  H   H3411     1.0  0.33893  0.77794  0.12527  1.0000
  H   H3412     1.0  0.48142  0.70919  0.08225  1.0000
  H   H3413     1.0  0.62320  0.77439  0.11230  1.0000
  C   C2132     1.0  0.61468  0.85942  0.16894  1.0000
  H   H3414     1.0  0.60908  0.86983  0.19231  1.0000
  H   H3415     1.0  0.61287  0.79681  0.18723  1.0000
  H   H3416     1.0  0.62631  0.75006  0.11179  1.0000
  H   H3417     1.0  0.61760  0.85049  0.17281  1.0000
  C   C2133     1.0  0.60327  0.77366  0.18904  1.0000
  C   C2134     1.0  0.61422  0.86534  0.18561  1.0000
  N   N217      1.0  0.60760  0.86578  0.17743  1.0000
  C   C2135     1.0  0.40016  0.97339  0.22147  1.0000
  H   H3418     1.0  0.40908  0.87363  0.22834  1.0000
  H   H3419     1.0  0.61649  0.74645  0.98870  1.0000
  C   C2136     1.0  0.40791  0.72997  0.00607  1.0000
  H   H3420     1.0  0.35800  0.76695  0.12788  1.0000
  H   H3421     1.0  0.34131  0.72499  0.16816  1.0000
  H   H3422     1.0  0.61844  0.77341  0.20064  1.0000
  C   C2137     1.0  0.41367  0.98336  0.22876  1.0000
  H   H3423     1.0  0.61155  0.76817  0.18644  1.0000
  S   S853      1.0  0.39912  0.84698  0.22800  1.0000
  C   C2138     1.0  0.61493  0.90354  0.22681  1.0000
  C   C2139     1.0  0.65601  0.69216  0.09774  1.0000
  H   H3424     1.0  0.61080  0.78549  0.20629  1.0000
  H   H3425     1.0  0.44007  0.90286  0.22434  1.0000
  H   H3426     1.0  0.64248  0.67761  0.10519  1.0000
  C   C2140     1.0  0.33698  0.77879  0.13411  1.0000
  N   N218      1.0  0.65886  0.68056  0.10400  1.0000
  C   C2141     1.0  0.62088  0.89265  0.22596  1.0000
  H   H3427     1.0  0.64390  0.68209  0.11685  1.0000
  C   C2142     1.0  0.41303  0.74197  0.98821  1.0000
  C   C2143     1.0  0.58610  0.97156  0.21134  1.0000
  C   C2144     1.0  0.43926  0.90489  0.23230  1.0000
  C   C2145     1.0  0.56640  0.97895  0.21113  1.0000
  H   H3428     1.0  0.35792  0.77623  0.13631  1.0000
  H   H3429     1.0  0.56627  0.87886  0.23152  1.0000
  C   C2146     1.0  0.41831  0.87251  0.22753  1.0000
  H   H3430     1.0  0.42957  0.72767  0.00675  1.0000
  H   H3431     1.0  0.36393  0.78023  0.03291  1.0000
  C   C2147     1.0  0.66621  0.68000  0.11156  1.0000
  C   C2148     1.0  0.61579  0.76439  0.99630  1.0000
  H   H3432     1.0  0.42483  0.91817  0.23044  1.0000
  H   H3433     1.0  0.42502  0.71488  0.99745  1.0000
  H   H3434     1.0  0.55766  0.97754  0.21434  1.0000
  H   H3435     1.0  0.59714  0.77421  0.98835  1.0000
  H   H3436     1.0  0.59806  0.75937  0.99188  1.0000
  H   H3437     1.0  0.56668  0.98675  0.21340  1.0000
  H   H3438     1.0  0.66364  0.69524  0.09260  1.0000
  C   C2149     1.0  0.44087  0.95841  0.23243  1.0000
  C   C2150     1.0  0.33788  0.73928  0.08202  1.0000
  H   H3439     1.0  0.36398  0.86059  0.23065  1.0000
  S   S854      1.0  0.42280  0.98882  0.23324  1.0000
  H   H3440     1.0  0.44926  0.95931  0.23293  1.0000
  H   H3441     1.0  0.33697  0.77032  0.04083  1.0000
  C   C2151     1.0  0.43309  0.87650  0.23371  1.0000
  C   C2152     1.0  0.60177  0.76621  0.98581  1.0000
  H   H3442     1.0  0.40447  0.95914  0.23427  1.0000
  N   N219      1.0  0.61395  0.76434  0.98529  1.0000
  H   H3443     1.0  0.36309  0.87925  0.23426  1.0000
  H   H3444     1.0  0.57612  0.83962  0.27696  1.0000
  H   H3445     1.0  0.65319  0.88648  0.31311  1.0000
  S   S855      1.0  0.59398  0.92481  0.25157  1.0000
  C   C2153     1.0  0.58305  0.83542  0.27098  1.0000
  S   S856      1.0  0.58772  0.95183  0.25024  1.0000
  H   H3446     1.0  0.65079  0.83037  0.25200  1.0000
  Fe  Fe428     1.0  0.59861  0.93693  0.25862  1.0000
  S   S857      1.0  0.59739  0.93446  0.27690  1.0000
  H   H3447     1.0  0.34365  0.88082  0.32955  1.0000
  H   H3448     1.0  0.41612  0.96793  0.24082  1.0000
  C   C2154     1.0  0.42593  0.83900  0.23737  1.0000
  Fe  Fe429     1.0  0.54124  0.89674  0.28227  1.0000
  S   S858      1.0  0.53988  0.88236  0.29698  1.0000
  S   S859      1.0  0.54208  0.91366  0.28394  1.0000
  Fe  Fe430     1.0  0.54384  0.88252  0.26581  1.0000
  S   S860      1.0  0.54312  0.86688  0.27893  1.0000
  S   S861      1.0  0.54587  0.88278  0.24778  1.0000
  Fe  Fe431     1.0  0.52869  0.87780  0.28827  1.0000
  S   S862      1.0  0.51146  0.87349  0.29558  1.0000
  Fe  Fe432     1.0  0.55444  0.87287  0.28618  1.0000
  S   S863      1.0  0.57111  0.86203  0.28995  1.0000
  S   S864      1.0  0.52886  0.89314  0.27460  1.0000
  S   S865      1.0  0.55634  0.88757  0.27205  1.0000
  H   H3449     1.0  0.34435  0.88706  0.34040  1.0000
  H   H3450     1.0  0.63037  0.97081  0.25294  1.0000
  S   S866      1.0  0.41890  0.92704  0.25037  1.0000
  H   H3451     1.0  0.34629  0.84765  0.32716  1.0000
  S   S867      1.0  0.36704  0.92596  0.25420  1.0000
  H   H3452     1.0  0.59242  0.97891  0.28521  1.0000
  C   C2155     1.0  0.44661  0.89865  0.23929  1.0000
  S   S868      1.0  0.39015  0.94349  0.24327  1.0000
  Fe  Fe433     1.0  0.47189  0.85775  0.26648  1.0000
  S   S869      1.0  0.48960  0.85108  0.26968  1.0000
  Fe  Fe434     1.0  0.44867  0.86979  0.27610  1.0000
  S   S870      1.0  0.44149  0.87032  0.26168  1.0000
  S   S871      1.0  0.43896  0.87708  0.29095  1.0000
  Fe  Fe435     1.0  0.45078  0.85256  0.26266  1.0000
  Fe  Fe436     1.0  0.45777  0.87436  0.25121  1.0000
  C   C2156     1.0  0.64714  0.83900  0.26536  1.0000
  S   S872      1.0  0.45683  0.85166  0.27812  1.0000
  S   S873      1.0  0.46407  0.87586  0.26554  1.0000
  Fe  Fe437     1.0  0.37585  0.86586  0.28205  1.0000
  S   S874      1.0  0.37032  0.87340  0.29717  1.0000
  S   S875      1.0  0.38097  0.87385  0.26407  1.0000
  Fe  Fe438     1.0  0.37607  0.84265  0.29527  1.0000
  S   S876      1.0  0.37062  0.84768  0.31188  1.0000
  S   S877      1.0  0.37986  0.82520  0.29264  1.0000
  Fe  Fe439     1.0  0.35838  0.86165  0.30373  1.0000
  Fe  Fe440     1.0  0.38281  0.85909  0.30434  1.0000
  S   S878      1.0  0.39229  0.86338  0.31473  1.0000
  S   S879      1.0  0.36270  0.85553  0.28773  1.0000
  S   S880      1.0  0.38951  0.85259  0.28863  1.0000
  S   S881      1.0  0.46673  0.85664  0.25113  1.0000
  Fe  Fe441     1.0  0.63789  0.86158  0.29401  1.0000
  S   S882      1.0  0.63111  0.85784  0.31261  1.0000
  S   S883      1.0  0.64369  0.84927  0.28248  1.0000
  Fe  Fe442     1.0  0.63749  0.88548  0.29387  1.0000
  S   S884      1.0  0.62994  0.88417  0.31207  1.0000
  S   S885      1.0  0.64280  0.90075  0.28259  1.0000
  Fe  Fe443     1.0  0.64275  0.86810  0.31423  1.0000
  C   C2157     1.0  0.61924  0.97063  0.24269  1.0000
  Fe  Fe444     1.0  0.61898  0.87430  0.30891  1.0000
  S   S886      1.0  0.60000  0.87784  0.31480  1.0000
  S   S887      1.0  0.65069  0.87000  0.29594  1.0000
  S   S888      1.0  0.62534  0.87742  0.29041  1.0000
  H   H3453     1.0  0.61491  0.96257  0.26713  1.0000
  C   C2158     1.0  0.65718  0.88809  0.34082  1.0000
  H   H3454     1.0  0.37189  0.86918  0.34523  1.0000
  H   H3455     1.0  0.37591  0.85508  0.23697  1.0000
  S   S889      1.0  0.39782  0.91767  0.23973  1.0000
  H   H3456     1.0  0.43525  0.95883  0.24075  1.0000
  C   C2159     1.0  0.57098  0.85083  0.24195  1.0000
  C   C2160     1.0  0.63980  0.84719  0.27083  1.0000
  C   C2161     1.0  0.63004  0.85318  0.26681  1.0000
  C   C2162     1.0  0.62780  0.85091  0.25731  1.0000
  C   C2163     1.0  0.63532  0.84263  0.25190  1.0000
  H   H3457     1.0  0.62423  0.85943  0.27106  1.0000
  H   H3458     1.0  0.62034  0.85552  0.25419  1.0000
  C   C2164     1.0  0.38104  0.82456  0.27872  1.0000
  C   C2165     1.0  0.38336  0.83349  0.26985  1.0000
  C   C2166     1.0  0.38494  0.83240  0.25875  1.0000
  C   C2167     1.0  0.38386  0.82251  0.25659  1.0000
  C   C2168     1.0  0.38142  0.81370  0.26549  1.0000
  C   C2169     1.0  0.38015  0.81467  0.27648  1.0000
  H   H3459     1.0  0.38414  0.84114  0.27153  1.0000
  H   H3460     1.0  0.38690  0.83919  0.25190  1.0000
  H   H3461     1.0  0.38054  0.80606  0.26386  1.0000
  H   H3462     1.0  0.37836  0.80775  0.28328  1.0000
  C   C2170     1.0  0.36268  0.87274  0.34626  1.0000
  C   C2171     1.0  0.42612  0.87295  0.29730  1.0000
  C   C2172     1.0  0.42027  0.87586  0.30746  1.0000
  C   C2173     1.0  0.40995  0.87280  0.31272  1.0000
  C   C2174     1.0  0.40529  0.86699  0.30778  1.0000
  C   C2175     1.0  0.41105  0.86418  0.29752  1.0000
  C   C2176     1.0  0.42154  0.86705  0.29233  1.0000
  H   H3463     1.0  0.42376  0.88044  0.31131  1.0000
  H   H3464     1.0  0.40556  0.87498  0.32064  1.0000
  H   H3465     1.0  0.40757  0.85957  0.29372  1.0000
  H   H3466     1.0  0.42606  0.86470  0.28452  1.0000
  C   C2177     1.0  0.37548  0.88819  0.26104  1.0000
  C   C2178     1.0  0.36830  0.89365  0.26930  1.0000
  C   C2179     1.0  0.36501  0.90532  0.26700  1.0000
  C   C2180     1.0  0.36893  0.91147  0.25645  1.0000
  C   C2181     1.0  0.37550  0.90593  0.24803  1.0000
  C   C2182     1.0  0.37885  0.89429  0.25032  1.0000
  H   H3467     1.0  0.36542  0.88894  0.27750  1.0000
  H   H3468     1.0  0.35981  0.90961  0.27349  1.0000
  C   C2183     1.0  0.47627  0.85370  0.30153  1.0000
  H   H3469     1.0  0.38423  0.89009  0.24383  1.0000
  C   C2184     1.0  0.42960  0.91620  0.24604  1.0000
  C   C2185     1.0  0.43706  0.91008  0.25294  1.0000
  C   C2186     1.0  0.44546  0.90119  0.24963  1.0000
  H   H3470     1.0  0.57999  0.96791  0.28265  1.0000
  H   H3471     1.0  0.43625  0.91209  0.26091  1.0000
  H   H3472     1.0  0.45113  0.89639  0.25505  1.0000
  H   H3473     1.0  0.65278  0.89034  0.24302  1.0000
  C   C2187     1.0  0.59091  0.89351  0.28391  1.0000
  H   H3474     1.0  0.59044  0.84365  0.28408  1.0000
  H   H3475     1.0  0.64503  0.88497  0.33332  1.0000
  C   C2188     1.0  0.57969  0.90232  0.27001  1.0000
  S   S890      1.0  0.34081  0.86920  0.31216  1.0000
  C   C2189     1.0  0.65319  0.88186  0.33552  1.0000
  H   H3476     1.0  0.43721  0.86752  0.23560  1.0000
  N   N220      1.0  0.46664  0.86197  0.30607  1.0000
  C   C2190     1.0  0.59975  0.97249  0.28229  1.0000
  C   C2191     1.0  0.55349  0.86016  0.25206  1.0000
  C   C2192     1.0  0.56129  0.85033  0.25032  1.0000
  H   H3477     1.0  0.37417  0.87920  0.32547  1.0000
  H   H3478     1.0  0.38091  0.98095  0.25960  1.0000
  H   H3479     1.0  0.54612  0.85973  0.25866  1.0000
  H   H3480     1.0  0.55994  0.84239  0.25561  1.0000
  H   H3481     1.0  0.65725  0.92203  0.41333  1.0000
  C   C2193     1.0  0.57896  0.86641  0.29708  1.0000
  C   C2194     1.0  0.57373  0.87323  0.30481  1.0000
  C   C2195     1.0  0.58023  0.87648  0.31039  1.0000
  C   C2196     1.0  0.59201  0.87303  0.30823  1.0000
  C   C2197     1.0  0.59723  0.86621  0.30051  1.0000
  C   C2198     1.0  0.59074  0.86288  0.29502  1.0000
  H   H3482     1.0  0.56466  0.87589  0.30659  1.0000
  H   H3483     1.0  0.57612  0.88173  0.31639  1.0000
  H   H3484     1.0  0.60629  0.86347  0.29880  1.0000
  H   H3485     1.0  0.59494  0.85773  0.28902  1.0000
  C   C2199     1.0  0.49580  0.85781  0.27632  1.0000
  C   C2200     1.0  0.49105  0.86866  0.27804  1.0000
  C   C2201     1.0  0.49604  0.87356  0.28372  1.0000
  C   C2202     1.0  0.50598  0.86778  0.28743  1.0000
  C   C2203     1.0  0.51087  0.85705  0.28542  1.0000
  C   C2204     1.0  0.50576  0.85208  0.27997  1.0000
  H   H3486     1.0  0.48351  0.87326  0.27511  1.0000
  H   H3487     1.0  0.49224  0.88187  0.28524  1.0000
  H   H3488     1.0  0.51845  0.85247  0.28838  1.0000
  H   H3489     1.0  0.50950  0.84368  0.27869  1.0000
  C   C2205     1.0  0.61014  0.92590  0.27947  1.0000
  C   C2206     1.0  0.62027  0.92819  0.27254  1.0000
  C   C2207     1.0  0.63042  0.92063  0.27374  1.0000
  C   C2208     1.0  0.63038  0.91075  0.28180  1.0000
  C   C2209     1.0  0.62027  0.90860  0.28890  1.0000
  C   C2210     1.0  0.61016  0.91624  0.28782  1.0000
  H   H3490     1.0  0.62033  0.93577  0.26623  1.0000
  H   H3491     1.0  0.63823  0.92231  0.26825  1.0000
  H   H3492     1.0  0.62017  0.90099  0.29516  1.0000
  H   H3493     1.0  0.60236  0.91445  0.29323  1.0000
  H   H3494     1.0  0.42297  0.81670  0.26129  1.0000
  C   C2211     1.0  0.56066  0.93469  0.26189  1.0000
  C   C2212     1.0  0.55471  0.92902  0.27177  1.0000
  C   C2213     1.0  0.54896  0.92110  0.27143  1.0000
  C   C2214     1.0  0.54903  0.91900  0.26115  1.0000
  C   C2215     1.0  0.55460  0.92500  0.25123  1.0000
  H   H3495     1.0  0.56520  0.94069  0.26222  1.0000
  H   H3496     1.0  0.55467  0.93065  0.27971  1.0000
  H   H3497     1.0  0.54463  0.91286  0.26084  1.0000
  C   C2216     1.0  0.42787  0.83916  0.24767  1.0000
  H   H3498     1.0  0.45654  0.84977  0.31476  1.0000
  H   H3499     1.0  0.64827  0.89840  0.30319  1.0000
  H   H3500     1.0  0.64304  0.89776  0.26016  1.0000
  Fe  Fe445     1.0  0.60310  0.95286  0.23661  1.0000
  H   H3501     1.0  0.60923  0.95188  0.27772  1.0000
  C   C2217     1.0  0.50715  0.87506  0.24534  1.0000
  H   H3502     1.0  0.66471  0.90344  0.40818  1.0000
  C   C2218     1.0  0.64494  0.83677  0.25604  1.0000
  H   H3503     1.0  0.65206  0.89600  0.34251  1.0000
  H   H3504     1.0  0.34543  0.87222  0.25470  1.0000
  H   H3505     1.0  0.58258  0.85722  0.26836  1.0000
  S   S891      1.0  0.65550  0.86378  0.32568  1.0000
  H   H3506     1.0  0.35828  0.86682  0.35305  1.0000
  C   C2219     1.0  0.37695  0.98997  0.25911  1.0000
  H   H3507     1.0  0.40667  0.87414  0.24823  1.0000
  C   C2220     1.0  0.59459  0.97605  0.26451  1.0000
  H   H3508     1.0  0.35713  0.85752  0.33869  1.0000
  H   H3509     1.0  0.51459  0.85512  0.25744  1.0000
  H   H3510     1.0  0.60701  0.97669  0.27843  1.0000
  C   C2221     1.0  0.65968  0.87163  0.33318  1.0000
  H   H3511     1.0  0.36265  0.85063  0.26105  1.0000
  H   H3512     1.0  0.43524  0.88068  0.23928  1.0000
  S   S892      1.0  0.61438  0.93857  0.24566  1.0000
  H   H3513     1.0  0.60037  0.83115  0.28145  1.0000
  C   C2222     1.0  0.46564  0.87264  0.29781  1.0000
  N   N221      1.0  0.51868  0.87058  0.24737  1.0000
  N   N222      1.0  0.35891  0.87451  0.33575  1.0000
  H   H3514     1.0  0.40508  0.81097  0.27213  1.0000
  H   H3515     1.0  0.38620  0.98480  0.23899  1.0000
  H   H3516     1.0  0.37816  0.91067  0.23977  1.0000
  C   C2223     1.0  0.56047  0.93281  0.25159  1.0000
  C   C2224     1.0  0.63531  0.89535  0.25974  1.0000
  C   C2225     1.0  0.55529  0.87045  0.24529  1.0000
  H   H3517     1.0  0.37065  0.86009  0.33074  1.0000
  H   H3518     1.0  0.63036  0.89359  0.26841  1.0000
  Fe  Fe446     1.0  0.38192  0.93075  0.24131  1.0000
  H   H3519     1.0  0.62246  0.88046  0.26264  1.0000
  C   C2226     1.0  0.36573  0.87482  0.24226  1.0000
  H   H3520     1.0  0.65465  0.83430  0.26837  1.0000
  H   H3521     1.0  0.59344  0.97240  0.25792  1.0000
  H   H3522     1.0  0.42604  0.81979  0.28851  1.0000
  H   H3523     1.0  0.41538  0.83431  0.27575  1.0000
  C   C2227     1.0  0.58926  0.85270  0.26245  1.0000
  N   N223      1.0  0.40085  0.89746  0.27436  1.0000
  C   C2228     1.0  0.40163  0.89638  0.28600  1.0000
  C   C2229     1.0  0.39133  0.90664  0.27163  1.0000
  C   C2230     1.0  0.39902  0.88690  0.27303  1.0000
  C   C2231     1.0  0.41143  0.89995  0.26679  1.0000
  H   H3524     1.0  0.39398  0.89409  0.29200  1.0000
  H   H3525     1.0  0.40269  0.90432  0.28737  1.0000
  H   H3526     1.0  0.40897  0.88980  0.28820  1.0000
  H   H3527     1.0  0.39019  0.90738  0.26307  1.0000
  H   H3528     1.0  0.38325  0.90528  0.27742  1.0000
  H   H3529     1.0  0.39264  0.91486  0.27201  1.0000
  H   H3530     1.0  0.39836  0.88743  0.26435  1.0000
  H   H3531     1.0  0.40599  0.87976  0.27512  1.0000
  H   H3532     1.0  0.41106  0.90116  0.25790  1.0000
  H   H3533     1.0  0.41881  0.89314  0.26848  1.0000
  H   H3534     1.0  0.41315  0.90776  0.26776  1.0000
  H   H3535     1.0  0.58385  0.91381  0.28952  1.0000
  H   H3536     1.0  0.36244  0.88057  0.24818  1.0000
  H   H3537     1.0  0.36176  0.86414  0.26367  1.0000
  C   C2232     1.0  0.43769  0.84191  0.24834  1.0000
  H   H3538     1.0  0.59878  0.83557  0.25198  1.0000
  C   C2233     1.0  0.36145  0.86375  0.33228  1.0000
  N   N224      1.0  0.36174  0.86423  0.24678  1.0000
  H   H3539     1.0  0.60603  0.95523  0.26415  1.0000
  H   H3540     1.0  0.56365  0.90737  0.28817  1.0000
  C   C2234     1.0  0.36532  0.85875  0.25742  1.0000
  H   H3541     1.0  0.59229  0.89329  0.29227  1.0000
  C   C2235     1.0  0.46846  0.86379  0.31640  1.0000
  H   H3542     1.0  0.58960  0.88516  0.28402  1.0000
  H   H3543     1.0  0.60470  0.82622  0.26319  1.0000
  C   C2236     1.0  0.57093  0.90037  0.28953  1.0000
  C   C2237     1.0  0.59718  0.83999  0.27759  1.0000
  C   C2238     1.0  0.62754  0.88279  0.25411  1.0000
  H   H3544     1.0  0.50075  0.87229  0.25281  1.0000
  H   H3545     1.0  0.59641  0.85707  0.25971  1.0000
  H   H3546     1.0  0.44869  0.86390  0.31176  1.0000
  H   H3547     1.0  0.60423  0.84444  0.27550  1.0000
  H   H3548     1.0  0.35860  0.86482  0.32443  1.0000
  S   S893      1.0  0.63354  0.83890  0.24004  1.0000
  H   H3549     1.0  0.39105  0.88483  0.27857  1.0000
  H   H3550     1.0  0.63027  0.90278  0.25500  1.0000
  H   H3551     1.0  0.43073  0.80621  0.27059  1.0000
  C   C2239     1.0  0.52692  0.87431  0.23727  1.0000
  H   H3552     1.0  0.65259  0.87786  0.26177  1.0000
  N   N225      1.0  0.42078  0.87805  0.23520  1.0000
  C   C2240     1.0  0.62410  0.97580  0.24823  1.0000
  H   H3553     1.0  0.58536  0.82647  0.27500  1.0000
  C   C2241     1.0  0.58766  0.96188  0.27963  1.0000
  C   C2242     1.0  0.45617  0.85778  0.30851  1.0000
  H   H3554     1.0  0.43167  0.82054  0.26819  1.0000
  H   H3555     1.0  0.59882  0.89478  0.27777  1.0000
  H   H3556     1.0  0.42168  0.83723  0.25513  1.0000
  H   H3557     1.0  0.58559  0.95801  0.27372  1.0000
  H   H3558     1.0  0.58677  0.98225  0.26683  1.0000
  H   H3559     1.0  0.52936  0.85459  0.25203  1.0000
  H   H3560     1.0  0.36402  0.84857  0.24200  1.0000
  C   C2243     1.0  0.33904  0.85280  0.33145  1.0000
  H   H3561     1.0  0.39902  0.98648  0.25011  1.0000
  H   H3562     1.0  0.57647  0.92029  0.27839  1.0000
  H   H3563     1.0  0.56854  0.89265  0.28919  1.0000
  H   H3564     1.0  0.55452  0.92344  0.24329  1.0000
  N   N226      1.0  0.63807  0.88561  0.25447  1.0000
  H   H3565     1.0  0.37464  0.85708  0.25627  1.0000
  H   H3566     1.0  0.57958  0.83584  0.26366  1.0000
  C   C2244     1.0  0.44551  0.84477  0.23853  1.0000
  C   C2245     1.0  0.51980  0.87469  0.25678  1.0000
  C   C2246     1.0  0.42028  0.81423  0.28910  1.0000
  H   H3567     1.0  0.41301  0.80023  0.28114  1.0000
  H   H3568     1.0  0.45459  0.85632  0.30085  1.0000
  H   H3569     1.0  0.47706  0.84543  0.30737  1.0000
  H   H3570     1.0  0.48436  0.85641  0.29996  1.0000
  H   H3571     1.0  0.36311  0.89068  0.32921  1.0000
  H   H3572     1.0  0.45820  0.87895  0.30078  1.0000
  H   H3573     1.0  0.37509  0.87333  0.24053  1.0000
  S   S894      1.0  0.56773  0.94008  0.23919  1.0000
  C   C2247     1.0  0.56482  0.87090  0.23671  1.0000
  H   H3574     1.0  0.46458  0.87151  0.28980  1.0000
  C   C2248     1.0  0.58329  0.91329  0.28109  1.0000
  C   C2249     1.0  0.60731  0.95890  0.27065  1.0000
  C   C2250     1.0  0.52085  0.85825  0.25009  1.0000
  H   H3575     1.0  0.57203  0.89949  0.29814  1.0000
  H   H3576     1.0  0.40258  0.82991  0.28359  1.0000
  C   C2251     1.0  0.34666  0.87909  0.33745  1.0000
  H   H3577     1.0  0.36233  0.88376  0.31888  1.0000
  Fe  Fe447     1.0  0.40614  0.93104  0.23984  1.0000
  H   H3578     1.0  0.58727  0.90376  0.26344  1.0000
  H   H3579     1.0  0.57809  0.89418  0.26980  1.0000
  N   N227      1.0  0.58120  0.90237  0.28113  1.0000
  C   C2252     1.0  0.33387  0.84862  0.34248  1.0000
  N   N228      1.0  0.59732  0.96733  0.27427  1.0000
  H   H3580     1.0  0.46137  0.87003  0.32003  1.0000
  H   H3581     1.0  0.59134  0.91476  0.27535  1.0000
  H   H3582     1.0  0.40657  0.83050  0.26890  1.0000
  H   H3583     1.0  0.41318  0.81552  0.29634  1.0000
  H   H3584     1.0  0.41780  0.87699  0.25283  1.0000
  S   S895      1.0  0.44002  0.84129  0.26161  1.0000
  H   H3585     1.0  0.60142  0.98075  0.26069  1.0000
  C   C2253     1.0  0.64475  0.87594  0.26099  1.0000
  H   H3586     1.0  0.57241  0.90891  0.26763  1.0000
  H   H3587     1.0  0.60927  0.83911  0.25682  1.0000
  C   C2254     1.0  0.41598  0.87309  0.24682  1.0000
  H   H3588     1.0  0.58574  0.85361  0.25502  1.0000
  H   H3589     1.0  0.42499  0.80545  0.29098  1.0000
  N   N229      1.0  0.59283  0.84082  0.26763  1.0000
  H   H3590     1.0  0.47632  0.86697  0.31479  1.0000
  H   H3591     1.0  0.46928  0.85591  0.32283  1.0000
  H   H3592     1.0  0.47322  0.87626  0.29601  1.0000
  H   H3593     1.0  0.58952  0.95504  0.28688  1.0000
  C   C2255     1.0  0.40992  0.82837  0.27663  1.0000
  H   H3594     1.0  0.47541  0.85242  0.29347  1.0000
  H   H3595     1.0  0.42405  0.94784  0.23600  1.0000
  H   H3596     1.0  0.52813  0.87099  0.25904  1.0000
  H   H3597     1.0  0.43941  0.93812  0.24587  1.0000
  H   H3598     1.0  0.40129  0.81009  0.28690  1.0000
  N   N230      1.0  0.41615  0.81666  0.27869  1.0000
  C   C2256     1.0  0.42580  0.81494  0.26928  1.0000
  C   C2257     1.0  0.40858  0.80914  0.27976  1.0000
  H   H3599     1.0  0.34606  0.85877  0.25213  1.0000
  H   H3600     1.0  0.34184  0.87314  0.34371  1.0000
  H   H3601     1.0  0.63995  0.87337  0.26958  1.0000
  C   C2258     1.0  0.36489  0.88241  0.32696  1.0000
  C   C2259     1.0  0.60178  0.83519  0.25957  1.0000
  H   H3602     1.0  0.45315  0.84686  0.23895  1.0000
  H   H3603     1.0  0.60191  0.96612  0.28973  1.0000
  S   S896      1.0  0.38521  0.82075  0.24300  1.0000
  H   H3604     1.0  0.36097  0.88070  0.34911  1.0000
  S   S897      1.0  0.58121  0.83872  0.24043  1.0000
  S   S898      1.0  0.45665  0.88714  0.23549  1.0000
  H   H3605     1.0  0.50521  0.88435  0.24336  1.0000
  H   H3606     1.0  0.52037  0.85486  0.24304  1.0000
  H   H3607     1.0  0.41960  0.86397  0.24891  1.0000
  C   C2260     1.0  0.34934  0.86659  0.24870  1.0000
  H   H3608     1.0  0.65122  0.90025  0.31554  1.0000
  C   C2261     1.0  0.36658  0.85677  0.23877  1.0000
  C   C2262     1.0  0.33468  0.86355  0.32597  1.0000
  C   C2263     1.0  0.65414  0.89516  0.30902  1.0000
  H   H3609     1.0  0.51334  0.87256  0.26435  1.0000
  H   H3610     1.0  0.64717  0.86851  0.25711  1.0000
  H   H3611     1.0  0.62183  0.96173  0.24310  1.0000
  Fe  Fe448     1.0  0.58466  0.93997  0.24170  1.0000
  H   H3612     1.0  0.65977  0.92037  0.39375  1.0000
  H   H3613     1.0  0.41745  0.89460  0.23833  1.0000
  H   H3614     1.0  0.62221  0.88998  0.24943  1.0000
  H   H3615     1.0  0.50596  0.87215  0.23829  1.0000
  H   H3616     1.0  0.45379  0.93849  0.23899  1.0000
  H   H3617     1.0  0.62928  0.87562  0.24996  1.0000
  H   H3618     1.0  0.51894  0.88392  0.25479  1.0000
  H   H3619     1.0  0.53570  0.87055  0.23834  1.0000
  H   H3620     1.0  0.34639  0.87073  0.24079  1.0000
  C   C2264     1.0  0.64469  0.88838  0.24302  1.0000
  H   H3621     1.0  0.41846  0.83657  0.23706  1.0000
  H   H3622     1.0  0.33721  0.84025  0.34665  1.0000
  H   H3623     1.0  0.44630  0.93019  0.23534  1.0000
  H   H3624     1.0  0.64665  0.88134  0.23866  1.0000
  C   C2265     1.0  0.61125  0.97702  0.23643  1.0000
  H   H3625     1.0  0.66104  0.90951  0.29038  1.0000
  C   C2266     1.0  0.44547  0.93827  0.23770  1.0000
  Fe  Fe449     1.0  0.60887  0.92747  0.23777  1.0000
  H   H3626     1.0  0.66352  0.91305  0.30219  1.0000
  C   C2267     1.0  0.43063  0.91356  0.23577  1.0000
  H   H3627     1.0  0.66431  0.88965  0.28935  1.0000
  C   C2268     1.0  0.62076  0.98733  0.24789  1.0000
  H   H3628     1.0  0.52609  0.88354  0.23539  1.0000
  H   H3629     1.0  0.64002  0.89581  0.23794  1.0000
  C   C2269     1.0  0.66646  0.90690  0.29667  1.0000
  C   C2270     1.0  0.60817  0.98861  0.23578  1.0000
  N   N231      1.0  0.66589  0.89548  0.30316  1.0000
  C   C2271     1.0  0.66607  0.92317  0.41134  1.0000
  H   H3630     1.0  0.66590  0.93229  0.40877  1.0000
  C   C2272     1.0  0.57275  0.86110  0.23515  1.0000
  S   S899      1.0  0.66024  0.92380  0.65645  1.0000
  Fe  Fe450     1.0  0.36599  0.88637  0.71015  1.0000
  H   H3631     1.0  0.37534  0.86169  0.72786  1.0000
  S   S900      1.0  0.38418  0.87743  0.70776  1.0000
  N   N232      1.0  0.38620  0.92397  0.73044  1.0000
  H   H3632     1.0  0.63197  0.90644  0.67438  1.0000
  Fe  Fe451     1.0  0.53601  0.90649  0.73284  1.0000
  H   H3633     1.0  0.61266  0.91547  0.66244  1.0000
  S   S901      1.0  0.35137  0.87775  0.71459  1.0000
  S   S902      1.0  0.35797  0.90088  0.69836  1.0000
  C   C2273     1.0  0.48920  0.89959  0.72149  1.0000
  S   S903      1.0  0.61361  0.89127  0.71230  1.0000
  C   C2274     1.0  0.62381  0.90391  0.67861  1.0000
  S   S904      1.0  0.62262  0.91191  0.71592  1.0000
  H   H3634     1.0  0.34451  0.92423  0.66694  1.0000
  Fe  Fe452     1.0  0.60606  0.90794  0.71675  1.0000
  S   S905      1.0  0.59224  0.92050  0.70957  1.0000
  Fe  Fe453     1.0  0.63001  0.89449  0.71308  1.0000
  S   S906      1.0  0.64513  0.88889  0.70009  1.0000
  C   C2275     1.0  0.61620  0.92064  0.68603  1.0000
  S   S907      1.0  0.54957  0.89939  0.71965  1.0000
  H   H3635     1.0  0.58992  0.89793  0.71180  1.0000
  H   H3636     1.0  0.35142  0.93618  0.67535  1.0000
  H   H3637     1.0  0.58114  0.88284  0.73445  1.0000
  H   H3638     1.0  0.62256  0.89826  0.67390  1.0000
  S   S908      1.0  0.41835  0.90740  0.70504  1.0000
  H   H3639     1.0  0.66482  0.89957  0.66146  1.0000
  S   S909      1.0  0.47209  0.89305  0.71684  1.0000
  C   C2276     1.0  0.37745  0.91890  0.72914  1.0000
  H   H3640     1.0  0.48117  0.84255  0.72682  1.0000
  S   S910      1.0  0.44410  0.88409  0.71596  1.0000
  S   S911      1.0  0.44057  0.90883  0.72127  1.0000
  H   H3641     1.0  0.34575  0.91320  0.67903  1.0000
  H   H3642     1.0  0.62193  0.92341  0.66377  1.0000
  H   H3643     1.0  0.50232  0.90563  0.72475  1.0000
  H   H3644     1.0  0.48464  0.86913  0.73153  1.0000
  C   C2277     1.0  0.61395  0.92043  0.66785  1.0000
  Fe  Fe454     1.0  0.43025  0.89938  0.71669  1.0000
  H   H3645     1.0  0.61674  0.91578  0.69459  1.0000
  H   H3646     1.0  0.35715  0.94601  0.71491  1.0000
  H   H3647     1.0  0.49391  0.89812  0.71338  1.0000
  H   H3648     1.0  0.64641  0.92661  0.67766  1.0000
  C   C2278     1.0  0.64918  0.89865  0.68798  1.0000
  C   C2279     1.0  0.65612  0.89486  0.67853  1.0000
  H   H3649     1.0  0.39509  0.92463  0.71340  1.0000
  H   H3650     1.0  0.46070  0.92007  0.72024  1.0000
  H   H3651     1.0  0.38025  0.90969  0.73005  1.0000
  Fe  Fe455     1.0  0.45353  0.89291  0.72258  1.0000
  S   S912      1.0  0.62862  0.88654  0.73131  1.0000
  C   C2280     1.0  0.58038  0.91465  0.71228  1.0000
  C   C2281     1.0  0.58164  0.90322  0.71301  1.0000
  C   C2282     1.0  0.57215  0.89864  0.71499  1.0000
  C   C2283     1.0  0.56135  0.90536  0.71678  1.0000
  C   C2284     1.0  0.56006  0.91674  0.71637  1.0000
  C   C2285     1.0  0.56959  0.92143  0.71383  1.0000
  H   H3652     1.0  0.61087  0.92692  0.73066  1.0000
  C   C2286     1.0  0.64566  0.91010  0.68763  1.0000
  H   H3653     1.0  0.55172  0.92197  0.71768  1.0000
  H   H3654     1.0  0.56858  0.93030  0.71312  1.0000
  H   H3655     1.0  0.40340  0.92495  0.72271  1.0000
  H   H3656     1.0  0.57317  0.88985  0.71524  1.0000
  C   C2287     1.0  0.35386  0.94116  0.72292  1.0000
  H   H3657     1.0  0.62477  0.89891  0.68707  1.0000
  H   H3658     1.0  0.37992  0.93991  0.72060  1.0000
  H   H3659     1.0  0.41960  0.88355  0.71184  1.0000
  C   C2288     1.0  0.39355  0.88587  0.70709  1.0000
  C   C2289     1.0  0.39068  0.89749  0.70374  1.0000
  C   C2290     1.0  0.39841  0.90404  0.70289  1.0000
  C   C2291     1.0  0.40885  0.89906  0.70586  1.0000
  C   C2292     1.0  0.41155  0.88748  0.70957  1.0000
  C   C2293     1.0  0.40403  0.88089  0.70995  1.0000
  H   H3660     1.0  0.38264  0.90140  0.70146  1.0000
  H   H3661     1.0  0.39630  0.91298  0.69991  1.0000
  H   H3662     1.0  0.59931  0.94604  0.73042  1.0000
  H   H3663     1.0  0.40638  0.87192  0.71245  1.0000
  C   C2294     1.0  0.65962  0.90251  0.66879  1.0000
  S   S913      1.0  0.35212  0.92671  0.71110  1.0000
  H   H3664     1.0  0.47074  0.92309  0.72612  1.0000
  H   H3665     1.0  0.65876  0.88599  0.67874  1.0000
  N   N233      1.0  0.45382  0.93237  0.73049  1.0000
  Fe  Fe456     1.0  0.34259  0.89318  0.70398  1.0000
  C   C2295     1.0  0.35059  0.93125  0.72347  1.0000
  C   C2296     1.0  0.44406  0.93780  0.72520  1.0000
  C   C2297     1.0  0.60369  0.90999  0.68435  1.0000
  H   H3666     1.0  0.35266  0.92506  0.68735  1.0000
  H   H3667     1.0  0.59644  0.91719  0.68515  1.0000
  N   N234      1.0  0.61441  0.91373  0.67921  1.0000
  H   H3668     1.0  0.60196  0.90483  0.67940  1.0000
  S   S914      1.0  0.36040  0.89484  0.72462  1.0000
  C   C2298     1.0  0.65615  0.91396  0.66848  1.0000
  C   C2299     1.0  0.39710  0.85162  0.72797  1.0000
  C   C2300     1.0  0.64909  0.91774  0.67788  1.0000
  H   H3669     1.0  0.46557  0.93291  0.71470  1.0000
  H   H3670     1.0  0.60912  0.92798  0.68692  1.0000
  H   H3671     1.0  0.64042  0.91309  0.69492  1.0000
  C   C2301     1.0  0.47824  0.89761  0.72535  1.0000
  H   H3672     1.0  0.40567  0.85173  0.72874  1.0000
  Fe  Fe457     1.0  0.35117  0.90873  0.71332  1.0000
  H   H3673     1.0  0.62411  0.92378  0.68234  1.0000
  S   S915      1.0  0.52268  0.92223  0.73122  1.0000
  H   H3674     1.0  0.60379  0.90488  0.69291  1.0000
  H   H3675     1.0  0.60696  0.92792  0.66800  1.0000
  Fe  Fe458     1.0  0.61972  0.90372  0.73406  1.0000
  H   H3676     1.0  0.44101  0.93163  0.72258  1.0000
  H   H3677     1.0  0.58545  0.93207  0.73008  1.0000
  H   H3678     1.0  0.38751  0.87280  0.73008  1.0000
  H   H3679     1.0  0.43685  0.94188  0.73103  1.0000
  H   H3680     1.0  0.38873  0.94036  0.72943  1.0000
  H   H3681     1.0  0.41093  0.94120  0.72383  1.0000
  C   C2302     1.0  0.41182  0.93863  0.73243  1.0000
  H   H3682     1.0  0.39569  0.85711  0.71983  1.0000
  H   H3683     1.0  0.44622  0.94428  0.71765  1.0000
  Fe  Fe459     1.0  0.61158  0.88475  0.73072  1.0000
  C   C2303     1.0  0.38221  0.93621  0.72887  1.0000
  H   H3684     1.0  0.46028  0.94735  0.72639  1.0000
  C   C2304     1.0  0.46309  0.92689  0.72254  1.0000
  C   C2305     1.0  0.49400  0.90380  0.72793  1.0000
  Fe  Fe460     1.0  0.34533  0.88732  0.72838  1.0000
  H   H3685     1.0  0.42183  0.92247  0.73057  1.0000
  H   H3686     1.0  0.37530  0.92228  0.72076  1.0000
  C   C2306     1.0  0.34004  0.92087  0.67547  1.0000
  N   N235      1.0  0.33664  0.92919  0.68262  1.0000
  C   C2307     1.0  0.39655  0.92134  0.72204  1.0000
  H   H3687     1.0  0.39708  0.84299  0.72754  1.0000
  H   H3688     1.0  0.39977  0.91216  0.72301  1.0000
  S   S916      1.0  0.42168  0.89342  0.73425  1.0000
  C   C2308     1.0  0.34674  0.93241  0.68360  1.0000
  H   H3689     1.0  0.48198  0.86677  0.71401  1.0000
  H   H3690     1.0  0.34451  0.93852  0.68913  1.0000
  H   H3691     1.0  0.56390  0.87698  0.73400  1.0000
  H   H3692     1.0  0.56638  0.94230  0.72820  1.0000
  C   C2309     1.0  0.48277  0.84855  0.73091  1.0000
  H   H3693     1.0  0.46720  0.87200  0.71775  1.0000
  H   H3694     1.0  0.56044  0.93007  0.73411  1.0000
  H   H3695     1.0  0.47221  0.85864  0.71400  1.0000
  H   H3696     1.0  0.49125  0.85032  0.72669  1.0000
  C   C2310     1.0  0.47386  0.86426  0.71850  1.0000
  N   N236      1.0  0.47399  0.85892  0.73031  1.0000
  H   H3697     1.0  0.35524  0.95257  0.73223  1.0000
  H   H3698     1.0  0.33625  0.91669  0.69763  1.0000
  C   C2311     1.0  0.45768  0.94084  0.73375  1.0000
  C   C2312     1.0  0.35285  0.94485  0.73271  1.0000
  H   H3699     1.0  0.46070  0.85040  0.73210  1.0000
  H   H3700     1.0  0.33570  0.87311  0.69009  1.0000
  C   C2313     1.0  0.34629  0.92505  0.73385  1.0000
  Fe  Fe461     1.0  0.43615  0.87878  0.73392  1.0000
  S   S917      1.0  0.33538  0.90205  0.71839  1.0000
  H   H3701     1.0  0.34370  0.91743  0.73434  1.0000
  H   H3702     1.0  0.37644  0.84731  0.73489  1.0000
  Fe  Fe462     1.0  0.35242  0.69456  0.92184  1.0000
  S   S918      1.0  0.36169  0.67712  0.92009  1.0000
  H   H3703     1.0  0.55617  0.74389  0.89112  1.0000
  Fe  Fe463     1.0  0.35031  0.70143  0.89780  1.0000
  S   S919      1.0  0.35965  0.68487  0.89366  1.0000
  S   S920      1.0  0.42678  0.91141  0.75224  1.0000
  Fe  Fe464     1.0  0.34917  0.67755  0.90991  1.0000
  Fe  Fe465     1.0  0.37138  0.68563  0.90398  1.0000
  S   S921      1.0  0.39028  0.68095  0.89802  1.0000
  S   S922      1.0  0.36298  0.70290  0.90645  1.0000
  Fe  Fe466     1.0  0.37768  0.75957  0.86768  1.0000
  S   S923      1.0  0.36049  0.76946  0.87311  1.0000
  S   S924      1.0  0.38107  0.74372  0.86162  1.0000
  Fe  Fe467     1.0  0.38896  0.77540  0.87272  1.0000
  S   S925      1.0  0.37268  0.78675  0.87864  1.0000
  S   S926      1.0  0.40584  0.77785  0.87288  1.0000
  Fe  Fe468     1.0  0.36704  0.77061  0.88748  1.0000
  S   S927      1.0  0.35762  0.76478  0.90494  1.0000
  Fe  Fe469     1.0  0.36778  0.78447  0.86369  1.0000
  S   S928      1.0  0.35969  0.79642  0.85000  1.0000
  S   S929      1.0  0.38378  0.75955  0.88264  1.0000
  S   S930      1.0  0.38457  0.77434  0.85718  1.0000
  Fe  Fe470     1.0  0.37365  0.85281  0.81346  1.0000
  S   S931      1.0  0.38638  0.84508  0.80008  1.0000
  S   S932      1.0  0.37139  0.84440  0.83175  1.0000
  Fe  Fe471     1.0  0.36821  0.87530  0.79751  1.0000
  S   S933      1.0  0.38073  0.86950  0.78297  1.0000
  S   S934      1.0  0.35717  0.89236  0.79365  1.0000
  Fe  Fe472     1.0  0.37386  0.85396  0.78919  1.0000
  S   S935      1.0  0.36968  0.84643  0.77703  1.0000
  Fe  Fe473     1.0  0.39202  0.86132  0.79511  1.0000
  S   S936      1.0  0.41015  0.86247  0.79131  1.0000
  S   S937      1.0  0.36048  0.86019  0.80304  1.0000
  S   S938      1.0  0.38017  0.86866  0.80911  1.0000
  Fe  Fe474     1.0  0.59225  0.75317  0.96937  1.0000
  S   S939      1.0  0.58308  0.74314  0.96429  1.0000
  S   S940      1.0  0.60415  0.76221  0.95578  1.0000
  H   H3704     1.0  0.43064  0.69960  0.93502  1.0000
  H   H3705     1.0  0.63920  0.77592  0.88172  1.0000
  Fe  Fe475     1.0  0.51681  0.72081  0.92962  1.0000
  S   S941      1.0  0.51842  0.73305  0.93880  1.0000
  S   S942      1.0  0.49894  0.71840  0.93255  1.0000
  Fe  Fe476     1.0  0.54196  0.71592  0.92001  1.0000
  S   S943      1.0  0.54560  0.72775  0.92824  1.0000
  S   S944      1.0  0.55677  0.70757  0.90859  1.0000
  Fe  Fe477     1.0  0.53364  0.72054  0.94315  1.0000
  S   S945      1.0  0.53834  0.71608  0.95986  1.0000
  Fe  Fe478     1.0  0.53020  0.73921  0.92314  1.0000
  S   S946      1.0  0.52896  0.75764  0.91656  1.0000
  S   S947      1.0  0.53121  0.70762  0.93539  1.0000
  S   S948      1.0  0.52741  0.72809  0.91348  1.0000
  Fe  Fe479     1.0  0.38158  0.75277  0.95721  1.0000
  S   S949      1.0  0.39360  0.73804  0.95141  1.0000
  S   S950      1.0  0.37852  0.76818  0.94378  1.0000
  Fe  Fe480     1.0  0.38212  0.72785  0.96402  1.0000
  S   S951      1.0  0.38239  0.71211  0.95865  1.0000
  Fe  Fe481     1.0  0.40173  0.73686  0.96537  1.0000
  S   S952      1.0  0.42035  0.73126  0.96374  1.0000
  H   H3706     1.0  0.58791  0.92320  0.74311  1.0000
  S   S953      1.0  0.34296  0.71686  0.88657  1.0000
  Fe  Fe482     1.0  0.43494  0.71055  0.90609  1.0000
  S   S954      1.0  0.42989  0.72846  0.89809  1.0000
  S   S955      1.0  0.41983  0.70323  0.91590  1.0000
  Fe  Fe483     1.0  0.45982  0.71164  0.89940  1.0000
  S   S956      1.0  0.45650  0.72960  0.89049  1.0000
  S   S957      1.0  0.47814  0.70394  0.89949  1.0000
  Fe  Fe484     1.0  0.44265  0.73171  0.90537  1.0000
  S   S958      1.0  0.43840  0.74699  0.91256  1.0000
  Fe  Fe485     1.0  0.44409  0.72470  0.88397  1.0000
  S   S959      1.0  0.43939  0.73205  0.86738  1.0000
  S   S960      1.0  0.44661  0.71410  0.91484  1.0000
  S   S961      1.0  0.44850  0.70639  0.89140  1.0000
  S   S962      1.0  0.64945  0.66783  0.90134  1.0000
  S   S963      1.0  0.35793  0.98852  0.76864  1.0000
  Fe  Fe486     1.0  0.59050  0.86507  0.80111  1.0000
  S   S964      1.0  0.59838  0.86238  0.81575  1.0000
  S   S965      1.0  0.59582  0.85230  0.79042  1.0000
  Fe  Fe487     1.0  0.57338  0.88546  0.80712  1.0000
  S   S966      1.0  0.57948  0.88444  0.82243  1.0000
  S   S967      1.0  0.56035  0.89998  0.80108  1.0000
  Fe  Fe488     1.0  0.59654  0.88102  0.81140  1.0000
  S   S968      1.0  0.61006  0.88962  0.81101  1.0000
  Fe  Fe489     1.0  0.58060  0.86594  0.82542  1.0000
  S   S969      1.0  0.57298  0.85549  0.84162  1.0000
  S   S970      1.0  0.59040  0.88335  0.79583  1.0000
  S   S971      1.0  0.57283  0.86737  0.81100  1.0000
  Fe  Fe490     1.0  0.61931  0.70236  0.90386  1.0000
  S   S972      1.0  0.61914  0.68451  0.90509  1.0000
  S   S973      1.0  0.61094  0.71612  0.89162  1.0000
  Fe  Fe491     1.0  0.62843  0.69700  0.92483  1.0000
  S   S974      1.0  0.62874  0.67866  0.92825  1.0000
  S   S975      1.0  0.63299  0.70584  0.93557  1.0000
  Fe  Fe492     1.0  0.63590  0.68036  0.90985  1.0000
  H   H3707     1.0  0.52142  0.91048  0.78052  1.0000
  Fe  Fe493     1.0  0.61197  0.68424  0.92319  1.0000
  S   S976      1.0  0.59649  0.67725  0.93163  1.0000
  S   S977      1.0  0.63688  0.69841  0.90676  1.0000
  S   S978      1.0  0.61097  0.70238  0.92168  1.0000
  Fe  Fe494     1.0  0.59454  0.79823  0.87788  1.0000
  S   S979      1.0  0.59796  0.78131  0.87389  1.0000
  S   S980      1.0  0.60265  0.81094  0.86425  1.0000
  Fe  Fe495     1.0  0.58477  0.78955  0.90237  1.0000
  S   S981      1.0  0.58765  0.77194  0.90038  1.0000
  S   S982      1.0  0.57688  0.79278  0.91954  1.0000
  Fe  Fe496     1.0  0.60421  0.77507  0.88974  1.0000
  S   S983      1.0  0.62043  0.76271  0.89069  1.0000
  Fe  Fe497     1.0  0.58107  0.77987  0.88480  1.0000
  S   S984      1.0  0.56968  0.77241  0.87937  1.0000
  S   S985      1.0  0.60200  0.79195  0.89317  1.0000
  S   S986      1.0  0.57685  0.79746  0.88744  1.0000
  Fe  Fe498     1.0  0.58266  0.95959  0.76508  1.0000
  S   S987      1.0  0.58923  0.96638  0.77605  1.0000
  H   H3708     1.0  0.35786  0.72215  0.91894  1.0000
  Fe  Fe499     1.0  0.56236  0.95416  0.78287  1.0000
  S   S988      1.0  0.56699  0.96086  0.79539  1.0000
  S   S989      1.0  0.54819  0.94493  0.78748  1.0000
  Fe  Fe500     1.0  0.57129  0.97499  0.78114  1.0000
  Fe  Fe501     1.0  0.58449  0.95171  0.78918  1.0000
  S   S990      1.0  0.59597  0.94235  0.80095  1.0000
  S   S991      1.0  0.56494  0.96906  0.76917  1.0000
  S   S992      1.0  0.57962  0.94409  0.77765  1.0000
  H   H3709     1.0  0.36962  0.66477  0.88198  1.0000
  H   H3710     1.0  0.61508  0.92495  0.76361  1.0000
  C   C2314     1.0  0.33651  0.74497  0.91720  1.0000
  S   S993      1.0  0.51544  0.91590  0.75860  1.0000
  H   H3711     1.0  0.55438  0.72975  0.89456  1.0000
  H   H3712     1.0  0.46387  0.89793  0.73899  1.0000
  H   H3713     1.0  0.35515  0.72970  0.89932  1.0000
  Fe  Fe502     1.0  0.52929  0.90074  0.75783  1.0000
  S   S994      1.0  0.53297  0.88769  0.77287  1.0000
  H   H3714     1.0  0.35354  0.78784  0.83352  1.0000
  H   H3715     1.0  0.34195  0.73995  0.87650  1.0000
  Fe  Fe503     1.0  0.38190  0.95788  0.75004  1.0000
  S   S995      1.0  0.38185  0.96178  0.76622  1.0000
  H   H3716     1.0  0.41161  0.89710  0.78804  1.0000
  Fe  Fe504     1.0  0.35885  0.95216  0.75775  1.0000
  S   S996      1.0  0.35647  0.95625  0.77451  1.0000
  Fe  Fe505     1.0  0.36424  0.97104  0.76521  1.0000
  H   H3717     1.0  0.51533  0.93376  0.78613  1.0000
  Fe  Fe506     1.0  0.37420  0.94671  0.77403  1.0000
  S   S997      1.0  0.37883  0.93345  0.78868  1.0000
  S   S998      1.0  0.37620  0.94182  0.75791  1.0000
  H   H3718     1.0  0.35463  0.74368  0.90044  1.0000
  H   H3719     1.0  0.44309  0.92766  0.74645  1.0000
  C   C2315     1.0  0.39025  0.84754  0.74790  1.0000
  H   H3720     1.0  0.56895  0.88068  0.76470  1.0000
  C   C2316     1.0  0.40717  0.94219  0.75105  1.0000
  C   C2317     1.0  0.41386  0.93183  0.75472  1.0000
  H   H3721     1.0  0.40278  0.94754  0.75687  1.0000
  H   H3722     1.0  0.41467  0.92928  0.76334  1.0000
  H   H3723     1.0  0.40523  0.70630  0.96361  1.0000
  H   H3724     1.0  0.38978  0.91184  0.77160  1.0000
  N   N237      1.0  0.35896  0.96529  0.80562  1.0000
  H   H3725     1.0  0.37036  0.85810  0.74265  1.0000
  H   H3726     1.0  0.35847  0.72163  0.95971  1.0000
  H   H3727     1.0  0.38524  0.89407  0.78245  1.0000
  H   H3728     1.0  0.40410  0.91358  0.76768  1.0000
  H   H3729     1.0  0.60844  0.98624  0.74522  1.0000
  C   C2318     1.0  0.53545  0.94226  0.75798  1.0000
  C   C2319     1.0  0.53521  0.93374  0.76755  1.0000
  C   C2320     1.0  0.53899  0.93469  0.77666  1.0000
  C   C2321     1.0  0.54336  0.94395  0.77607  1.0000
  C   C2322     1.0  0.54374  0.95237  0.76644  1.0000
  C   C2323     1.0  0.53963  0.95160  0.75749  1.0000
  H   H3730     1.0  0.53209  0.92648  0.76791  1.0000
  H   H3731     1.0  0.53872  0.92818  0.78412  1.0000
  H   H3732     1.0  0.54691  0.95963  0.76598  1.0000
  H   H3733     1.0  0.53977  0.95824  0.75012  1.0000
  C   C2324     1.0  0.33702  0.72633  0.91558  1.0000
  H   H3734     1.0  0.46995  0.87448  0.73564  1.0000
  C   C2325     1.0  0.41809  0.92805  0.73623  1.0000
  C   C2326     1.0  0.61401  0.72900  0.89086  1.0000
  C   C2327     1.0  0.62369  0.72955  0.89394  1.0000
  C   C2328     1.0  0.62592  0.73995  0.89345  1.0000
  C   C2329     1.0  0.61831  0.74978  0.89016  1.0000
  C   C2330     1.0  0.60864  0.74923  0.88710  1.0000
  C   C2331     1.0  0.60656  0.73886  0.88734  1.0000
  H   H3735     1.0  0.62954  0.72197  0.89656  1.0000
  H   H3736     1.0  0.63343  0.74034  0.89580  1.0000
  H   H3737     1.0  0.60274  0.75678  0.88450  1.0000
  H   H3738     1.0  0.59910  0.73848  0.88493  1.0000
  C   C2332     1.0  0.58139  0.84351  0.84836  1.0000
  C   C2333     1.0  0.59310  0.84122  0.84494  1.0000
  C   C2334     1.0  0.59952  0.83122  0.84994  1.0000
  C   C2335     1.0  0.59429  0.82350  0.85843  1.0000
  C   C2336     1.0  0.58259  0.82584  0.86195  1.0000
  C   C2337     1.0  0.57616  0.83585  0.85695  1.0000
  H   H3739     1.0  0.59722  0.84714  0.83846  1.0000
  H   H3740     1.0  0.60858  0.82949  0.84725  1.0000
  H   H3741     1.0  0.57848  0.81996  0.86852  1.0000
  H   H3742     1.0  0.56710  0.83761  0.85966  1.0000
  C   C2338     1.0  0.55340  0.89628  0.79284  1.0000
  C   C2339     1.0  0.55079  0.90379  0.78318  1.0000
  C   C2340     1.0  0.54479  0.90106  0.77678  1.0000
  C   C2341     1.0  0.54123  0.89092  0.78019  1.0000
  C   C2342     1.0  0.54401  0.88335  0.78974  1.0000
  C   C2343     1.0  0.55014  0.88600  0.79604  1.0000
  H   H3743     1.0  0.55343  0.91169  0.78065  1.0000
  H   H3744     1.0  0.54269  0.90693  0.76941  1.0000
  H   H3745     1.0  0.54127  0.87549  0.79238  1.0000
  H   H3746     1.0  0.55202  0.88025  0.80357  1.0000
  C   C2344     1.0  0.60601  0.90426  0.80792  1.0000
  C   C2345     1.0  0.59774  0.90974  0.80167  1.0000
  C   C2346     1.0  0.59500  0.92148  0.79896  1.0000
  C   C2347     1.0  0.60007  0.92773  0.80300  1.0000
  C   C2348     1.0  0.60829  0.92222  0.80926  1.0000
  C   C2349     1.0  0.61139  0.91054  0.81154  1.0000
  H   H3747     1.0  0.59356  0.90495  0.79880  1.0000
  H   H3748     1.0  0.58884  0.92568  0.79393  1.0000
  H   H3749     1.0  0.61227  0.92700  0.81238  1.0000
  H   H3750     1.0  0.61781  0.90637  0.81634  1.0000
  H   H3751     1.0  0.39874  0.84694  0.74933  1.0000
  H   H3752     1.0  0.62888  0.75185  0.98155  1.0000
  S   S999      1.0  0.33799  0.87975  0.74605  1.0000
  C   C2350     1.0  0.61158  0.92947  0.75639  1.0000
  H   H3753     1.0  0.62011  0.88967  0.76182  1.0000
  H   H3754     1.0  0.61968  0.66248  0.92414  1.0000
  C   C2351     1.0  0.60316  0.86470  0.75263  1.0000
  C   C2352     1.0  0.60309  0.85344  0.75736  1.0000
  C   C2353     1.0  0.60095  0.84974  0.76896  1.0000
  C   C2354     1.0  0.59862  0.85730  0.77591  1.0000
  C   C2355     1.0  0.59851  0.86861  0.77120  1.0000
  C   C2356     1.0  0.60097  0.87230  0.75955  1.0000
  H   H3755     1.0  0.57964  0.86376  0.74303  1.0000
  H   H3756     1.0  0.60102  0.84099  0.77254  1.0000
  H   H3757     1.0  0.59648  0.87452  0.77650  1.0000
  H   H3758     1.0  0.60087  0.88103  0.75593  1.0000
  C   C2357     1.0  0.42629  0.73630  0.94989  1.0000
  C   C2358     1.0  0.42090  0.74636  0.94405  1.0000
  C   C2359     1.0  0.42513  0.74999  0.93268  1.0000
  C   C2360     1.0  0.43437  0.74328  0.92705  1.0000
  C   C2361     1.0  0.43990  0.73332  0.93295  1.0000
  C   C2362     1.0  0.43596  0.72992  0.94443  1.0000
  H   H3759     1.0  0.41347  0.75137  0.94829  1.0000
  H   H3760     1.0  0.42101  0.75782  0.92822  1.0000
  H   H3761     1.0  0.44723  0.72826  0.92869  1.0000
  H   H3762     1.0  0.44019  0.72218  0.94897  1.0000
  C   C2363     1.0  0.54048  0.76137  0.90631  1.0000
  C   C2364     1.0  0.55156  0.75660  0.90761  1.0000
  C   C2365     1.0  0.56060  0.76035  0.89960  1.0000
  C   C2366     1.0  0.55855  0.76850  0.89009  1.0000
  C   C2367     1.0  0.54751  0.77308  0.88875  1.0000
  C   C2368     1.0  0.53849  0.76972  0.89696  1.0000
  H   H3763     1.0  0.55310  0.75020  0.91488  1.0000
  H   H3764     1.0  0.56916  0.75682  0.90063  1.0000
  H   H3765     1.0  0.54590  0.77934  0.88138  1.0000
  H   H3766     1.0  0.52995  0.77348  0.89598  1.0000
  C   C2369     1.0  0.56758  0.69889  0.91516  1.0000
  C   C2370     1.0  0.56525  0.69221  0.92582  1.0000
  C   C2371     1.0  0.57413  0.68513  0.93069  1.0000
  C   C2372     1.0  0.58533  0.68515  0.92513  1.0000
  C   C2373     1.0  0.58758  0.69202  0.91459  1.0000
  C   C2374     1.0  0.57877  0.69863  0.90951  1.0000
  H   H3767     1.0  0.55661  0.69228  0.93019  1.0000
  H   H3768     1.0  0.57232  0.67982  0.93885  1.0000
  H   H3769     1.0  0.59612  0.69226  0.91025  1.0000
  H   H3770     1.0  0.58069  0.70367  0.90124  1.0000
  C   C2375     1.0  0.49371  0.71368  0.92343  1.0000
  C   C2376     1.0  0.50024  0.71153  0.91317  1.0000
  C   C2377     1.0  0.49546  0.70838  0.90592  1.0000
  C   C2378     1.0  0.48410  0.70758  0.90880  1.0000
  C   C2379     1.0  0.47762  0.70968  0.91908  1.0000
  C   C2380     1.0  0.48242  0.71266  0.92638  1.0000
  H   H3771     1.0  0.50895  0.71229  0.91082  1.0000
  H   H3772     1.0  0.50054  0.70667  0.89802  1.0000
  H   H3773     1.0  0.46894  0.70888  0.92148  1.0000
  H   H3774     1.0  0.47735  0.71422  0.93434  1.0000
  C   C2381     1.0  0.60441  0.71021  0.96574  1.0000
  C   C2382     1.0  0.60625  0.70110  0.96076  1.0000
  C   C2383     1.0  0.61499  0.69977  0.95144  1.0000
  C   C2384     1.0  0.62226  0.70723  0.94743  1.0000
  C   C2385     1.0  0.62063  0.71616  0.95262  1.0000
  C   C2386     1.0  0.61154  0.71781  0.96159  1.0000
  C   C2387     1.0  0.47226  0.89949  0.73586  1.0000
  H   H3775     1.0  0.61627  0.69281  0.94751  1.0000
  H   H3776     1.0  0.62631  0.72187  0.94962  1.0000
  H   H3777     1.0  0.61020  0.72480  0.96547  1.0000
  C   C2388     1.0  0.59675  0.77124  0.94579  1.0000
  C   C2389     1.0  0.60233  0.77395  0.93466  1.0000
  C   C2390     1.0  0.59627  0.78045  0.92650  1.0000
  C   C2391     1.0  0.58472  0.78475  0.92956  1.0000
  C   C2392     1.0  0.57927  0.78245  0.94077  1.0000
  C   C2393     1.0  0.58520  0.77545  0.94881  1.0000
  H   H3778     1.0  0.61130  0.77086  0.93233  1.0000
  H   H3779     1.0  0.60056  0.78234  0.91788  1.0000
  H   H3780     1.0  0.57042  0.78598  0.94324  1.0000
  H   H3781     1.0  0.58083  0.77351  0.95739  1.0000
  H   H3782     1.0  0.43258  0.69197  0.94866  1.0000
  C   C2394     1.0  0.54116  0.72735  0.96344  1.0000
  C   C2395     1.0  0.53795  0.73830  0.95768  1.0000
  C   C2396     1.0  0.54086  0.74711  0.96027  1.0000
  H   H3783     1.0  0.53310  0.73998  0.95135  1.0000
  H   H3784     1.0  0.53802  0.75558  0.95608  1.0000
  C   C2397     1.0  0.41666  0.86138  0.77758  1.0000
  C   C2398     1.0  0.41159  0.85750  0.77121  1.0000
  C   C2399     1.0  0.41668  0.85721  0.76002  1.0000
  C   C2400     1.0  0.42665  0.86108  0.75517  1.0000
  C   C2401     1.0  0.43169  0.86496  0.76155  1.0000
  C   C2402     1.0  0.42679  0.86495  0.77279  1.0000
  H   H3785     1.0  0.40381  0.85464  0.77493  1.0000
  H   H3786     1.0  0.41278  0.85423  0.75509  1.0000
  H   H3787     1.0  0.43946  0.86781  0.75788  1.0000
  H   H3788     1.0  0.43077  0.86787  0.77773  1.0000
  C   C2403     1.0  0.36273  0.90389  0.79295  1.0000
  C   C2404     1.0  0.35997  0.91375  0.78521  1.0000
  C   C2405     1.0  0.36473  0.92291  0.78406  1.0000
  C   C2406     1.0  0.37220  0.92229  0.79071  1.0000
  C   C2407     1.0  0.37468  0.91256  0.79872  1.0000
  C   C2408     1.0  0.36995  0.90335  0.79984  1.0000
  H   H3789     1.0  0.35425  0.91430  0.77997  1.0000
  H   H3790     1.0  0.36257  0.93043  0.77800  1.0000
  H   H3791     1.0  0.38036  0.91208  0.80397  1.0000
  S   S1000     1.0  0.34643  0.94339  0.75548  1.0000
  H   H3792     1.0  0.35799  0.77868  0.82386  1.0000
  C   C2409     1.0  0.38860  0.91941  0.74173  1.0000
  H   H3793     1.0  0.55837  0.92962  0.75847  1.0000
  C   C2410     1.0  0.36117  0.85587  0.76823  1.0000
  C   C2411     1.0  0.36338  0.86646  0.76282  1.0000
  H   H3794     1.0  0.39491  0.92335  0.74308  1.0000
  S   S1001     1.0  0.62174  0.91095  0.74753  1.0000
  N   N238      1.0  0.34387  0.73470  0.91391  1.0000
  C   C2412     1.0  0.36544  0.65777  0.88690  1.0000
  C   C2413     1.0  0.36305  0.80971  0.84494  1.0000
  C   C2414     1.0  0.36360  0.81477  0.83363  1.0000
  C   C2415     1.0  0.36617  0.82543  0.82944  1.0000
  C   C2416     1.0  0.36791  0.83116  0.83662  1.0000
  C   C2417     1.0  0.36718  0.82615  0.84796  1.0000
  C   C2418     1.0  0.36489  0.81539  0.85210  1.0000
  H   H3795     1.0  0.36209  0.81044  0.82808  1.0000
  H   H3796     1.0  0.36669  0.82925  0.82069  1.0000
  H   H3797     1.0  0.36838  0.83062  0.85356  1.0000
  H   H3798     1.0  0.36422  0.81164  0.86087  1.0000
  C   C2419     1.0  0.41578  0.76565  0.87051  1.0000
  C   C2420     1.0  0.41427  0.75923  0.86382  1.0000
  C   C2421     1.0  0.42191  0.74920  0.86237  1.0000
  C   C2422     1.0  0.43077  0.74529  0.86804  1.0000
  C   C2423     1.0  0.43228  0.75171  0.87474  1.0000
  C   C2424     1.0  0.42494  0.76201  0.87576  1.0000
  H   H3799     1.0  0.40727  0.76202  0.85967  1.0000
  H   H3800     1.0  0.42080  0.74435  0.85707  1.0000
  H   H3801     1.0  0.43915  0.74876  0.87910  1.0000
  H   H3802     1.0  0.42615  0.76694  0.88094  1.0000
  C   C2425     1.0  0.36302  0.76607  0.91586  1.0000
  C   C2426     1.0  0.36905  0.77435  0.91433  1.0000
  C   C2427     1.0  0.37348  0.77511  0.92308  1.0000
  C   C2428     1.0  0.37226  0.76737  0.93326  1.0000
  C   C2429     1.0  0.36630  0.75904  0.93477  1.0000
  C   C2430     1.0  0.36152  0.75853  0.92615  1.0000
  H   H3803     1.0  0.37016  0.78026  0.90646  1.0000
  H   H3804     1.0  0.37799  0.78163  0.92193  1.0000
  H   H3805     1.0  0.36525  0.75310  0.94263  1.0000
  H   H3806     1.0  0.35678  0.75217  0.92744  1.0000
  C   C2431     1.0  0.35697  0.70619  0.94198  1.0000
  C   C2432     1.0  0.35347  0.71365  0.94925  1.0000
  C   C2433     1.0  0.36128  0.71604  0.95394  1.0000
  C   C2434     1.0  0.37260  0.71069  0.95167  1.0000
  S   S1002     1.0  0.59113  0.95918  0.74731  1.0000
  H   H3807     1.0  0.37114  0.69540  0.93379  1.0000
  C   C2435     1.0  0.39849  0.68711  0.90306  1.0000
  C   C2436     1.0  0.39352  0.69377  0.91097  1.0000
  C   C2437     1.0  0.40017  0.69871  0.91474  1.0000
  C   C2438     1.0  0.41181  0.69727  0.91046  1.0000
  C   C2439     1.0  0.41681  0.69065  0.90252  1.0000
  C   C2440     1.0  0.41018  0.68547  0.89895  1.0000
  H   H3808     1.0  0.38457  0.69495  0.91435  1.0000
  H   H3809     1.0  0.39625  0.70365  0.92104  1.0000
  H   H3810     1.0  0.42582  0.68923  0.89940  1.0000
  H   H3811     1.0  0.41411  0.68017  0.89298  1.0000
  C   C2441     1.0  0.35351  0.72411  0.87895  1.0000
  C   C2442     1.0  0.36479  0.71854  0.87718  1.0000
  C   C2443     1.0  0.37324  0.72455  0.87155  1.0000
  C   C2444     1.0  0.37044  0.73617  0.86814  1.0000
  C   C2445     1.0  0.35916  0.74171  0.86997  1.0000
  C   C2446     1.0  0.35068  0.73566  0.87513  1.0000
  H   H3812     1.0  0.38192  0.72018  0.87006  1.0000
  H   H3813     1.0  0.35693  0.75062  0.86736  1.0000
  S   S1003     1.0  0.34175  0.66203  0.91272  1.0000
  N   N239      1.0  0.56160  0.92544  0.81516  1.0000
  C   C2447     1.0  0.55224  0.93526  0.81604  1.0000
  C   C2448     1.0  0.57107  0.92692  0.81905  1.0000
  C   C2449     1.0  0.56533  0.92432  0.80342  1.0000
  C   C2450     1.0  0.55775  0.91526  0.82205  1.0000
  H   H3814     1.0  0.54505  0.93447  0.81296  1.0000
  H   H3815     1.0  0.55490  0.94305  0.81087  1.0000
  H   H3816     1.0  0.54913  0.93639  0.82478  1.0000
  H   H3817     1.0  0.57819  0.91955  0.81871  1.0000
  H   H3818     1.0  0.57442  0.93436  0.81381  1.0000
  H   H3819     1.0  0.56851  0.92807  0.82781  1.0000
  H   H3820     1.0  0.55835  0.92335  0.80015  1.0000
  H   H3821     1.0  0.57225  0.91688  0.80241  1.0000
  H   H3822     1.0  0.56832  0.93181  0.79799  1.0000
  H   H3823     1.0  0.55487  0.91574  0.83099  1.0000
  H   H3824     1.0  0.56461  0.90771  0.82142  1.0000
  H   H3825     1.0  0.55069  0.91384  0.81922  1.0000
  N   N240      1.0  0.50844  0.91892  0.79205  1.0000
  C   C2451     1.0  0.50874  0.93013  0.78485  1.0000
  C   C2452     1.0  0.58158  0.92659  0.73774  1.0000
  C   C2453     1.0  0.49951  0.91451  0.79017  1.0000
  C   C2454     1.0  0.50615  0.91971  0.80386  1.0000
  H   H3826     1.0  0.50056  0.93607  0.78655  1.0000
  C   C2455     1.0  0.60034  0.94616  0.74702  1.0000
  C   C2456     1.0  0.35066  0.76096  0.83828  1.0000
  H   H3827     1.0  0.33474  0.67231  0.89124  1.0000
  C   C2457     1.0  0.34948  0.73729  0.90205  1.0000
  C   C2458     1.0  0.33466  0.65779  0.90458  1.0000
  H   H3828     1.0  0.50100  0.91382  0.78132  1.0000
  H   H3829     1.0  0.49108  0.92000  0.79215  1.0000
  H   H3830     1.0  0.49914  0.90600  0.79538  1.0000
  C   C2459     1.0  0.37715  0.85562  0.73561  1.0000
  H   H3831     1.0  0.50591  0.91139  0.80953  1.0000
  C   C2460     1.0  0.61372  0.92460  0.74716  1.0000
  C   C2461     1.0  0.54725  0.72526  0.97178  1.0000
  H   H3832     1.0  0.55496  0.94217  0.74008  1.0000
  H   H3833     1.0  0.40149  0.82569  0.84397  1.0000
  C   C2462     1.0  0.45046  0.92395  0.74053  1.0000
  S   S1004     1.0  0.60254  0.90116  0.73512  1.0000
  H   H3834     1.0  0.62733  0.78483  0.88841  1.0000
  C   C2463     1.0  0.54754  0.74494  0.96816  1.0000
  H   H3835     1.0  0.55511  0.88798  0.74061  1.0000
  H   H3836     1.0  0.35054  0.84437  0.77038  1.0000
  H   H3837     1.0  0.37029  0.86905  0.76427  1.0000
  N   N241      1.0  0.47269  0.74673  0.91305  1.0000
  C   C2464     1.0  0.46256  0.75303  0.91945  1.0000
  C   C2465     1.0  0.46962  0.73774  0.90985  1.0000
  C   C2466     1.0  0.48123  0.74183  0.91999  1.0000
  C   C2467     1.0  0.47736  0.75431  0.90289  1.0000
  H   H3838     1.0  0.46457  0.75977  0.92218  1.0000
  H   H3839     1.0  0.45870  0.74746  0.92703  1.0000
  H   H3840     1.0  0.45600  0.75695  0.91439  1.0000
  H   H3841     1.0  0.46585  0.73199  0.91729  1.0000
  H   H3842     1.0  0.46330  0.74118  0.90448  1.0000
  H   H3843     1.0  0.47708  0.73262  0.90520  1.0000
  H   H3844     1.0  0.48901  0.73702  0.91542  1.0000
  H   H3845     1.0  0.47807  0.73597  0.92770  1.0000
  H   H3846     1.0  0.48378  0.74833  0.92261  1.0000
  H   H3847     1.0  0.47982  0.76119  0.90498  1.0000
  H   H3848     1.0  0.47112  0.75814  0.89745  1.0000
  H   H3849     1.0  0.48498  0.74975  0.89789  1.0000
  N   N242      1.0  0.62524  0.88875  0.77694  1.0000
  C   C2468     1.0  0.61673  0.89873  0.77958  1.0000
  C   C2469     1.0  0.62675  0.88055  0.78738  1.0000
  C   C2470     1.0  0.63603  0.89205  0.77106  1.0000
  C   C2471     1.0  0.62140  0.88370  0.76976  1.0000
  C   C2472     1.0  0.35247  0.73021  0.92081  1.0000
  H   H3850     1.0  0.57222  0.92168  0.75949  1.0000
  S   S1005     1.0  0.33903  0.69422  0.91330  1.0000
  H   H3851     1.0  0.63312  0.87291  0.78575  1.0000
  H   H3852     1.0  0.62950  0.88414  0.79307  1.0000
  H   H3853     1.0  0.61873  0.87792  0.79205  1.0000
  H   H3854     1.0  0.64264  0.88475  0.76886  1.0000
  H   H3855     1.0  0.63913  0.89591  0.77627  1.0000
  H   H3856     1.0  0.63515  0.89829  0.76317  1.0000
  H   H3857     1.0  0.61328  0.88115  0.77399  1.0000
  H   H3858     1.0  0.62761  0.87616  0.76756  1.0000
  H   H3859     1.0  0.33551  0.90481  0.76779  1.0000
  N   N243      1.0  0.55028  0.77441  0.93187  1.0000
  C   C2473     1.0  0.55925  0.77173  0.92223  1.0000
  C   C2474     1.0  0.54026  0.77039  0.93195  1.0000
  C   C2475     1.0  0.54730  0.78662  0.93102  1.0000
  C   C2476     1.0  0.55434  0.76889  0.94227  1.0000
  H   H3860     1.0  0.56695  0.77459  0.92196  1.0000
  H   H3861     1.0  0.55652  0.77588  0.91421  1.0000
  H   H3862     1.0  0.56167  0.76260  0.92258  1.0000
  H   H3863     1.0  0.53333  0.77219  0.93916  1.0000
  H   H3864     1.0  0.53695  0.77440  0.92422  1.0000
  H   H3865     1.0  0.54219  0.76121  0.93251  1.0000
  H   H3866     1.0  0.54046  0.78897  0.93810  1.0000
  H   H3867     1.0  0.54444  0.79108  0.92314  1.0000
  H   H3868     1.0  0.55465  0.78989  0.93111  1.0000
  H   H3869     1.0  0.55631  0.75964  0.94343  1.0000
  H   H3870     1.0  0.54796  0.77109  0.94972  1.0000
  H   H3871     1.0  0.56212  0.77139  0.94235  1.0000
  N   N244      1.0  0.40041  0.80837  0.84953  1.0000
  C   C2477     1.0  0.39660  0.80006  0.84596  1.0000
  C   C2478     1.0  0.39895  0.81913  0.84142  1.0000
  C   C2479     1.0  0.41242  0.80434  0.85009  1.0000
  C   C2480     1.0  0.39369  0.80988  0.86067  1.0000
  H   H3872     1.0  0.39784  0.79180  0.85179  1.0000
  H   H3873     1.0  0.41559  0.81039  0.85276  1.0000
  H   H3874     1.0  0.38750  0.80269  0.84568  1.0000
  H   H3875     1.0  0.39004  0.82232  0.84061  1.0000
  H   H3876     1.0  0.40134  0.79883  0.83750  1.0000
  H   H3877     1.0  0.40402  0.81834  0.83295  1.0000
  H   H3878     1.0  0.41380  0.79624  0.85618  1.0000
  S   S1006     1.0  0.52431  0.89586  0.74448  1.0000
  H   H3879     1.0  0.41774  0.80298  0.84186  1.0000
  H   H3880     1.0  0.38458  0.81292  0.86057  1.0000
  H   H3881     1.0  0.39634  0.81605  0.86368  1.0000
  H   H3882     1.0  0.39457  0.80188  0.86696  1.0000
  S   S1007     1.0  0.39664  0.95778  0.73575  1.0000
  N   N245      1.0  0.38838  0.85536  0.73733  1.0000
  C   C2481     1.0  0.63548  0.78480  0.88227  1.0000
  C   C2482     1.0  0.57460  0.86635  0.75091  1.0000
  H   H3883     1.0  0.39747  0.86681  0.73896  1.0000
  H   H3884     1.0  0.35153  0.75347  0.84519  1.0000
  H   H3885     1.0  0.65066  0.79472  0.86634  1.0000
  H   H3886     1.0  0.36398  0.97982  0.80684  1.0000
  H   H3887     1.0  0.61803  0.78771  0.87276  1.0000
  N   N246      1.0  0.56846  0.87809  0.74878  1.0000
  C   C2483     1.0  0.60271  0.94143  0.73768  1.0000
  H   H3888     1.0  0.60851  0.89654  0.78414  1.0000
  H   H3889     1.0  0.58470  0.69969  0.93742  1.0000
  C   C2484     1.0  0.60478  0.94017  0.75637  1.0000
  H   H3890     1.0  0.62786  0.66040  0.90471  1.0000
  H   H3891     1.0  0.59164  0.70719  0.94269  1.0000
  C   C2485     1.0  0.36750  0.97083  0.80662  1.0000
  S   S1008     1.0  0.59831  0.73928  0.98288  1.0000
  H   H3892     1.0  0.61812  0.75303  0.97417  1.0000
  C   C2486     1.0  0.55071  0.73399  0.97391  1.0000
  H   H3893     1.0  0.61313  0.72377  0.93012  1.0000
  H   H3894     1.0  0.34198  0.76271  0.83680  1.0000
  C   C2487     1.0  0.62862  0.80345  0.87247  1.0000
  H   H3895     1.0  0.36757  0.94872  0.81219  1.0000
  H   H3896     1.0  0.51064  0.92985  0.77585  1.0000
  C   C2488     1.0  0.34970  0.96547  0.81556  1.0000
  C   C2489     1.0  0.61856  0.77333  0.97674  1.0000
  H   H3897     1.0  0.35091  0.98026  0.79560  1.0000
  C   C2490     1.0  0.57647  0.88536  0.74246  1.0000
  H   H3898     1.0  0.34638  0.78058  0.85354  1.0000
  C   C2491     1.0  0.47647  0.86664  0.73581  1.0000
  H   H3899     1.0  0.37464  0.93848  0.73535  1.0000
  C   C2492     1.0  0.46288  0.85623  0.73599  1.0000
  N   N247      1.0  0.58236  0.82951  0.82133  1.0000
  C   C2493     1.0  0.59057  0.83608  0.82098  1.0000
  C   C2494     1.0  0.58841  0.81919  0.81730  1.0000
  C   C2495     1.0  0.57444  0.83621  0.81412  1.0000
  C   C2496     1.0  0.57606  0.82664  0.83292  1.0000
  H   H3900     1.0  0.59664  0.83137  0.82640  1.0000
  H   H3901     1.0  0.58625  0.84395  0.82390  1.0000
  H   H3902     1.0  0.59551  0.83841  0.81238  1.0000
  H   H3903     1.0  0.58249  0.81402  0.81742  1.0000
  H   H3904     1.0  0.59327  0.82115  0.80858  1.0000
  H   H3905     1.0  0.59446  0.81399  0.82258  1.0000
  H   H3906     1.0  0.56960  0.84394  0.81712  1.0000
  H   H3907     1.0  0.56827  0.83145  0.81395  1.0000
  H   H3908     1.0  0.57897  0.83887  0.80538  1.0000
  H   H3909     1.0  0.57118  0.83428  0.83608  1.0000
  H   H3910     1.0  0.58182  0.82197  0.83870  1.0000
  H   H3911     1.0  0.56999  0.82142  0.83360  1.0000
  N   N248      1.0  0.41187  0.71588  0.87350  1.0000
  C   C2497     1.0  0.41637  0.71605  0.88305  1.0000
  C   C2498     1.0  0.40668  0.70607  0.87615  1.0000
  C   C2499     1.0  0.42110  0.71526  0.86356  1.0000
  C   C2500     1.0  0.40330  0.72616  0.87121  1.0000
  H   H3912     1.0  0.42009  0.72351  0.88136  1.0000
  H   H3913     1.0  0.42313  0.70858  0.88482  1.0000
  H   H3914     1.0  0.40970  0.71622  0.89078  1.0000
  H   H3915     1.0  0.39992  0.70604  0.88384  1.0000
  H   H3916     1.0  0.40280  0.70592  0.86930  1.0000
  H   H3917     1.0  0.41301  0.69815  0.87751  1.0000
  H   H3918     1.0  0.42484  0.72280  0.86102  1.0000
  H   H3919     1.0  0.41810  0.71468  0.85630  1.0000
  H   H3920     1.0  0.42803  0.70790  0.86517  1.0000
  H   H3921     1.0  0.40018  0.72656  0.86368  1.0000
  H   H3922     1.0  0.40672  0.73379  0.86966  1.0000
  H   H3923     1.0  0.39590  0.72668  0.87829  1.0000
  N   N249      1.0  0.40169  0.75053  0.91159  1.0000
  C   C2501     1.0  0.40771  0.74036  0.91812  1.0000
  C   C2502     1.0  0.39027  0.74916  0.91211  1.0000
  C   C2503     1.0  0.40785  0.75238  0.89986  1.0000
  C   C2504     1.0  0.40091  0.76026  0.91626  1.0000
  H   H3924     1.0  0.40340  0.73894  0.92705  1.0000
  H   H3925     1.0  0.41644  0.74101  0.91773  1.0000
  H   H3926     1.0  0.40825  0.73280  0.91498  1.0000
  H   H3927     1.0  0.38533  0.74799  0.92084  1.0000
  H   H3928     1.0  0.38555  0.75661  0.90713  1.0000
  H   H3929     1.0  0.39053  0.74181  0.90879  1.0000
  H   H3930     1.0  0.40371  0.76022  0.89480  1.0000
  H   H3931     1.0  0.40832  0.74543  0.89585  1.0000
  H   H3932     1.0  0.41664  0.75311  0.89921  1.0000
  H   H3933     1.0  0.39608  0.76802  0.91177  1.0000
  H   H3934     1.0  0.40939  0.76177  0.91557  1.0000
  H   H3935     1.0  0.39664  0.75907  0.92524  1.0000
  N   N250      1.0  0.57098  0.73199  0.88563  1.0000
  C   C2505     1.0  0.57524  0.72958  0.89597  1.0000
  C   C2506     1.0  0.57383  0.72171  0.88120  1.0000
  C   C2507     1.0  0.57626  0.74069  0.87728  1.0000
  C   C2508     1.0  0.55863  0.73598  0.88805  1.0000
  H   H3936     1.0  0.57353  0.73720  0.89937  1.0000
  H   H3937     1.0  0.58450  0.72616  0.89453  1.0000
  H   H3938     1.0  0.57114  0.72333  0.90258  1.0000
  H   H3939     1.0  0.58306  0.71823  0.87966  1.0000
  H   H3940     1.0  0.56966  0.71510  0.88714  1.0000
  H   H3941     1.0  0.57104  0.72328  0.87322  1.0000
  H   H3942     1.0  0.57460  0.74845  0.88049  1.0000
  H   H3943     1.0  0.57296  0.74303  0.86951  1.0000
  H   H3944     1.0  0.58555  0.73781  0.87498  1.0000
  H   H3945     1.0  0.55509  0.73759  0.88051  1.0000
  C   C2509     1.0  0.42880  0.70020  0.94394  1.0000
  C   C2510     1.0  0.41914  0.92467  0.74736  1.0000
  S   S1009     1.0  0.54211  0.91000  0.74629  1.0000
  C   C2511     1.0  0.35444  0.97125  0.79556  1.0000
  H   H3946     1.0  0.36700  0.70959  0.88006  1.0000
  C   C2512     1.0  0.37611  0.70330  0.94432  1.0000
  S   S1010     1.0  0.36930  0.74276  0.96912  1.0000
  H   H3947     1.0  0.39670  0.91259  0.78191  1.0000
  S   S1011     1.0  0.36473  0.96799  0.74838  1.0000
  H   H3948     1.0  0.39605  0.88249  0.78638  1.0000
  C   C2513     1.0  0.56625  0.92515  0.75376  1.0000
  C   C2514     1.0  0.36836  0.70119  0.93935  1.0000
  S   S1012     1.0  0.57712  0.76118  0.98071  1.0000
  C   C2515     1.0  0.64480  0.79152  0.86338  1.0000
  Fe  Fe507     1.0  0.43298  0.90156  0.73884  1.0000
  C   C2516     1.0  0.56285  0.93700  0.73617  1.0000
  C   C2517     1.0  0.39798  0.90929  0.77427  1.0000
  H   H3949     1.0  0.62430  0.73012  0.93008  1.0000
  H   H3950     1.0  0.39604  0.89502  0.76283  1.0000
  H   H3951     1.0  0.38263  0.86970  0.74487  1.0000
  C   C2518     1.0  0.57649  0.70960  0.96121  1.0000
  Fe  Fe508     1.0  0.37974  0.74151  0.98166  1.0000
  C   C2519     1.0  0.34757  0.87038  0.75377  1.0000
  H   H3952     1.0  0.60309  0.94383  0.76358  1.0000
  Fe  Fe509     1.0  0.58767  0.72994  0.97883  1.0000
  H   H3953     1.0  0.41862  0.70987  0.96140  1.0000
  H   H3954     1.0  0.38693  0.98739  0.78870  1.0000
  H   H3955     1.0  0.40709  0.88385  0.76726  1.0000
  N   N251      1.0  0.40204  0.89704  0.77635  1.0000
  C   C2520     1.0  0.40394  0.89306  0.76594  1.0000
  C   C2521     1.0  0.39352  0.89171  0.78493  1.0000
  H   H3956     1.0  0.61526  0.90505  0.77189  1.0000
  H   H3957     1.0  0.41033  0.89694  0.75927  1.0000
  H   H3958     1.0  0.36110  0.97078  0.78788  1.0000
  H   H3959     1.0  0.45740  0.92013  0.74510  1.0000
  H   H3960     1.0  0.62706  0.80894  0.86437  1.0000
  C   C2522     1.0  0.47707  0.90362  0.74231  1.0000
  H   H3961     1.0  0.41438  0.68638  0.95164  1.0000
  H   H3962     1.0  0.37084  0.96679  0.81432  1.0000
  H   H3963     1.0  0.38946  0.83899  0.74799  1.0000
  S   S1013     1.0  0.49273  0.91274  0.74602  1.0000
  H   H3964     1.0  0.40176  0.69684  0.95058  1.0000
  H   H3965     1.0  0.38483  0.69905  0.94256  1.0000
  H   H3966     1.0  0.37479  0.97047  0.79944  1.0000
  C   C2523     1.0  0.41269  0.89407  0.78029  1.0000
  H   H3967     1.0  0.39235  0.89400  0.79307  1.0000
  H   H3968     1.0  0.57151  0.69022  0.96055  1.0000
  H   H3969     1.0  0.41579  0.88486  0.78223  1.0000
  N   N252      1.0  0.57469  0.70639  0.95159  1.0000
  H   H3970     1.0  0.51953  0.90274  0.79457  1.0000
  H   H3971     1.0  0.57885  0.98503  0.75947  1.0000
  C   C2524     1.0  0.36452  0.76786  0.84297  1.0000
  H   H3972     1.0  0.41209  0.69454  0.93828  1.0000
  C   C2525     1.0  0.41098  0.69489  0.94716  1.0000
  C   C2526     1.0  0.34532  0.85988  0.75930  1.0000
  S   S1014     1.0  0.39097  0.75265  0.97009  1.0000
  N   N253      1.0  0.57097  0.93273  0.74362  1.0000
  H   H3973     1.0  0.64564  0.65745  0.92498  1.0000
  H   H3974     1.0  0.41402  0.71459  0.93288  1.0000
  H   H3975     1.0  0.37192  0.89581  0.80599  1.0000
  H   H3976     1.0  0.58970  0.69348  0.95006  1.0000
  H   H3977     1.0  0.41941  0.89774  0.77392  1.0000
  H   H3978     1.0  0.64109  0.78777  0.88577  1.0000
  Fe  Fe510     1.0  0.52786  0.92486  0.74583  1.0000
  N   N254      1.0  0.35296  0.77066  0.84100  1.0000
  H   H3979     1.0  0.60469  0.84756  0.75204  1.0000
  N   N255      1.0  0.63382  0.79182  0.87129  1.0000
  C   C2527     1.0  0.56739  0.69813  0.95562  1.0000
  H   H3980     1.0  0.41556  0.72102  0.94321  1.0000
  H   H3981     1.0  0.56848  0.71346  0.96622  1.0000
  H   H3982     1.0  0.34525  0.76625  0.85836  1.0000
  C   C2528     1.0  0.36423  0.95361  0.80468  1.0000
  N   N256      1.0  0.41656  0.70329  0.94830  1.0000
  C   C2529     1.0  0.34841  0.93873  0.74308  1.0000
  H   H3983     1.0  0.55670  0.87610  0.76451  1.0000
  C   C2530     1.0  0.55995  0.87925  0.74225  1.0000
  C   C2531     1.0  0.37446  0.98775  0.77969  1.0000
  H   H3984     1.0  0.54948  0.71684  0.97645  1.0000
  C   C2532     1.0  0.34507  0.92886  0.74361  1.0000
  C   C2533     1.0  0.41203  0.71439  0.94195  1.0000
  H   H3985     1.0  0.33820  0.85738  0.75816  1.0000
  H   H3986     1.0  0.60089  0.69509  0.96408  1.0000
  C   C2534     1.0  0.41440  0.70373  0.96019  1.0000
  H   H3987     1.0  0.38085  0.92096  0.74827  1.0000
  H   H3988     1.0  0.41750  0.69546  0.96531  1.0000
  H   H3989     1.0  0.62986  0.77865  0.86621  1.0000
  H   H3990     1.0  0.64381  0.79673  0.85502  1.0000
  H   H3991     1.0  0.55374  0.87390  0.74673  1.0000
  H   H3992     1.0  0.57445  0.72279  0.94122  1.0000
  H   H3993     1.0  0.64890  0.78285  0.86229  1.0000
  H   H3994     1.0  0.52639  0.91433  0.79066  1.0000
  C   C2535     1.0  0.59974  0.98479  0.74707  1.0000
  H   H3995     1.0  0.51278  0.92298  0.80554  1.0000
  H   H3996     1.0  0.35851  0.88174  0.75113  1.0000
  H   H3997     1.0  0.61935  0.90280  0.78495  1.0000
  H   H3998     1.0  0.59586  0.73568  0.92391  1.0000
  H   H3999     1.0  0.40272  0.71664  0.94450  1.0000
  S   S1015     1.0  0.55210  0.75591  0.97051  1.0000
  H   H4000     1.0  0.35806  0.73613  0.91942  1.0000
  H   H4001     1.0  0.62481  0.79260  0.85878  1.0000
  H   H4002     1.0  0.43322  0.70652  0.94442  1.0000
  H   H4003     1.0  0.34764  0.96761  0.79475  1.0000
  S   S1016     1.0  0.60480  0.86915  0.73814  1.0000
  S   S1017     1.0  0.39127  0.72565  0.97765  1.0000
  C   C2536     1.0  0.56281  0.88142  0.75952  1.0000
  C   C2537     1.0  0.62637  0.78748  0.86702  1.0000
  H   H4004     1.0  0.46253  0.85233  0.74497  1.0000
  H   H4005     1.0  0.62118  0.72992  0.91722  1.0000
  H   H4006     1.0  0.34613  0.87895  0.78684  1.0000
  H   H4007     1.0  0.38400  0.85027  0.75517  1.0000
  H   H4008     1.0  0.56092  0.72027  0.94898  1.0000
  H   H4009     1.0  0.62126  0.75117  0.92601  1.0000
  H   H4010     1.0  0.60417  0.74219  0.91134  1.0000
  H   H4011     1.0  0.63400  0.80706  0.87563  1.0000
  H   H4012     1.0  0.34726  0.89672  0.77386  1.0000
  H   H4013     1.0  0.59955  0.73548  0.94237  1.0000
  H   H4014     1.0  0.60942  0.75916  0.91997  1.0000
  C   C2538     1.0  0.61533  0.75091  0.92102  1.0000
  C   C2539     1.0  0.60047  0.74260  0.92023  1.0000
  H   H4015     1.0  0.59790  0.75045  0.93865  1.0000
  H   H4016     1.0  0.62029  0.80398  0.87835  1.0000
  C   C2540     1.0  0.57321  0.94218  0.74682  1.0000
  N   N257      1.0  0.60927  0.74172  0.92631  1.0000
  H   H4017     1.0  0.62036  0.74996  0.91260  1.0000
  H   H4018     1.0  0.59423  0.75065  0.92035  1.0000
  C   C2541     1.0  0.35226  0.85255  0.76627  1.0000
  H   H4019     1.0  0.56518  0.69609  0.94859  1.0000
  C   C2542     1.0  0.61730  0.73093  0.92592  1.0000
  H   H4020     1.0  0.35713  0.66152  0.89161  1.0000
  C   C2543     1.0  0.60404  0.74241  0.93804  1.0000
  H   H4021     1.0  0.61045  0.74185  0.94286  1.0000
  H   H4022     1.0  0.37788  0.97933  0.77843  1.0000
  H   H4023     1.0  0.34315  0.96131  0.81507  1.0000
  C   C2544     1.0  0.56921  0.71637  0.94437  1.0000
  H   H4024     1.0  0.34553  0.97419  0.81644  1.0000
  H   H4025     1.0  0.58202  0.71577  0.95855  1.0000
  H   H4026     1.0  0.35281  0.96107  0.82333  1.0000
  Fe  Fe511     1.0  0.56832  0.74991  0.97665  1.0000
  H   H4027     1.0  0.55566  0.73225  0.98016  1.0000
  C   C2545     1.0  0.51941  0.91131  0.78935  1.0000
  H   H4028     1.0  0.58045  0.70224  0.96694  1.0000
  C   C2546     1.0  0.58565  0.70148  0.94516  1.0000
  H   H4029     1.0  0.49793  0.92540  0.80622  1.0000
  H   H4030     1.0  0.34228  0.71849  0.91312  1.0000
  H   H4031     1.0  0.55932  0.70136  0.96106  1.0000
  H   H4032     1.0  0.58056  0.86508  0.75642  1.0000
  H   H4033     1.0  0.58549  0.98656  0.79136  1.0000
  H   H4034     1.0  0.34337  0.89220  0.76340  1.0000
  H   H4035     1.0  0.48308  0.84430  0.73971  1.0000
  S   S1018     1.0  0.34688  0.70328  0.93640  1.0000
  C   C2547     1.0  0.48784  0.90601  0.73829  1.0000
  C   C2548     1.0  0.35676  0.87361  0.75536  1.0000
  H   H4036     1.0  0.56420  0.91804  0.75168  1.0000
  H   H4037     1.0  0.56763  0.71419  0.93707  1.0000
  C   C2549     1.0  0.33999  0.89614  0.77077  1.0000
  S   S1019     1.0  0.53090  0.94137  0.74636  1.0000
  H   H4038     1.0  0.34142  0.75142  0.91620  1.0000
  C   C2550     1.0  0.38904  0.86666  0.73785  1.0000
  C   C2551     1.0  0.33888  0.87848  0.78366  1.0000
  H   H4039     1.0  0.42897  0.72385  0.98419  1.0000
  C   C2552     1.0  0.60925  0.93059  0.73782  1.0000
  H   H4040     1.0  0.59848  0.98261  0.73961  1.0000
  H   H4041     1.0  0.55802  0.89020  0.75824  1.0000
  S   S1020     1.0  0.44661  0.88626  0.74054  1.0000
  H   H4042     1.0  0.56539  0.94707  0.75122  1.0000
  C   C2553     1.0  0.35189  0.78039  0.83163  1.0000
  H   H4043     1.0  0.47238  0.90510  0.75042  1.0000
  H   H4044     1.0  0.35818  0.94922  0.80352  1.0000
  H   H4045     1.0  0.58289  0.88484  0.74723  1.0000
  Fe  Fe512     1.0  0.51134  0.91184  0.74412  1.0000
  H   H4046     1.0  0.36586  0.65884  0.90767  1.0000
  H   H4047     1.0  0.61727  0.77346  0.96836  1.0000
  C   C2554     1.0  0.61962  0.75345  0.98229  1.0000
  H   H4048     1.0  0.59927  0.97724  0.75388  1.0000
  H   H4049     1.0  0.37091  0.76567  0.83554  1.0000
  S   S1021     1.0  0.43249  0.86173  0.74098  1.0000
  H   H4050     1.0  0.44809  0.91707  0.73835  1.0000
  H   H4051     1.0  0.57820  0.99023  0.74510  1.0000
  C   C2555     1.0  0.34479  0.77341  0.85112  1.0000
  H   H4052     1.0  0.37141  0.95322  0.79738  1.0000
  H   H4053     1.0  0.45093  0.94510  0.73981  1.0000
  C   C2556     1.0  0.40614  0.94557  0.73992  1.0000
  H   H4054     1.0  0.56875  0.86057  0.75509  1.0000
  H   H4055     1.0  0.41976  0.74375  0.98070  1.0000
  H   H4056     1.0  0.34850  0.72856  0.92983  1.0000
  S   S1022     1.0  0.59299  0.71214  0.97692  1.0000
  H   H4057     1.0  0.36566  0.76062  0.85002  1.0000
  H   H4058     1.0  0.36659  0.77498  0.84501  1.0000
  H   H4059     1.0  0.46508  0.93698  0.73775  1.0000
  H   H4060     1.0  0.39199  0.91024  0.74305  1.0000
  H   H4061     1.0  0.60707  0.66597  0.91121  1.0000
  H   H4062     1.0  0.34151  0.92417  0.75160  1.0000
  H   H4063     1.0  0.34328  0.78276  0.82986  1.0000
  H   H4064     1.0  0.61438  0.78168  0.97871  1.0000
  H   H4065     1.0  0.35665  0.75867  0.83066  1.0000
  H   H4066     1.0  0.57924  0.93926  0.75251  1.0000
  H   H4067     1.0  0.57689  0.94805  0.73940  1.0000
  H   H4068     1.0  0.34231  0.87364  0.77695  1.0000
  H   H4069     1.0  0.33600  0.77575  0.84984  1.0000
  H   H4070     1.0  0.60005  0.76658  0.97757  1.0000
  H   H4071     1.0  0.62775  0.77224  0.97610  1.0000
  H   H4072     1.0  0.34466  0.71751  0.95137  1.0000
  H   H4073     1.0  0.37824  0.66259  0.89813  1.0000
  H   H4074     1.0  0.34323  0.74058  0.89661  1.0000
  H   H4075     1.0  0.59220  0.98984  0.76746  1.0000
  H   H4076     1.0  0.47681  0.86286  0.74469  1.0000
  H   H4077     1.0  0.57208  0.89424  0.74040  1.0000
  H   H4078     1.0  0.36954  0.92059  0.73545  1.0000
  H   H4079     1.0  0.45605  0.86384  0.73554  1.0000
  H   H4080     1.0  0.33430  0.89659  0.79253  1.0000
  H   H4081     1.0  0.58017  0.91949  0.73505  1.0000
  C   C2557     1.0  0.68120  0.27515  0.12469  1.0000
  C   C2558     1.0  0.67737  0.28572  0.10683  1.0000
  N   N258      1.0  0.67644  0.28625  0.11851  1.0000
  H   H4082     1.0  0.80128  0.31968  0.18306  1.0000
  H   H4083     1.0  0.66732  0.13095  0.19312  1.0000
  H   H4084     1.0  0.67275  0.27953  0.10636  1.0000
  H   H4085     1.0  0.68628  0.28324  0.10256  1.0000
  H   H4086     1.0  0.68178  0.29553  0.12740  1.0000
  C   C2559     1.0  0.68264  0.29456  0.11875  1.0000
  H   H4087     1.0  0.68057  0.27525  0.13356  1.0000
  H   H4088     1.0  0.67661  0.26875  0.12464  1.0000
  H   H4089     1.0  0.69022  0.27229  0.12094  1.0000
  H   H4090     1.0  0.67941  0.30293  0.11386  1.0000
  H   H4091     1.0  0.69176  0.29218  0.11509  1.0000
  H   H4092     1.0  0.66795  0.12235  0.23060  1.0000
  H   H4093     1.0  0.67378  0.29398  0.10195  1.0000
  H   H4094     1.0  0.66972  0.13143  0.17843  1.0000
  H   H4095     1.0  0.70806  0.05580  0.42081  1.0000
  Fe  Fe513     1.0  0.95584  0.20932  0.40681  1.0000
  S   S1023     1.0  0.94973  0.22765  0.40079  1.0000
  S   S1024     1.0  0.97403  0.20244  0.40811  1.0000
  Fe  Fe514     1.0  0.93225  0.20423  0.41198  1.0000
  S   S1025     1.0  0.92436  0.22214  0.40660  1.0000
  S   S1026     1.0  0.92052  0.19219  0.41958  1.0000
  Fe  Fe515     1.0  0.93915  0.22227  0.39231  1.0000
  S   S1027     1.0  0.93467  0.23108  0.37584  1.0000
  Fe  Fe516     1.0  0.93556  0.22577  0.41556  1.0000
  S   S1028     1.0  0.92908  0.23815  0.42662  1.0000
  S   S1029     1.0  0.94643  0.20392  0.39693  1.0000
  S   S1030     1.0  0.94237  0.20780  0.42230  1.0000
  Fe  Fe517     1.0  0.85618  0.23704  0.46731  1.0000
  Fe  Fe518     1.0  0.88018  0.23081  0.47011  1.0000
  S   S1031     1.0  0.87984  0.24704  0.47415  1.0000
  S   S1032     1.0  0.89568  0.21740  0.46832  1.0000
  Fe  Fe519     1.0  0.87021  0.25473  0.46048  1.0000
  S   S1033     1.0  0.87336  0.27039  0.44796  1.0000
  S   S1034     1.0  0.87243  0.23872  0.45519  1.0000
  H   H4096     1.0  0.95975  0.19610  0.45205  1.0000
  Fe  Fe520     1.0  0.87284  0.26315  0.37593  1.0000
  S   S1035     1.0  0.85733  0.27670  0.37577  1.0000
  S   S1036     1.0  0.87580  0.24567  0.37352  1.0000
  Fe  Fe521     1.0  0.88637  0.27775  0.38003  1.0000
  S   S1037     1.0  0.87196  0.29251  0.38066  1.0000
  S   S1038     1.0  0.90355  0.27795  0.38183  1.0000
  Fe  Fe522     1.0  0.86176  0.27968  0.39069  1.0000
  S   S1039     1.0  0.84970  0.27965  0.40727  1.0000
  Fe  Fe523     1.0  0.86896  0.28828  0.36568  1.0000
  S   S1040     1.0  0.87017  0.29840  0.34796  1.0000
  S   S1041     1.0  0.87653  0.26535  0.39135  1.0000
  S   S1042     1.0  0.88407  0.27423  0.36468  1.0000
  Fe  Fe524     1.0  0.84482  0.17819  0.41071  1.0000
  S   S1043     1.0  0.83577  0.19153  0.42070  1.0000
  S   S1044     1.0  0.83684  0.16353  0.41137  1.0000
  Fe  Fe525     1.0  0.86694  0.18703  0.40441  1.0000
  S   S1045     1.0  0.85930  0.20092  0.41350  1.0000
  S   S1046     1.0  0.88548  0.18471  0.39605  1.0000
  Fe  Fe526     1.0  0.85160  0.18832  0.42712  1.0000
  S   S1047     1.0  0.85459  0.18744  0.44417  1.0000
  Fe  Fe527     1.0  0.84440  0.20296  0.40618  1.0000
  S   S1048     1.0  0.83643  0.22070  0.39960  1.0000
  S   S1049     1.0  0.86008  0.17405  0.41843  1.0000
  S   S1050     1.0  0.85257  0.18999  0.39577  1.0000
  Fe  Fe528     1.0  0.79664  0.13854  0.38855  1.0000
  S   S1051     1.0  0.77832  0.14631  0.39368  1.0000
  S   S1052     1.0  0.80841  0.15105  0.38290  1.0000
  Fe  Fe529     1.0  0.79143  0.11511  0.39526  1.0000
  S   S1053     1.0  0.77310  0.12118  0.40170  1.0000
  S   S1054     1.0  0.79714  0.09634  0.39760  1.0000
  Fe  Fe530     1.0  0.77403  0.13428  0.38600  1.0000
  S   S1055     1.0  0.75758  0.13933  0.37987  1.0000
  Fe  Fe531     1.0  0.77866  0.13264  0.40877  1.0000
  S   S1056     1.0  0.76962  0.13726  0.42512  1.0000
  S   S1057     1.0  0.79239  0.12779  0.37901  1.0000
  S   S1058     1.0  0.79701  0.12525  0.40418  1.0000
  Fe  Fe532     1.0  0.69690  0.10859  0.35483  1.0000
  S   S1059     1.0  0.71524  0.10368  0.34700  1.0000
  S   S1060     1.0  0.68358  0.11407  0.34390  1.0000
  Fe  Fe533     1.0  0.70228  0.10350  0.37838  1.0000
  S   S1061     1.0  0.72070  0.09740  0.37221  1.0000
  S   S1062     1.0  0.69556  0.10256  0.39704  1.0000
  Fe  Fe534     1.0  0.71906  0.11252  0.35839  1.0000
  S   S1063     1.0  0.73350  0.12179  0.35186  1.0000
  Fe  Fe535     1.0  0.71530  0.08925  0.36146  1.0000
  S   S1064     1.0  0.72320  0.07190  0.35896  1.0000
  S   S1065     1.0  0.70065  0.11912  0.36489  1.0000
  S   S1066     1.0  0.69695  0.09363  0.36899  1.0000
  S   S1067     1.0  0.84304  0.23300  0.46073  1.0000
  S   S1068     1.0  0.85337  0.25377  0.47166  1.0000
  Fe  Fe536     1.0  0.74437  0.04342  0.40633  1.0000
  S   S1069     1.0  0.75691  0.04265  0.39021  1.0000
  S   S1070     1.0  0.72658  0.04346  0.40671  1.0000
  Fe  Fe537     1.0  0.76180  0.04214  0.41895  1.0000
  S   S1071     1.0  0.77606  0.04078  0.40411  1.0000
  S   S1072     1.0  0.76411  0.04325  0.43542  1.0000
  Fe  Fe538     1.0  0.76432  0.05456  0.39504  1.0000
  S   S1073     1.0  0.76833  0.07046  0.38318  1.0000
  Fe  Fe539     1.0  0.76722  0.02902  0.40078  1.0000
  S   S1074     1.0  0.77499  0.01223  0.39611  1.0000
  S   S1075     1.0  0.75061  0.05662  0.41018  1.0000
  S   S1076     1.0  0.75418  0.02911  0.41660  1.0000
  Fe  Fe540     1.0  0.72011  0.08509  0.45993  1.0000
  S   S1077     1.0  0.70754  0.10139  0.45938  1.0000
  S   S1078     1.0  0.71721  0.06890  0.45849  1.0000
  Fe  Fe541     1.0  0.73974  0.09594  0.45713  1.0000
  S   S1079     1.0  0.72899  0.11315  0.45589  1.0000
  S   S1080     1.0  0.75843  0.09240  0.45542  1.0000
  Fe  Fe542     1.0  0.71726  0.10489  0.47038  1.0000
  Fe  Fe543     1.0  0.72054  0.10802  0.44500  1.0000
  S   S1081     1.0  0.72002  0.11716  0.42716  1.0000
  S   S1082     1.0  0.72858  0.08786  0.47208  1.0000
  S   S1083     1.0  0.73242  0.09157  0.44515  1.0000
  C   C2560     1.0  0.71841  0.99877  0.41035  1.0000
  C   C2561     1.0  0.76560  0.00622  0.39254  1.0000
  N   N259      1.0  0.73943  0.14034  0.41376  1.0000
  H   H4097     1.0  0.87514  0.27578  0.48082  1.0000
  C   C2562     1.0  0.74717  0.00721  0.38929  1.0000
  C   C2563     1.0  0.75437  0.01170  0.39282  1.0000
  H   H4098     1.0  0.73858  0.01166  0.38931  1.0000
  H   H4099     1.0  0.75125  0.01951  0.39561  1.0000
  C   C2564     1.0  0.75105  0.04956  0.44263  1.0000
  C   C2565     1.0  0.74105  0.04841  0.44064  1.0000
  C   C2566     1.0  0.73064  0.05393  0.44597  1.0000
  C   C2567     1.0  0.73021  0.06101  0.45291  1.0000
  C   C2568     1.0  0.74021  0.06215  0.45491  1.0000
  C   C2569     1.0  0.75061  0.05624  0.44996  1.0000
  H   H4100     1.0  0.74133  0.04317  0.43507  1.0000
  H   H4101     1.0  0.72292  0.05288  0.44459  1.0000
  H   H4102     1.0  0.73993  0.06754  0.46033  1.0000
  H   H4103     1.0  0.75832  0.05715  0.45153  1.0000
  H   H4104     1.0  0.90443  0.26667  0.40869  1.0000
  C   C2570     1.0  0.90489  0.24449  0.41437  1.0000
  C   C2571     1.0  0.88492  0.25060  0.42070  1.0000
  H   H4105     1.0  0.72841  0.12299  0.47713  1.0000
  H   H4106     1.0  0.79675  0.00384  0.41036  1.0000
  H   H4107     1.0  0.90955  0.29014  0.34280  1.0000
  H   H4108     1.0  0.74732  0.12925  0.40245  1.0000
  C   C2572     1.0  0.85932  0.31987  0.35056  1.0000
  C   C2573     1.0  0.68120  0.09404  0.34025  1.0000
  C   C2574     1.0  0.72349  0.06430  0.37244  1.0000
  C   C2575     1.0  0.71671  0.05644  0.37748  1.0000
  C   C2576     1.0  0.71721  0.05028  0.38831  1.0000
  C   C2577     1.0  0.72461  0.05192  0.39390  1.0000
  C   C2578     1.0  0.73117  0.05994  0.38891  1.0000
  C   C2579     1.0  0.73051  0.06622  0.37824  1.0000
  H   H4109     1.0  0.71102  0.05523  0.37306  1.0000
  H   H4110     1.0  0.71208  0.04411  0.39222  1.0000
  H   H4111     1.0  0.73680  0.06134  0.39325  1.0000
  H   H4112     1.0  0.73555  0.07245  0.37447  1.0000
  C   C2580     1.0  0.70245  0.10686  0.40517  1.0000
  C   C2581     1.0  0.69741  0.10700  0.41642  1.0000
  C   C2582     1.0  0.70293  0.10971  0.42333  1.0000
  C   C2583     1.0  0.71343  0.11261  0.41897  1.0000
  C   C2584     1.0  0.71842  0.11260  0.40769  1.0000
  C   C2585     1.0  0.71301  0.10964  0.40085  1.0000
  H   H4113     1.0  0.68915  0.10510  0.41980  1.0000
  H   H4114     1.0  0.69889  0.10990  0.43193  1.0000
  H   H4115     1.0  0.72649  0.11488  0.40417  1.0000
  H   H4116     1.0  0.71696  0.10960  0.39220  1.0000
  C   C2586     1.0  0.76790  0.12481  0.43463  1.0000
  C   C2587     1.0  0.77431  0.11462  0.43214  1.0000
  C   C2588     1.0  0.77197  0.10458  0.43910  1.0000
  C   C2589     1.0  0.76294  0.10476  0.44826  1.0000
  C   C2590     1.0  0.75684  0.11496  0.45098  1.0000
  C   C2591     1.0  0.75943  0.12498  0.44425  1.0000
  H   H4117     1.0  0.78098  0.11444  0.42478  1.0000
  H   H4118     1.0  0.77687  0.09672  0.43711  1.0000
  H   H4119     1.0  0.75003  0.11517  0.45818  1.0000
  H   H4120     1.0  0.75451  0.13286  0.44622  1.0000
  C   C2592     1.0  0.78968  0.08916  0.39289  1.0000
  C   C2593     1.0  0.78237  0.09483  0.38569  1.0000
  C   C2594     1.0  0.77618  0.08895  0.38243  1.0000
  C   C2595     1.0  0.77697  0.07743  0.38662  1.0000
  C   C2596     1.0  0.78431  0.07176  0.39381  1.0000
  C   C2597     1.0  0.79078  0.07758  0.39677  1.0000
  H   H4121     1.0  0.78150  0.10375  0.38262  1.0000
  H   H4122     1.0  0.77054  0.09346  0.37692  1.0000
  H   H4123     1.0  0.78506  0.06288  0.39704  1.0000
  H   H4124     1.0  0.79649  0.07314  0.40229  1.0000
  C   C2598     1.0  0.75267  0.13187  0.37271  1.0000
  C   C2599     1.0  0.75636  0.13297  0.36116  1.0000
  C   C2600     1.0  0.75054  0.12962  0.35497  1.0000
  C   C2601     1.0  0.74093  0.12514  0.36021  1.0000
  C   C2602     1.0  0.73751  0.12352  0.37182  1.0000
  C   C2603     1.0  0.74329  0.12696  0.37801  1.0000
  H   H4125     1.0  0.76330  0.13706  0.35689  1.0000
  H   H4126     1.0  0.75325  0.13095  0.34600  1.0000
  H   H4127     1.0  0.73011  0.12009  0.37596  1.0000
  H   H4128     1.0  0.74013  0.12622  0.38685  1.0000
  C   C2604     1.0  0.82983  0.16000  0.40264  1.0000
  C   C2605     1.0  0.82683  0.14950  0.40575  1.0000
  C   C2606     1.0  0.82070  0.14648  0.39959  1.0000
  C   C2607     1.0  0.81727  0.15398  0.39025  1.0000
  C   C2608     1.0  0.82060  0.16434  0.38689  1.0000
  C   C2609     1.0  0.82676  0.16737  0.39307  1.0000
  H   H4129     1.0  0.82927  0.14365  0.41303  1.0000
  H   H4130     1.0  0.81854  0.13835  0.40212  1.0000
  H   H4131     1.0  0.81817  0.17018  0.37960  1.0000
  H   H4132     1.0  0.82904  0.17545  0.39048  1.0000
  C   C2610     1.0  0.86453  0.23897  0.37999  1.0000
  C   C2611     1.0  0.86655  0.22731  0.38205  1.0000
  C   C2612     1.0  0.85784  0.22170  0.38782  1.0000
  C   C2613     1.0  0.84702  0.22774  0.39136  1.0000
  C   C2614     1.0  0.84489  0.23942  0.38896  1.0000
  C   C2615     1.0  0.85368  0.24504  0.38339  1.0000
  H   H4133     1.0  0.87487  0.22259  0.37932  1.0000
  H   H4134     1.0  0.85951  0.21269  0.38950  1.0000
  H   H4135     1.0  0.83650  0.24411  0.39161  1.0000
  H   H4136     1.0  0.85204  0.25405  0.38170  1.0000
  C   C2616     1.0  0.68801  0.08911  0.29919  1.0000
  H   H4137     1.0  0.90522  0.23650  0.42067  1.0000
  H   H4138     1.0  0.79963  0.01485  0.41500  1.0000
  H   H4139     1.0  0.66853  0.10250  0.30590  1.0000
  C   C2617     1.0  0.67764  0.10567  0.33862  1.0000
  C   C2618     1.0  0.67336  0.10573  0.29753  1.0000
  H   H4140     1.0  0.71189  0.07101  0.40418  1.0000
  C   C2619     1.0  0.89996  0.31192  0.34162  1.0000
  N   N260      1.0  0.78610  0.00735  0.42587  1.0000
  H   H4141     1.0  0.72412  0.00192  0.40247  1.0000
  C   C2620     1.0  0.84630  0.22024  0.45631  1.0000
  C   C2621     1.0  0.83978  0.21864  0.44969  1.0000
  C   C2622     1.0  0.84247  0.20874  0.44566  1.0000
  C   C2623     1.0  0.85143  0.20019  0.44860  1.0000
  C   C2624     1.0  0.85778  0.20170  0.45544  1.0000
  C   C2625     1.0  0.85539  0.21178  0.45909  1.0000
  H   H4142     1.0  0.83265  0.22510  0.44763  1.0000
  H   H4143     1.0  0.83739  0.20757  0.44056  1.0000
  H   H4144     1.0  0.86457  0.19508  0.45797  1.0000
  H   H4145     1.0  0.86042  0.21291  0.46425  1.0000
  C   C2626     1.0  0.86653  0.27315  0.43682  1.0000
  C   C2627     1.0  0.87037  0.28013  0.42672  1.0000
  C   C2628     1.0  0.86544  0.28191  0.41752  1.0000
  C   C2629     1.0  0.85628  0.27715  0.41855  1.0000
  C   C2630     1.0  0.85228  0.27040  0.42874  1.0000
  C   C2631     1.0  0.85755  0.26819  0.43778  1.0000
  H   H4146     1.0  0.87727  0.28404  0.42596  1.0000
  H   H4147     1.0  0.86849  0.28722  0.40972  1.0000
  H   H4148     1.0  0.84510  0.26684  0.42966  1.0000
  H   H4149     1.0  0.85450  0.26282  0.44555  1.0000
  C   C2632     1.0  0.92654  0.24439  0.37711  1.0000
  C   C2633     1.0  0.91938  0.25006  0.36975  1.0000
  C   C2634     1.0  0.91231  0.26037  0.37118  1.0000
  C   C2635     1.0  0.91267  0.26524  0.37972  1.0000
  C   C2636     1.0  0.92014  0.25976  0.38682  1.0000
  C   C2637     1.0  0.92689  0.24924  0.38566  1.0000
  H   H4150     1.0  0.91915  0.24639  0.36307  1.0000
  H   H4151     1.0  0.90673  0.26459  0.36555  1.0000
  H   H4152     1.0  0.92060  0.26354  0.39333  1.0000
  H   H4153     1.0  0.93246  0.24496  0.39132  1.0000
  C   C2638     1.0  0.91113  0.19172  0.41170  1.0000
  C   C2639     1.0  0.91447  0.18445  0.40432  1.0000
  C   C2640     1.0  0.90656  0.18261  0.39939  1.0000
  C   C2641     1.0  0.89519  0.18782  0.40197  1.0000
  C   C2642     1.0  0.89188  0.19534  0.40913  1.0000
  C   C2643     1.0  0.89981  0.19724  0.41403  1.0000
  H   H4154     1.0  0.92312  0.17997  0.40266  1.0000
  H   H4155     1.0  0.90920  0.17682  0.39383  1.0000
  H   H4156     1.0  0.88317  0.19955  0.41103  1.0000
  H   H4157     1.0  0.89712  0.20272  0.41989  1.0000
  C   C2644     1.0  0.91986  0.23240  0.43827  1.0000
  C   C2645     1.0  0.91522  0.23787  0.44716  1.0000
  C   C2646     1.0  0.90777  0.23325  0.45645  1.0000
  C   C2647     1.0  0.90524  0.22301  0.45697  1.0000
  C   C2648     1.0  0.90999  0.21749  0.44815  1.0000
  C   C2649     1.0  0.91715  0.22228  0.43872  1.0000
  H   H4158     1.0  0.91726  0.24573  0.44681  1.0000
  H   H4159     1.0  0.90405  0.23753  0.46328  1.0000
  H   H4160     1.0  0.90787  0.20967  0.44846  1.0000
  H   H4161     1.0  0.92043  0.21814  0.43179  1.0000
  S   S1084     1.0  0.99526  0.22511  0.43424  1.0000
  C   C2650     1.0  0.97840  0.22301  0.42560  1.0000
  C   C2651     1.0  0.97357  0.21812  0.41979  1.0000
  C   C2652     1.0  0.97986  0.20886  0.41533  1.0000
  C   C2653     1.0  0.99586  0.20951  0.42241  1.0000
  C   C2654     1.0  0.90236  0.29221  0.34970  1.0000
  H   H4162     1.0  0.97356  0.23024  0.42893  1.0000
  H   H4163     1.0  0.96502  0.22154  0.41872  1.0000
  C   C2655     1.0  0.99102  0.20460  0.41662  1.0000
  N   N261      1.0  0.89602  0.25350  0.41858  1.0000
  H   H4164     1.0  0.72043  0.05642  0.42483  1.0000
  H   H4165     1.0  0.69865  0.10263  0.30409  1.0000
  C   C2656     1.0  0.91204  0.30346  0.35490  1.0000
  N   N262      1.0  0.90706  0.21605  0.37701  1.0000
  C   C2657     1.0  0.90075  0.22772  0.37620  1.0000
  C   C2658     1.0  0.89932  0.20874  0.37791  1.0000
  C   C2659     1.0  0.91206  0.21258  0.38698  1.0000
  C   C2660     1.0  0.91612  0.21520  0.36697  1.0000
  H   H4166     1.0  0.89711  0.23075  0.36859  1.0000
  H   H4167     1.0  0.90623  0.23344  0.37584  1.0000
  H   H4168     1.0  0.89362  0.22864  0.38348  1.0000
  H   H4169     1.0  0.90378  0.19984  0.37850  1.0000
  H   H4170     1.0  0.89243  0.20911  0.38546  1.0000
  H   H4171     1.0  0.89528  0.21121  0.37058  1.0000
  H   H4172     1.0  0.91693  0.20382  0.38785  1.0000
  H   H4173     1.0  0.90548  0.21319  0.39471  1.0000
  H   H4174     1.0  0.91795  0.21792  0.38654  1.0000
  H   H4175     1.0  0.92112  0.20651  0.36736  1.0000
  H   H4176     1.0  0.92206  0.22067  0.36607  1.0000
  H   H4177     1.0  0.91265  0.21776  0.35927  1.0000
  N   N263      1.0  0.75989  0.08697  0.42029  1.0000
  C   C2661     1.0  0.77199  0.08455  0.42039  1.0000
  C   C2662     1.0  0.75476  0.07796  0.42826  1.0000
  C   C2663     1.0  0.75842  0.08750  0.40902  1.0000
  C   C2664     1.0  0.75442  0.09781  0.42350  1.0000
  H   H4178     1.0  0.77619  0.09128  0.41470  1.0000
  H   H4179     1.0  0.77645  0.07658  0.41772  1.0000
  H   H4180     1.0  0.77333  0.08375  0.42889  1.0000
  H   H4181     1.0  0.74573  0.07916  0.42815  1.0000
  H   H4182     1.0  0.75905  0.06963  0.42629  1.0000
  H   H4183     1.0  0.75537  0.07758  0.43694  1.0000
  H   H4184     1.0  0.76250  0.09398  0.40275  1.0000
  H   H4185     1.0  0.74937  0.08957  0.40860  1.0000
  H   H4186     1.0  0.76216  0.07936  0.40645  1.0000
  H   H4187     1.0  0.74535  0.10015  0.42310  1.0000
  H   H4188     1.0  0.75849  0.10464  0.41790  1.0000
  H   H4189     1.0  0.75498  0.09759  0.43214  1.0000
  N   N264      1.0  0.85049  0.23970  0.41943  1.0000
  C   C2665     1.0  0.84090  0.23427  0.42145  1.0000
  C   C2666     1.0  0.85273  0.23993  0.43020  1.0000
  C   C2667     1.0  0.84777  0.25124  0.41301  1.0000
  C   C2668     1.0  0.86057  0.23335  0.41304  1.0000
  H   H4190     1.0  0.83327  0.23845  0.42675  1.0000
  H   H4191     1.0  0.84290  0.22534  0.42566  1.0000
  H   H4192     1.0  0.83862  0.23446  0.41352  1.0000
  H   H4193     1.0  0.85947  0.24453  0.42903  1.0000
  H   H4194     1.0  0.84510  0.24407  0.43557  1.0000
  H   H4195     1.0  0.85539  0.23135  0.43501  1.0000
  H   H4196     1.0  0.85488  0.25554  0.41114  1.0000
  H   H4197     1.0  0.84029  0.25635  0.41764  1.0000
  H   H4198     1.0  0.84587  0.25144  0.40490  1.0000
  H   H4199     1.0  0.86286  0.22459  0.41767  1.0000
  H   H4200     1.0  0.86793  0.23729  0.41117  1.0000
  H   H4201     1.0  0.85909  0.23288  0.40496  1.0000
  N   N265      1.0  0.79044  0.16075  0.41721  1.0000
  C   C2669     1.0  0.79586  0.14922  0.41588  1.0000
  C   C2670     1.0  0.79866  0.16806  0.41217  1.0000
  C   C2671     1.0  0.78644  0.16085  0.42920  1.0000
  C   C2672     1.0  0.78083  0.16482  0.41156  1.0000
  H   H4202     1.0  0.79024  0.14329  0.42031  1.0000
  H   H4203     1.0  0.80369  0.14614  0.41924  1.0000
  H   H4204     1.0  0.79808  0.14864  0.40696  1.0000
  H   H4205     1.0  0.79500  0.17676  0.41331  1.0000
  H   H4206     1.0  0.80630  0.16500  0.41586  1.0000
  H   H4207     1.0  0.80153  0.16842  0.40306  1.0000
  H   H4208     1.0  0.78022  0.15539  0.43321  1.0000
  H   H4209     1.0  0.78231  0.16943  0.43055  1.0000
  H   H4210     1.0  0.79355  0.15776  0.43365  1.0000
  H   H4211     1.0  0.78365  0.16483  0.40247  1.0000
  H   H4212     1.0  0.77648  0.17348  0.41242  1.0000
  H   H4213     1.0  0.77455  0.15939  0.41505  1.0000
  C   C2673     1.0  0.95140  0.21405  0.46162  1.0000
  H   H4214     1.0  0.94442  0.22025  0.46544  1.0000
  H   H4215     1.0  0.95935  0.21703  0.46008  1.0000
  H   H4216     1.0  0.95209  0.20604  0.46788  1.0000
  N   N266      1.0  0.74153  0.03284  0.36180  1.0000
  C   C2674     1.0  0.75078  0.03664  0.35290  1.0000
  C   C2675     1.0  0.74219  0.03506  0.37242  1.0000
  C   C2676     1.0  0.74256  0.02074  0.36296  1.0000
  C   C2677     1.0  0.73061  0.03897  0.35888  1.0000
  H   H4217     1.0  0.75055  0.03511  0.34475  1.0000
  H   H4218     1.0  0.75914  0.03219  0.35486  1.0000
  H   H4219     1.0  0.75022  0.04576  0.35182  1.0000
  H   H4220     1.0  0.73532  0.03237  0.37937  1.0000
  H   H4221     1.0  0.75032  0.03058  0.37486  1.0000
  H   H4222     1.0  0.74146  0.04412  0.37182  1.0000
  H   H4223     1.0  0.73566  0.01758  0.36955  1.0000
  H   H4224     1.0  0.75065  0.01582  0.36527  1.0000
  H   H4225     1.0  0.74221  0.01871  0.35509  1.0000
  H   H4226     1.0  0.72343  0.03662  0.36560  1.0000
  H   H4227     1.0  0.72968  0.03726  0.35107  1.0000
  H   H4228     1.0  0.72971  0.04816  0.35758  1.0000
  H   H4229     1.0  0.75206  0.12720  0.42052  1.0000
  H   H4230     1.0  0.91953  0.30170  0.34816  1.0000
  H   H4231     1.0  0.69224  0.07525  0.43090  1.0000
  C   C2678     1.0  0.76216  0.99136  0.38576  1.0000
  H   H4232     1.0  0.73787  0.12621  0.42740  1.0000
  H   H4233     1.0  0.71370  0.08388  0.40596  1.0000
  H   H4234     1.0  0.77141  0.00819  0.41988  1.0000
  H   H4235     1.0  0.68994  0.11486  0.28315  1.0000
  H   H4236     1.0  0.72808  0.15128  0.42408  1.0000
  H   H4237     1.0  0.74404  0.13639  0.42966  1.0000
  H   H4238     1.0  0.70709  0.05792  0.43450  1.0000
  H   H4239     1.0  0.99587  0.26012  0.39187  1.0000
  H   H4240     1.0  0.86852  0.27337  0.47100  1.0000
  H   H4241     1.0  0.72253  0.07421  0.42773  1.0000
  H   H4242     1.0  0.70615  0.99050  0.40139  1.0000
  H   H4243     1.0  0.73631  0.14039  0.39793  1.0000
  H   H4244     1.0  0.72469  0.15285  0.41077  1.0000
  H   H4245     1.0  0.78750  0.01722  0.40920  1.0000
  C   C2679     1.0  0.68939  0.10537  0.30476  1.0000
  C   C2680     1.0  0.69695  0.07664  0.42209  1.0000
  H   H4246     1.0  0.84815  0.31997  0.32556  1.0000
  H   H4247     1.0  0.89540  0.26310  0.40203  1.0000
  H   H4248     1.0  0.70897  0.07611  0.43684  1.0000
  H   H4249     1.0  0.84774  0.27833  0.47353  1.0000
  C   C2681     1.0  0.74352  0.13216  0.42325  1.0000
  C   C2682     1.0  0.86741  0.27378  0.47988  1.0000
  H   H4250     1.0  0.93143  0.21472  0.45723  1.0000
  C   C2683     1.0  0.66796  0.09298  0.32954  1.0000
  C   C2684     1.0  0.78079  0.01714  0.43105  1.0000
  H   H4251     1.0  0.87804  0.25722  0.42391  1.0000
  H   H4252     1.0  0.69348  0.07262  0.41733  1.0000
  H   H4253     1.0  0.88444  0.24269  0.42703  1.0000
  C   C2685     1.0  0.72806  0.14669  0.41776  1.0000
  H   H4254     1.0  0.74446  0.15430  0.40133  1.0000
  H   H4255     1.0  0.91342  0.29700  0.36257  1.0000
  H   H4256     1.0  0.69507  0.08574  0.41854  1.0000
  H   H4257     1.0  0.74797  0.15257  0.41466  1.0000
  S   S1085     1.0  0.86408  0.22787  0.48201  1.0000
  H   H4258     1.0  0.68347  0.08573  0.30772  1.0000
  C   C2686     1.0  0.73897  0.13443  0.40540  1.0000
  N   N267      1.0  0.90158  0.30332  0.35179  1.0000
  H   H4259     1.0  0.76339  0.08094  0.48009  1.0000
  C   C2687     1.0  0.89633  0.26401  0.41016  1.0000
  H   H4260     1.0  0.88948  0.27095  0.41276  1.0000
  H   H4261     1.0  0.71220  0.08675  0.42475  1.0000
  N   N268      1.0  0.88862  0.17086  0.43967  1.0000
  C   C2688     1.0  0.88235  0.17401  0.45036  1.0000
  C   C2689     1.0  0.89082  0.15862  0.44097  1.0000
  C   C2690     1.0  0.89941  0.17462  0.43624  1.0000
  C   C2691     1.0  0.88183  0.17623  0.43109  1.0000
  H   H4262     1.0  0.88060  0.18321  0.44958  1.0000
  H   H4263     1.0  0.88711  0.17006  0.45711  1.0000
  H   H4264     1.0  0.87402  0.17153  0.45307  1.0000
  H   H4265     1.0  0.89592  0.15425  0.44739  1.0000
  H   H4266     1.0  0.88281  0.15556  0.44354  1.0000
  H   H4267     1.0  0.89546  0.15604  0.43299  1.0000
  H   H4268     1.0  0.89805  0.18380  0.43543  1.0000
  H   H4269     1.0  0.90422  0.17269  0.42802  1.0000
  H   H4270     1.0  0.90487  0.17056  0.44239  1.0000
  H   H4271     1.0  0.88629  0.17424  0.42281  1.0000
  H   H4272     1.0  0.87965  0.18547  0.43010  1.0000
  H   H4273     1.0  0.87375  0.17338  0.43340  1.0000
  N   N269      1.0  0.75777  0.09193  0.35499  1.0000
  C   C2692     1.0  0.75261  0.09703  0.36483  1.0000
  C   C2693     1.0  0.77013  0.08907  0.35372  1.0000
  C   C2694     1.0  0.75478  0.09992  0.34490  1.0000
  C   C2695     1.0  0.75352  0.08172  0.35651  1.0000
  H   H4274     1.0  0.75618  0.10431  0.36436  1.0000
  H   H4275     1.0  0.75390  0.09094  0.37270  1.0000
  H   H4276     1.0  0.74340  0.10013  0.36550  1.0000
  H   H4277     1.0  0.77268  0.08303  0.36118  1.0000
  H   H4278     1.0  0.77433  0.08522  0.34638  1.0000
  H   H4279     1.0  0.77356  0.09661  0.35266  1.0000
  H   H4280     1.0  0.75904  0.09666  0.33722  1.0000
  H   H4281     1.0  0.75707  0.10807  0.34395  1.0000
  H   H4282     1.0  0.74555  0.10173  0.34529  1.0000
  H   H4283     1.0  0.74420  0.08365  0.35746  1.0000
  H   H4284     1.0  0.75559  0.07552  0.36410  1.0000
  H   H4285     1.0  0.75722  0.07763  0.34926  1.0000
  H   H4286     1.0  0.78713  0.02138  0.43183  1.0000
  H   H4287     1.0  0.90708  0.31046  0.33447  1.0000
  H   H4288     1.0  0.90356  0.28554  0.35724  1.0000
  H   H4289     1.0  0.98570  0.25136  0.39692  1.0000
  H   H4290     1.0  0.66943  0.04840  0.23832  1.0000
  H   H4291     1.0  0.89299  0.29942  0.36886  1.0000
  H   H4292     1.0  0.85579  0.31626  0.35907  1.0000
  H   H4293     1.0  0.67029  0.10313  0.29137  1.0000
  H   H4294     1.0  0.75980  0.10120  0.47480  1.0000
  H   H4295     1.0  0.75579  0.14343  0.40542  1.0000
  H   H4296     1.0  0.80028  0.00281  0.43373  1.0000
  H   H4297     1.0  0.85896  0.29308  0.46737  1.0000
  H   H4298     1.0  0.68532  0.08584  0.29324  1.0000
  C   C2696     1.0  0.85806  0.29313  0.47632  1.0000
  H   H4299     1.0  0.73289  0.12883  0.40882  1.0000
  H   H4300     1.0  0.67267  0.04611  0.25729  1.0000
  C   C2697     1.0  0.74722  0.14805  0.40859  1.0000
  H   H4301     1.0  0.94108  0.22978  0.44633  1.0000
  H   H4302     1.0  0.95770  0.20330  0.43833  1.0000
  H   H4303     1.0  0.99592  0.19743  0.41319  1.0000
  N   N270      1.0  0.94937  0.21264  0.45119  1.0000
  H   H4304     1.0  0.95608  0.22698  0.44149  1.0000
  H   H4305     1.0  0.93912  0.20051  0.45967  1.0000
  H   H4306     1.0  0.88316  0.24958  0.41295  1.0000
  N   N271      1.0  0.68558  0.10145  0.29669  1.0000
  C   C2698     1.0  0.94845  0.22348  0.44319  1.0000
  C   C2699     1.0  0.93878  0.20866  0.45364  1.0000
  H   H4307     1.0  0.68723  0.11464  0.30352  1.0000
  N   N272      1.0  0.70917  0.07226  0.42126  1.0000
  C   C2700     1.0  0.95886  0.20444  0.44632  1.0000
  H   H4308     1.0  0.67922  0.07880  0.33716  1.0000
  H   H4309     1.0  0.72202  0.14102  0.42170  1.0000
  C   C2701     1.0  0.71340  0.07757  0.42792  1.0000
  H   H4310     1.0  0.78094  0.99497  0.42070  1.0000
  H   H4311     1.0  0.68764  0.08987  0.34501  1.0000
  H   H4312     1.0  0.96699  0.20717  0.44445  1.0000
  H   H4313     1.0  0.94738  0.22265  0.43507  1.0000
  H   H4314     1.0  0.93695  0.20753  0.44597  1.0000
  C   C2702     1.0  0.71126  0.06007  0.42556  1.0000
  C   C2703     1.0  0.87113  0.31775  0.33256  1.0000
  H   H4315     1.0  0.90355  0.24303  0.40660  1.0000
  H   H4316     1.0  0.91334  0.24659  0.41231  1.0000
  C   C2704     1.0  0.89797  0.25488  0.42904  1.0000
  H   H4317     1.0  0.89188  0.26209  0.43206  1.0000
  H   H4318     1.0  0.89705  0.24735  0.43582  1.0000
  H   H4319     1.0  0.72130  0.00010  0.41736  1.0000
  H   H4320     1.0  0.72425  0.07137  0.40847  1.0000
  H   H4321     1.0  0.90658  0.25631  0.42793  1.0000
  C   C2705     1.0  0.71504  0.07473  0.40946  1.0000
  S   S1086     1.0  0.74206  0.99251  0.38000  1.0000
  C   C2706     1.0  0.75106  0.99711  0.38559  1.0000
  H   H4322     1.0  0.77513  0.02347  0.42600  1.0000
  N   N273      1.0  0.85721  0.28200  0.48344  1.0000
  H   H4323     1.0  0.89092  0.31406  0.36270  1.0000
  C   C2707     1.0  0.75149  0.10171  0.48072  1.0000
  H   H4324     1.0  0.69714  0.08556  0.29880  1.0000
  H   H4325     1.0  0.99567  0.25031  0.38403  1.0000
  H   H4326     1.0  0.78872  0.99627  0.44139  1.0000
  H   H4327     1.0  0.87684  0.31246  0.32713  1.0000
  C   C2708     1.0  0.66918  0.11088  0.33243  1.0000
  C   C2709     1.0  0.79352  0.99915  0.43285  1.0000
  H   H4328     1.0  0.89457  0.29178  0.34740  1.0000
  H   H4329     1.0  0.99175  0.23112  0.40369  1.0000
  H   H4330     1.0  0.99206  0.24425  0.41494  1.0000
  H   H4331     1.0  0.68868  0.10289  0.27897  1.0000
  H   H4332     1.0  0.67235  0.11872  0.24925  1.0000
  H   H4333     1.0  0.79765  0.99165  0.42918  1.0000
  C   C2710     1.0  0.77728  0.00215  0.42493  1.0000
  H   H4334     1.0  0.84707  0.31632  0.30741  1.0000
  H   H4335     1.0  0.86551  0.29584  0.47702  1.0000
  H   H4336     1.0  0.83230  0.32252  0.30946  1.0000
  H   H4337     1.0  0.77809  0.99161  0.38896  1.0000
  C   C2711     1.0  0.69154  0.10557  0.28525  1.0000
  C   C2712     1.0  0.86667  0.31300  0.34359  1.0000
  H   H4338     1.0  0.70080  0.10239  0.28421  1.0000
  H   H4339     1.0  0.85045  0.29956  0.47866  1.0000
  C   C2713     1.0  0.67638  0.08778  0.33577  1.0000
  C   C2714     1.0  0.89193  0.30565  0.36101  1.0000
  C   C2715     1.0  0.79283  0.01096  0.41465  1.0000
  C   C2716     1.0  0.98953  0.21869  0.42696  1.0000
  C   C2717     1.0  0.84721  0.27872  0.48231  1.0000
  H   H4340     1.0  0.89212  0.31191  0.33914  1.0000
  C   C2718     1.0  0.76942  0.99594  0.38917  1.0000
  H   H4341     1.0  0.77558  0.01481  0.43951  1.0000
  H   H4342     1.0  0.91173  0.31170  0.35663  1.0000
  H   H4343     1.0  0.88391  0.30537  0.35906  1.0000
  H   H4344     1.0  0.70984  0.00405  0.41020  1.0000
  H   H4345     1.0  0.68541  0.10200  0.31349  1.0000
  H   H4346     1.0  0.89919  0.32045  0.34292  1.0000
  H   H4347     1.0  0.77214  0.99915  0.43324  1.0000
  H   H4348     1.0  0.67113  0.11501  0.29601  1.0000
  H   H4349     1.0  0.74904  0.08150  0.48041  1.0000
  H   H4350     1.0  0.74506  0.10238  0.47588  1.0000
  C   C2719     1.0  0.99460  0.25158  0.39261  1.0000
  H   H4351     1.0  0.74962  0.10959  0.48371  1.0000
  H   H4352     1.0  0.86692  0.26529  0.48496  1.0000
  H   H4353     1.0  0.83932  0.28470  0.48495  1.0000
  H   H4354     1.0  0.83096  0.28907  0.60385  1.0000
  Fe  Fe544     1.0  0.88341  0.25148  0.56748  1.0000
  S   S1087     1.0  0.89494  0.26153  0.55496  1.0000
  S   S1088     1.0  0.88941  0.23540  0.57878  1.0000
  Fe  Fe545     1.0  0.86286  0.26989  0.56425  1.0000
  S   S1089     1.0  0.87284  0.28163  0.55165  1.0000
  S   S1090     1.0  0.84438  0.27304  0.57134  1.0000
  Fe  Fe546     1.0  0.88168  0.26619  0.54465  1.0000
  S   S1091     1.0  0.88689  0.26518  0.52636  1.0000
  Fe  Fe547     1.0  0.88496  0.27564  0.56333  1.0000
  S   S1092     1.0  0.89440  0.28385  0.57066  1.0000
  S   S1093     1.0  0.87093  0.25486  0.55670  1.0000
  S   S1094     1.0  0.87413  0.26523  0.57634  1.0000
  Fe  Fe548     1.0  0.95598  0.22322  0.60849  1.0000
  S   S1095     1.0  0.95673  0.23354  0.59109  1.0000
  S   S1096     1.0  0.97284  0.21599  0.61351  1.0000
  Fe  Fe549     1.0  0.93045  0.22669  0.61349  1.0000
  S   S1097     1.0  0.92918  0.23770  0.59682  1.0000
  S   S1098     1.0  0.91362  0.22479  0.62492  1.0000
  Fe  Fe550     1.0  0.94367  0.22505  0.59015  1.0000
  S   S1099     1.0  0.94196  0.22266  0.57387  1.0000
  Fe  Fe551     1.0  0.94226  0.24526  0.59898  1.0000
  S   S1100     1.0  0.94203  0.26346  0.59282  1.0000
  S   S1101     1.0  0.94420  0.21331  0.60676  1.0000
  S   S1102     1.0  0.94222  0.23574  0.61655  1.0000
  H   H4355     1.0  0.75376  0.05147  0.57071  1.0000
  H   H4356     1.0  0.75971  0.04522  0.58281  1.0000
  H   H4357     1.0  0.89972  0.24561  0.59300  1.0000
  S   S1103     1.0  0.85718  0.24930  0.50231  1.0000
  H   H4358     1.0  0.97131  0.24890  0.59721  1.0000
  Fe  Fe552     1.0  0.75636  0.05910  0.60234  1.0000
  S   S1104     1.0  0.77457  0.05166  0.59681  1.0000
  S   S1105     1.0  0.74444  0.06407  0.59076  1.0000
  Fe  Fe553     1.0  0.75873  0.05831  0.62550  1.0000
  S   S1106     1.0  0.77718  0.05059  0.62211  1.0000
  S   S1107     1.0  0.74960  0.06478  0.64094  1.0000
  Fe  Fe554     1.0  0.77772  0.06317  0.60591  1.0000
  S   S1108     1.0  0.78989  0.07473  0.59803  1.0000
  Fe  Fe555     1.0  0.77216  0.03984  0.61339  1.0000
  S   S1109     1.0  0.77864  0.02127  0.61449  1.0000
  S   S1110     1.0  0.75965  0.07157  0.60995  1.0000
  S   S1111     1.0  0.75363  0.04654  0.61829  1.0000
  Fe  Fe556     1.0  0.75225  0.10935  0.54360  1.0000
  S   S1112     1.0  0.73610  0.10976  0.53908  1.0000
  S   S1113     1.0  0.76567  0.09406  0.54647  1.0000
  Fe  Fe557     1.0  0.74678  0.13395  0.54396  1.0000
  S   S1114     1.0  0.73006  0.13663  0.53939  1.0000
  S   S1115     1.0  0.75238  0.14852  0.54639  1.0000
  Fe  Fe558     1.0  0.72843  0.12061  0.55176  1.0000
  S   S1116     1.0  0.71299  0.11828  0.56510  1.0000
  Fe  Fe559     1.0  0.73918  0.12569  0.52703  1.0000
  S   S1117     1.0  0.73887  0.13063  0.50854  1.0000
  S   S1118     1.0  0.74439  0.11877  0.55732  1.0000
  S   S1119     1.0  0.75609  0.12432  0.53068  1.0000
  H   H4359     1.0  0.78707  0.03137  0.56817  1.0000
  N   N274      1.0  0.77087  0.04227  0.56738  1.0000
  Fe  Fe560     1.0  0.70232  0.11150  0.63430  1.0000
  S   S1120     1.0  0.68917  0.12612  0.62853  1.0000
  S   S1121     1.0  0.70238  0.09424  0.63314  1.0000
  Fe  Fe561     1.0  0.71506  0.12571  0.63981  1.0000
  S   S1122     1.0  0.70298  0.14149  0.63459  1.0000
  S   S1123     1.0  0.73040  0.12534  0.64582  1.0000
  Fe  Fe562     1.0  0.68961  0.13174  0.64377  1.0000
  H   H4360     1.0  0.93363  0.31767  0.69302  1.0000
  Fe  Fe563     1.0  0.70385  0.13430  0.62000  1.0000
  S   S1124     1.0  0.70781  0.14446  0.60265  1.0000
  S   S1125     1.0  0.70168  0.11639  0.65016  1.0000
  S   S1126     1.0  0.71697  0.11920  0.62459  1.0000
  Fe  Fe564     1.0  0.79274  0.12946  0.61124  1.0000
  S   S1127     1.0  0.77860  0.13586  0.60226  1.0000
  S   S1128     1.0  0.79498  0.11144  0.62071  1.0000
  Fe  Fe565     1.0  0.80148  0.15153  0.60264  1.0000
  S   S1129     1.0  0.78794  0.15918  0.59250  1.0000
  S   S1130     1.0  0.81569  0.16080  0.60051  1.0000
  Fe  Fe566     1.0  0.77651  0.15165  0.60787  1.0000
  S   S1131     1.0  0.75861  0.16011  0.61359  1.0000
  Fe  Fe567     1.0  0.79122  0.14254  0.58780  1.0000
  S   S1132     1.0  0.79249  0.13707  0.57181  1.0000
  S   S1133     1.0  0.78967  0.14484  0.61830  1.0000
  S   S1134     1.0  0.80571  0.13538  0.59653  1.0000
  Fe  Fe568     1.0  0.87766  0.29291  0.65490  1.0000
  S   S1135     1.0  0.88998  0.27640  0.65654  1.0000
  S   S1136     1.0  0.87184  0.30303  0.66876  1.0000
  Fe  Fe569     1.0  0.87640  0.29208  0.63112  1.0000
  S   S1137     1.0  0.88917  0.27616  0.63100  1.0000
  S   S1138     1.0  0.86809  0.29870  0.61626  1.0000
  Fe  Fe570     1.0  0.87950  0.27050  0.64818  1.0000
  S   S1139     1.0  0.87770  0.25247  0.65141  1.0000
  Fe  Fe571     1.0  0.89820  0.28360  0.63923  1.0000
  S   S1140     1.0  0.91657  0.28349  0.63490  1.0000
  S   S1141     1.0  0.86620  0.28630  0.64816  1.0000
  S   S1142     1.0  0.88636  0.30026  0.63771  1.0000
  Fe  Fe572     1.0  0.84887  0.22188  0.62284  1.0000
  S   S1143     1.0  0.85477  0.20380  0.63060  1.0000
  S   S1144     1.0  0.84483  0.23742  0.63021  1.0000
  Fe  Fe573     1.0  0.84972  0.21616  0.60077  1.0000
  S   S1145     1.0  0.85657  0.19800  0.60632  1.0000
  S   S1146     1.0  0.84530  0.22192  0.58397  1.0000
  Fe  Fe574     1.0  0.84333  0.19959  0.62180  1.0000
  S   S1147     1.0  0.83167  0.18705  0.62849  1.0000
  Fe  Fe575     1.0  0.86734  0.20373  0.61434  1.0000
  S   S1148     1.0  0.88582  0.19602  0.61286  1.0000
  S   S1149     1.0  0.83604  0.21773  0.61589  1.0000
  S   S1150     1.0  0.86193  0.22183  0.60695  1.0000
  H   H4361     1.0  0.97104  0.24004  0.63894  1.0000
  H   H4362     1.0  0.96263  0.23016  0.62975  1.0000
  C   C2720     1.0  0.87945  0.31042  0.67346  1.0000
  S   S1151     1.0  0.76058  0.99956  0.58491  1.0000
  H   H4363     1.0  0.76457  0.04677  0.55231  1.0000
  H   H4364     1.0  0.76693  0.03209  0.55844  1.0000
  H   H4365     1.0  0.74331  0.00662  0.60932  1.0000
  C   C2721     1.0  0.89050  0.31148  0.66823  1.0000
  C   C2722     1.0  0.75782  0.14988  0.51280  1.0000
  H   H4366     1.0  0.77867  0.03853  0.55121  1.0000
  C   C2723     1.0  0.67450  0.12250  0.67304  1.0000
  H   H4367     1.0  0.90443  0.31871  0.66761  1.0000
  C   C2724     1.0  0.86853  0.24838  0.64549  1.0000
  C   C2725     1.0  0.87081  0.23736  0.64398  1.0000
  C   C2726     1.0  0.86380  0.23390  0.63911  1.0000
  C   C2727     1.0  0.85415  0.24131  0.63615  1.0000
  C   C2728     1.0  0.85166  0.25219  0.63807  1.0000
  C   C2729     1.0  0.85895  0.25582  0.64241  1.0000
  H   H4368     1.0  0.87805  0.23147  0.64657  1.0000
  H   H4369     1.0  0.86571  0.22542  0.63793  1.0000
  H   H4370     1.0  0.84397  0.25780  0.63631  1.0000
  H   H4371     1.0  0.85693  0.26423  0.64380  1.0000
  C   C2730     1.0  0.81995  0.16788  0.60865  1.0000
  C   C2731     1.0  0.81420  0.16895  0.61949  1.0000
  C   C2732     1.0  0.81794  0.17474  0.62546  1.0000
  C   C2733     1.0  0.82738  0.17967  0.62067  1.0000
  C   C2734     1.0  0.83314  0.17858  0.60985  1.0000
  C   C2735     1.0  0.82947  0.17270  0.60394  1.0000
  H   H4372     1.0  0.80690  0.16528  0.62328  1.0000
  H   H4373     1.0  0.81342  0.17546  0.63384  1.0000
  H   H4374     1.0  0.84045  0.18220  0.60603  1.0000
  H   H4375     1.0  0.83405  0.17186  0.59561  1.0000
  C   C2736     1.0  0.73821  0.13512  0.63702  1.0000
  C   C2737     1.0  0.74992  0.13278  0.63578  1.0000
  C   C2738     1.0  0.75626  0.14043  0.62858  1.0000
  C   C2739     1.0  0.75084  0.15062  0.62294  1.0000
  C   C2740     1.0  0.73911  0.15306  0.62438  1.0000
  C   C2741     1.0  0.73283  0.14524  0.63124  1.0000
  H   H4376     1.0  0.75413  0.12505  0.64032  1.0000
  H   H4377     1.0  0.76532  0.13852  0.62753  1.0000
  H   H4378     1.0  0.73490  0.16095  0.62005  1.0000
  H   H4379     1.0  0.72382  0.14719  0.63219  1.0000
  H   H4380     1.0  0.83123  0.26862  0.60858  1.0000
  N   N275      1.0  0.74200  0.99196  0.62230  1.0000
  H   H4381     1.0  0.69043  0.15192  0.68297  1.0000
  C   C2742     1.0  0.75948  0.04398  0.57454  1.0000
  H   H4382     1.0  0.91440  0.25817  0.64823  1.0000
  H   H4383     1.0  0.75558  0.15903  0.57925  1.0000
  C   C2743     1.0  0.77535  0.05250  0.56490  1.0000
  C   C2744     1.0  0.76325  0.14519  0.55385  1.0000
  C   C2745     1.0  0.76878  0.13413  0.55707  1.0000
  C   C2746     1.0  0.77751  0.13170  0.56287  1.0000
  C   C2747     1.0  0.78070  0.14026  0.56561  1.0000
  C   C2748     1.0  0.77505  0.15131  0.56253  1.0000
  C   C2749     1.0  0.76636  0.15375  0.55666  1.0000
  H   H4384     1.0  0.76648  0.12746  0.55492  1.0000
  H   H4385     1.0  0.78183  0.12314  0.56515  1.0000
  H   H4386     1.0  0.77760  0.15799  0.56439  1.0000
  H   H4387     1.0  0.76215  0.16233  0.55416  1.0000
  C   C2750     1.0  0.71070  0.12634  0.57510  1.0000
  C   C2751     1.0  0.71654  0.13486  0.57312  1.0000
  C   C2752     1.0  0.71522  0.14070  0.58148  1.0000
  C   C2753     1.0  0.70848  0.13771  0.59202  1.0000
  C   C2754     1.0  0.70258  0.12923  0.59400  1.0000
  C   C2755     1.0  0.70348  0.12374  0.58544  1.0000
  H   H4388     1.0  0.72201  0.13701  0.56510  1.0000
  H   H4389     1.0  0.71953  0.14747  0.57982  1.0000
  H   H4390     1.0  0.69721  0.12701  0.60205  1.0000
  H   H4391     1.0  0.69882  0.11726  0.58693  1.0000
  C   C2756     1.0  0.73086  0.12498  0.50269  1.0000
  C   C2757     1.0  0.72254  0.11923  0.50934  1.0000
  C   C2758     1.0  0.71624  0.11501  0.50437  1.0000
  H   H4392     1.0  0.92944  0.26648  0.54799  1.0000
  H   H4393     1.0  0.87526  0.20092  0.56666  1.0000
  C   C2759     1.0  0.93800  0.25530  0.56589  1.0000
  H   H4394     1.0  0.72082  0.11819  0.51831  1.0000
  H   H4395     1.0  0.70970  0.11072  0.50957  1.0000
  H   H4396     1.0  0.77881  0.03423  0.58134  1.0000
  H   H4397     1.0  0.73953  0.10677  0.58707  1.0000
  C   C2760     1.0  0.73622  0.07252  0.63917  1.0000
  C   C2761     1.0  0.73069  0.08080  0.64530  1.0000
  C   C2762     1.0  0.72031  0.08753  0.64340  1.0000
  C   C2763     1.0  0.71519  0.08563  0.63576  1.0000
  C   C2764     1.0  0.72054  0.07711  0.62990  1.0000
  C   C2765     1.0  0.73116  0.07073  0.63141  1.0000
  H   H4398     1.0  0.73447  0.08210  0.65143  1.0000
  H   H4399     1.0  0.71619  0.09404  0.64801  1.0000
  H   H4400     1.0  0.71656  0.07553  0.62407  1.0000
  H   H4401     1.0  0.73534  0.06429  0.62672  1.0000
  C   C2766     1.0  0.78962  0.08466  0.60557  1.0000
  C   C2767     1.0  0.78470  0.09591  0.60205  1.0000
  C   C2768     1.0  0.78610  0.10417  0.60678  1.0000
  C   C2769     1.0  0.79254  0.10127  0.61495  1.0000
  C   C2770     1.0  0.79711  0.08997  0.61872  1.0000
  C   C2771     1.0  0.79573  0.08171  0.61400  1.0000
  H   H4402     1.0  0.78007  0.09827  0.59545  1.0000
  H   H4403     1.0  0.78238  0.11279  0.60391  1.0000
  H   H4404     1.0  0.80205  0.08763  0.62508  1.0000
  H   H4405     1.0  0.79972  0.07308  0.61663  1.0000
  C   C2772     1.0  0.77323  0.01504  0.60675  1.0000
  C   C2773     1.0  0.77744  0.00372  0.60628  1.0000
  C   C2774     1.0  0.67505  0.09636  0.64998  1.0000
  C   C2775     1.0  0.76529  0.00506  0.59379  1.0000
  C   C2776     1.0  0.76087  0.01626  0.59453  1.0000
  C   C2777     1.0  0.76481  0.02125  0.60097  1.0000
  H   H4406     1.0  0.73919  0.15649  0.52757  1.0000
  H   H4407     1.0  0.75429  0.02106  0.59016  1.0000
  H   H4408     1.0  0.76137  0.02991  0.60143  1.0000
  C   C2778     1.0  0.75033  0.07240  0.57845  1.0000
  C   C2779     1.0  0.76061  0.07520  0.57747  1.0000
  C   C2780     1.0  0.76550  0.08159  0.56749  1.0000
  C   C2781     1.0  0.75991  0.08551  0.55863  1.0000
  C   C2782     1.0  0.74949  0.08294  0.55970  1.0000
  C   C2783     1.0  0.74479  0.07622  0.56956  1.0000
  H   H4409     1.0  0.76482  0.07252  0.58438  1.0000
  H   H4410     1.0  0.77346  0.08376  0.56673  1.0000
  H   H4411     1.0  0.74512  0.08606  0.55288  1.0000
  H   H4412     1.0  0.73679  0.07413  0.57033  1.0000
  H   H4413     1.0  0.69638  0.13376  0.66277  1.0000
  C   C2784     1.0  0.69900  0.15128  0.67752  1.0000
  C   C2785     1.0  0.93415  0.26979  0.60382  1.0000
  C   C2786     1.0  0.93675  0.27925  0.60532  1.0000
  C   C2787     1.0  0.93133  0.28348  0.61493  1.0000
  C   C2788     1.0  0.92298  0.27853  0.62273  1.0000
  C   C2789     1.0  0.92005  0.26936  0.62096  1.0000
  C   C2790     1.0  0.92584  0.26481  0.61163  1.0000
  H   H4414     1.0  0.94315  0.28312  0.59925  1.0000
  H   H4415     1.0  0.93353  0.29062  0.61630  1.0000
  H   H4416     1.0  0.91359  0.26559  0.62697  1.0000
  H   H4417     1.0  0.92395  0.25742  0.61051  1.0000
  C   C2791     1.0  0.90611  0.21652  0.62165  1.0000
  C   C2792     1.0  0.91149  0.20882  0.61482  1.0000
  C   C2793     1.0  0.90525  0.20248  0.61222  1.0000
  C   C2794     1.0  0.89356  0.20402  0.61617  1.0000
  C   C2795     1.0  0.88818  0.21179  0.62293  1.0000
  C   C2796     1.0  0.89446  0.21783  0.62583  1.0000
  H   H4418     1.0  0.92047  0.20762  0.61166  1.0000
  H   H4419     1.0  0.90950  0.19648  0.60700  1.0000
  H   H4420     1.0  0.87920  0.21295  0.62612  1.0000
  H   H4421     1.0  0.89026  0.22353  0.63132  1.0000
  C   C2797     1.0  0.84189  0.25951  0.57528  1.0000
  C   C2798     1.0  0.84221  0.25386  0.56710  1.0000
  C   C2799     1.0  0.84260  0.24234  0.56990  1.0000
  C   C2800     1.0  0.84299  0.23648  0.58080  1.0000
  C   C2801     1.0  0.84227  0.24219  0.58906  1.0000
  C   C2802     1.0  0.84168  0.25371  0.58630  1.0000
  H   H4422     1.0  0.84262  0.25830  0.55852  1.0000
  H   H4423     1.0  0.84312  0.23795  0.56350  1.0000
  H   H4424     1.0  0.84250  0.23770  0.59751  1.0000
  H   H4425     1.0  0.84162  0.25798  0.59260  1.0000
  C   C2803     1.0  0.88710  0.28789  0.58335  1.0000
  C   C2804     1.0  0.87544  0.29183  0.58538  1.0000
  C   C2805     1.0  0.86979  0.29538  0.59537  1.0000
  C   C2806     1.0  0.87563  0.29455  0.60363  1.0000
  C   C2807     1.0  0.88728  0.29040  0.60169  1.0000
  C   C2808     1.0  0.89302  0.28724  0.59152  1.0000
  H   H4426     1.0  0.87084  0.29253  0.57906  1.0000
  H   H4427     1.0  0.86085  0.29885  0.59666  1.0000
  H   H4428     1.0  0.89194  0.28996  0.60787  1.0000
  H   H4429     1.0  0.90205  0.28432  0.58997  1.0000
  C   C2809     1.0  0.87873  0.26018  0.52006  1.0000
  C   C2810     1.0  0.88327  0.25775  0.50941  1.0000
  C   C2811     1.0  0.87694  0.25402  0.50403  1.0000
  C   C2812     1.0  0.86591  0.25286  0.50919  1.0000
  C   C2813     1.0  0.86138  0.25527  0.51985  1.0000
  C   C2814     1.0  0.86777  0.25885  0.52530  1.0000
  H   H4430     1.0  0.89175  0.25871  0.50531  1.0000
  H   H4431     1.0  0.88060  0.25210  0.49589  1.0000
  H   H4432     1.0  0.85284  0.25446  0.52390  1.0000
  H   H4433     1.0  0.86413  0.26078  0.53345  1.0000
  C   C2815     1.0  0.90406  0.23086  0.57674  1.0000
  C   C2816     1.0  0.91111  0.23407  0.56646  1.0000
  C   C2817     1.0  0.92285  0.23093  0.56534  1.0000
  C   C2818     1.0  0.92749  0.22486  0.57457  1.0000
  C   C2819     1.0  0.92042  0.22140  0.58471  1.0000
  C   C2820     1.0  0.90874  0.22421  0.58572  1.0000
  H   H4434     1.0  0.90754  0.23888  0.55938  1.0000
  H   H4435     1.0  0.92832  0.23349  0.55744  1.0000
  H   H4436     1.0  0.92399  0.21658  0.59180  1.0000
  H   H4437     1.0  0.90332  0.22148  0.59360  1.0000
  C   C2821     1.0  0.98810  0.23443  0.63058  1.0000
  N   N276      1.0  0.92689  0.26296  0.56586  1.0000
  C   C2822     1.0  0.99024  0.22211  0.61806  1.0000
  C   C2823     1.0  0.97853  0.22304  0.62029  1.0000
  C   C2824     1.0  0.97163  0.22955  0.62782  1.0000
  C   C2825     1.0  0.97642  0.23511  0.63303  1.0000
  H   H4438     1.0  0.73363  0.09316  0.49233  1.0000
  H   H4439     1.0  0.75554  0.03672  0.57603  1.0000
  H   H4440     1.0  0.73630  0.15897  0.59994  1.0000
  C   C2826     1.0  0.75948  0.09182  0.49675  1.0000
  H   H4441     1.0  0.98711  0.26501  0.60597  1.0000
  H   H4442     1.0  0.89011  0.22333  0.54931  1.0000
  H   H4443     1.0  0.76403  0.14600  0.58486  1.0000
  H   H4444     1.0  0.97642  0.27266  0.59074  1.0000
  H   H4445     1.0  0.75364  0.16784  0.52169  1.0000
  H   H4446     1.0  0.84881  0.28870  0.49809  1.0000
  H   H4447     1.0  0.86384  0.28414  0.49654  1.0000
  H   H4448     1.0  0.73743  0.10005  0.50096  1.0000
  C   C2827     1.0  0.74004  0.09256  0.49718  1.0000
  H   H4449     1.0  0.72828  0.15180  0.59553  1.0000
  H   H4450     1.0  0.86548  0.31512  0.68656  1.0000
  N   N277      1.0  0.75146  0.09191  0.49007  1.0000
  H   H4451     1.0  0.66719  0.11829  0.64219  1.0000
  H   H4452     1.0  0.87146  0.22628  0.57733  1.0000
  C   C2828     1.0  0.85619  0.28230  0.49521  1.0000
  C   C2829     1.0  0.77024  0.03981  0.55686  1.0000
  H   H4453     1.0  0.77531  0.02488  0.57503  1.0000
  H   H4454     1.0  0.78395  0.05155  0.55954  1.0000
  H   H4455     1.0  0.89124  0.24232  0.62395  1.0000
  C   C2830     1.0  0.77835  0.03279  0.57322  1.0000
  H   H4456     1.0  0.90707  0.25056  0.61211  1.0000
  H   H4457     1.0  0.76989  0.05983  0.56051  1.0000
  N   N278      1.0  0.86357  0.16692  0.63265  1.0000
  C   C2831     1.0  0.85801  0.16690  0.62377  1.0000
  C   C2832     1.0  0.85515  0.17196  0.64148  1.0000
  C   C2833     1.0  0.87245  0.17350  0.62790  1.0000
  C   C2834     1.0  0.86863  0.15533  0.63746  1.0000
  H   H4458     1.0  0.86404  0.16302  0.61702  1.0000
  H   H4459     1.0  0.85424  0.17552  0.61988  1.0000
  H   H4460     1.0  0.85102  0.16229  0.62710  1.0000
  H   H4461     1.0  0.85898  0.17206  0.64838  1.0000
  H   H4462     1.0  0.85123  0.18074  0.63815  1.0000
  H   H4463     1.0  0.84815  0.16739  0.64508  1.0000
  H   H4464     1.0  0.87680  0.17384  0.63434  1.0000
  H   H4465     1.0  0.86894  0.18227  0.62416  1.0000
  H   H4466     1.0  0.87898  0.17001  0.62118  1.0000
  H   H4467     1.0  0.87289  0.15505  0.64420  1.0000
  H   H4468     1.0  0.87504  0.15128  0.63102  1.0000
  H   H4469     1.0  0.86214  0.15015  0.64111  1.0000
  N   N279      1.0  0.91218  0.24163  0.64932  1.0000
  C   C2835     1.0  0.90391  0.24143  0.66003  1.0000
  C   C2836     1.0  0.91918  0.23032  0.64901  1.0000
  C   C2837     1.0  0.91943  0.24951  0.64813  1.0000
  C   C2838     1.0  0.90615  0.24527  0.64007  1.0000
  H   H4470     1.0  0.89850  0.24986  0.66052  1.0000
  H   H4471     1.0  0.90811  0.23859  0.66725  1.0000
  H   H4472     1.0  0.89813  0.23576  0.66105  1.0000
  H   H4473     1.0  0.92546  0.23017  0.64100  1.0000
  H   H4474     1.0  0.92385  0.22721  0.65590  1.0000
  H   H4475     1.0  0.91395  0.22422  0.64972  1.0000
  H   H4476     1.0  0.92577  0.24986  0.64014  1.0000
  H   H4477     1.0  0.92407  0.24706  0.65502  1.0000
  H   H4478     1.0  0.90053  0.23954  0.64077  1.0000
  H   H4479     1.0  0.91210  0.24543  0.63186  1.0000
  H   H4480     1.0  0.90075  0.25373  0.64007  1.0000
  N   N280      1.0  0.84456  0.27607  0.60901  1.0000
  C   C2839     1.0  0.85298  0.27419  0.61585  1.0000
  C   C2840     1.0  0.83734  0.28732  0.60905  1.0000
  C   C2841     1.0  0.83755  0.26756  0.61366  1.0000
  C   C2842     1.0  0.85035  0.27521  0.59746  1.0000
  H   H4481     1.0  0.84889  0.27516  0.62453  1.0000
  H   H4482     1.0  0.85858  0.28030  0.61244  1.0000
  H   H4483     1.0  0.85836  0.26565  0.61629  1.0000
  H   H4484     1.0  0.83275  0.28824  0.61764  1.0000
  H   H4485     1.0  0.84239  0.29392  0.60566  1.0000
  H   H4486     1.0  0.83292  0.26798  0.62234  1.0000
  H   H4487     1.0  0.84276  0.25893  0.61389  1.0000
  H   H4488     1.0  0.85550  0.26668  0.59702  1.0000
  H   H4489     1.0  0.85599  0.28124  0.59371  1.0000
  H   H4490     1.0  0.84422  0.27703  0.59199  1.0000
  N   N281      1.0  0.87826  0.21740  0.56394  1.0000
  C   C2843     1.0  0.88204  0.20569  0.56261  1.0000
  C   C2844     1.0  0.86837  0.22284  0.55885  1.0000
  C   C2845     1.0  0.88747  0.22343  0.55836  1.0000
  H   H4491     1.0  0.93771  0.24677  0.56535  1.0000
  C   C2846     1.0  0.66857  0.13279  0.66816  1.0000
  H   H4492     1.0  0.88450  0.20520  0.55365  1.0000
  H   H4493     1.0  0.78396  0.99888  0.61075  1.0000
  H   H4494     1.0  0.74841  0.14081  0.60695  1.0000
  H   H4495     1.0  0.73472  0.16249  0.58571  1.0000
  H   H4496     1.0  0.74484  0.15542  0.49772  1.0000
  H   H4497     1.0  0.86530  0.23167  0.55981  1.0000
  C   C2847     1.0  0.86062  0.32249  0.64346  1.0000
  H   H4498     1.0  0.75048  0.00528  0.62019  1.0000
  H   H4499     1.0  0.95520  0.25693  0.61010  1.0000
  H   H4500     1.0  0.70122  0.15961  0.67555  1.0000
  C   C2848     1.0  0.75485  0.08161  0.48559  1.0000
  N   N282      1.0  0.81613  0.20919  0.59459  1.0000
  C   C2849     1.0  0.81228  0.20377  0.60632  1.0000
  C   C2850     1.0  0.80831  0.20892  0.58786  1.0000
  C   C2851     1.0  0.82752  0.20314  0.59019  1.0000
  C   C2852     1.0  0.81644  0.22090  0.59398  1.0000
  H   H4501     1.0  0.80378  0.20818  0.60999  1.0000
  H   H4502     1.0  0.81811  0.20362  0.61162  1.0000
  H   H4503     1.0  0.81181  0.19496  0.60705  1.0000
  H   H4504     1.0  0.79962  0.21342  0.59094  1.0000
  H   H4505     1.0  0.81101  0.21289  0.57895  1.0000
  H   H4506     1.0  0.80788  0.20018  0.58819  1.0000
  H   H4507     1.0  0.82753  0.19441  0.59009  1.0000
  H   H4508     1.0  0.83357  0.20283  0.59532  1.0000
  H   H4509     1.0  0.83090  0.20729  0.58151  1.0000
  H   H4510     1.0  0.81949  0.22520  0.58526  1.0000
  H   H4511     1.0  0.82230  0.22137  0.59895  1.0000
  H   H4512     1.0  0.80800  0.22577  0.59719  1.0000
  N   N283      1.0  0.89135  0.25251  0.60753  1.0000
  C   C2853     1.0  0.88544  0.24870  0.61907  1.0000
  C   C2854     1.0  0.89556  0.24298  0.60185  1.0000
  C   C2855     1.0  0.90091  0.25706  0.60775  1.0000
  C   C2856     1.0  0.88350  0.26125  0.60146  1.0000
  H   H4513     1.0  0.88191  0.25571  0.62355  1.0000
  H   H4514     1.0  0.87840  0.24484  0.61927  1.0000
  H   H4515     1.0  0.88864  0.23903  0.60188  1.0000
  H   H4516     1.0  0.90181  0.23635  0.60596  1.0000
  H   H4517     1.0  0.90544  0.26022  0.59919  1.0000
  H   H4518     1.0  0.89806  0.26418  0.61209  1.0000
  H   H4519     1.0  0.88014  0.26858  0.60550  1.0000
  H   H4520     1.0  0.87628  0.25799  0.60105  1.0000
  H   H4521     1.0  0.88776  0.26434  0.59273  1.0000
  N   N284      1.0  0.76187  0.09454  0.63837  1.0000
  C   C2857     1.0  0.77016  0.10120  0.63760  1.0000
  C   C2858     1.0  0.75054  0.10184  0.63899  1.0000
  C   C2859     1.0  0.76192  0.08554  0.64848  1.0000
  C   C2860     1.0  0.76484  0.08956  0.62843  1.0000
  H   H4522     1.0  0.77049  0.10799  0.62998  1.0000
  H   H4523     1.0  0.77880  0.09595  0.63727  1.0000
  H   H4524     1.0  0.76809  0.10521  0.64489  1.0000
  H   H4525     1.0  0.74411  0.09722  0.63915  1.0000
  H   H4526     1.0  0.74784  0.10537  0.64664  1.0000
  H   H4527     1.0  0.75028  0.10900  0.63172  1.0000
  H   H4528     1.0  0.75561  0.08048  0.64942  1.0000
  H   H4529     1.0  0.75989  0.08895  0.65615  1.0000
  H   H4530     1.0  0.77027  0.07970  0.64815  1.0000
  H   H4531     1.0  0.75870  0.08452  0.62875  1.0000
  H   H4532     1.0  0.77328  0.08388  0.62779  1.0000
  H   H4533     1.0  0.76500  0.09608  0.62063  1.0000
  N   N285      1.0  0.81190  0.10443  0.57628  1.0000
  C   C2861     1.0  0.82414  0.10120  0.57586  1.0000
  C   C2862     1.0  0.80649  0.11132  0.58473  1.0000
  C   C2863     1.0  0.80717  0.09429  0.57927  1.0000
  C   C2864     1.0  0.80980  0.11097  0.56527  1.0000
  H   H4534     1.0  0.82596  0.09630  0.58408  1.0000
  H   H4535     1.0  0.82794  0.10869  0.57365  1.0000
  H   H4536     1.0  0.82853  0.09599  0.56956  1.0000
  H   H4537     1.0  0.79724  0.11397  0.58525  1.0000
  H   H4538     1.0  0.80791  0.10675  0.59318  1.0000
  H   H4539     1.0  0.80979  0.11909  0.58264  1.0000
  H   H4540     1.0  0.79795  0.09641  0.57963  1.0000
  H   H4541     1.0  0.80848  0.08922  0.58761  1.0000
  H   H4542     1.0  0.81109  0.08883  0.57313  1.0000
  H   H4543     1.0  0.80064  0.11349  0.56533  1.0000
  H   H4544     1.0  0.81385  0.10613  0.55861  1.0000
  H   H4545     1.0  0.81301  0.11884  0.56288  1.0000
  H   H4546     1.0  0.77585  0.05464  0.57267  1.0000
  C   C2865     1.0  0.87948  0.32221  0.68606  1.0000
  N   N286      1.0  0.97141  0.26124  0.60599  1.0000
  H   H4547     1.0  0.70988  0.10526  0.60129  1.0000
  H   H4548     1.0  0.71863  0.10044  0.58312  1.0000
  C   C2866     1.0  0.72548  0.09422  0.58673  1.0000
  H   H4549     1.0  0.74368  0.08665  0.59570  1.0000
  H   H4550     1.0  0.95622  0.26677  0.61747  1.0000
  N   N287      1.0  0.72718  0.09712  0.59659  1.0000
  C   C2867     1.0  0.71642  0.09852  0.60479  1.0000
  C   C2868     1.0  0.73552  0.08810  0.60174  1.0000
  H   H4551     1.0  0.71305  0.09074  0.60756  1.0000
  H   H4552     1.0  0.71742  0.10068  0.61234  1.0000
  H   H4553     1.0  0.72324  0.08589  0.58882  1.0000
  H   H4554     1.0  0.73320  0.09398  0.58001  1.0000
  H   H4555     1.0  0.73707  0.09002  0.60917  1.0000
  H   H4556     1.0  0.73260  0.08006  0.60457  1.0000
  C   C2869     1.0  0.73133  0.10762  0.59315  1.0000
  H   H4557     1.0  0.75683  0.15587  0.59351  1.0000
  H   H4558     1.0  0.73245  0.11020  0.60043  1.0000
  H   H4559     1.0  0.72535  0.11455  0.58904  1.0000
  H   H4560     1.0  0.67592  0.09859  0.64075  1.0000
  H   H4561     1.0  0.96265  0.25231  0.62120  1.0000
  C   C2870     1.0  0.77349  0.99874  0.59982  1.0000
  H   H4562     1.0  0.97512  0.27109  0.61545  1.0000
  C   C2871     1.0  0.71840  0.11620  0.49273  1.0000
  C   C2872     1.0  0.96091  0.25924  0.61404  1.0000
  H   H4563     1.0  0.70498  0.14528  0.68248  1.0000
  H   H4564     1.0  0.75713  0.09951  0.50023  1.0000
  H   H4565     1.0  0.94091  0.25443  0.57368  1.0000
  H   H4566     1.0  0.68251  0.15625  0.66593  1.0000
  C   C2873     1.0  0.89050  0.32335  0.68077  1.0000
  H   H4567     1.0  0.75555  0.14261  0.51123  1.0000
  H   H4568     1.0  0.76606  0.15090  0.50717  1.0000
  H   H4569     1.0  0.96437  0.27854  0.60024  1.0000
  H   H4570     1.0  0.68795  0.13672  0.67577  1.0000
  N   N288      1.0  0.69944  0.14763  0.66727  1.0000
  C   C2874     1.0  0.69649  0.13655  0.67030  1.0000
  H   H4571     1.0  0.91829  0.24995  0.57582  1.0000
  H   H4572     1.0  0.69314  0.16426  0.65868  1.0000
  H   H4573     1.0  0.75966  0.08454  0.50390  1.0000
  H   H4574     1.0  0.73955  0.08512  0.50412  1.0000
  C   C2875     1.0  0.69131  0.15575  0.66101  1.0000
  C   C2876     1.0  0.91862  0.25869  0.57562  1.0000
  H   H4575     1.0  0.73986  0.13394  0.60291  1.0000
  H   H4576     1.0  0.75319  0.13639  0.57818  1.0000
  H   H4577     1.0  0.70261  0.13009  0.67475  1.0000
  H   H4578     1.0  0.94453  0.25830  0.55875  1.0000
  H   H4579     1.0  0.93372  0.27776  0.55916  1.0000
  H   H4580     1.0  0.98121  0.25650  0.61867  1.0000
  H   H4581     1.0  0.91935  0.28011  0.56667  1.0000
  C   C2877     1.0  0.92321  0.26366  0.55555  1.0000
  H   H4582     1.0  0.91000  0.26384  0.57551  1.0000
  C   C2878     1.0  0.71094  0.14693  0.66028  1.0000
  H   H4583     1.0  0.71346  0.15514  0.65774  1.0000
  H   H4584     1.0  0.71730  0.14082  0.66471  1.0000
  H   H4585     1.0  0.69148  0.15330  0.65317  1.0000
  H   H4586     1.0  0.91503  0.26969  0.55513  1.0000
  H   H4587     1.0  0.75494  0.13113  0.59798  1.0000
  H   H4588     1.0  0.73823  0.13820  0.58311  1.0000
  C   C2879     1.0  0.92767  0.27419  0.56646  1.0000
  H   H4589     1.0  0.92081  0.25881  0.58348  1.0000
  S   S1152     1.0  0.67417  0.14005  0.65481  1.0000
  H   H4590     1.0  0.93052  0.27396  0.57411  1.0000
  H   H4591     1.0  0.76047  0.17108  0.50727  1.0000
  H   H4592     1.0  0.92207  0.25541  0.55506  1.0000
  H   H4593     1.0  0.71161  0.14410  0.65254  1.0000
  C   C2880     1.0  0.87517  0.21763  0.57595  1.0000
  C   C2881     1.0  0.74540  0.14251  0.58077  1.0000
  C   C2882     1.0  0.75241  0.16953  0.51297  1.0000
  H   H4594     1.0  0.74415  0.14926  0.57329  1.0000
  N   N289      1.0  0.74901  0.16007  0.51095  1.0000
  H   H4595     1.0  0.74083  0.17009  0.49768  1.0000
  H   H4596     1.0  0.88260  0.21441  0.57994  1.0000
  C   C2883     1.0  0.97698  0.25123  0.60122  1.0000
  H   H4597     1.0  0.76817  0.09140  0.49161  1.0000
  H   H4598     1.0  0.89488  0.30736  0.66139  1.0000
  C   C2884     1.0  0.74746  0.16247  0.49937  1.0000
  H   H4599     1.0  0.96302  0.26928  0.59241  1.0000
  H   H4600     1.0  0.88486  0.23232  0.55908  1.0000
  H   H4601     1.0  0.88944  0.20138  0.56647  1.0000
  H   H4602     1.0  0.98476  0.25253  0.59487  1.0000
  H   H4603     1.0  0.74592  0.17736  0.51174  1.0000
  C   C2885     1.0  0.73831  0.15833  0.51874  1.0000
  H   H4604     1.0  0.73143  0.16582  0.51759  1.0000
  C   C2886     1.0  0.97903  0.26360  0.61175  1.0000
  H   H4605     1.0  0.86123  0.21854  0.56288  1.0000
  C   C2887     1.0  0.66969  0.11669  0.68349  1.0000
  C   C2888     1.0  0.74740  0.13777  0.59991  1.0000
  H   H4606     1.0  0.75538  0.16375  0.49324  1.0000
  H   H4607     1.0  0.75908  0.14773  0.52153  1.0000
  H   H4608     1.0  0.89500  0.21976  0.56217  1.0000
  N   N290      1.0  0.74620  0.14698  0.59009  1.0000
  Fe  Fe576     1.0  0.86310  0.24483  0.48516  1.0000
  H   H4609     1.0  0.73552  0.15121  0.51746  1.0000
  H   H4610     1.0  0.87037  0.22291  0.54977  1.0000
  H   H4611     1.0  0.86883  0.21249  0.58056  1.0000
  H   H4612     1.0  0.97951  0.24392  0.60775  1.0000
  H   H4613     1.0  0.67515  0.11650  0.65252  1.0000
  H   H4614     1.0  0.87965  0.31968  0.65018  1.0000
  H   H4615     1.0  0.68275  0.11895  0.66878  1.0000
  H   H4616     1.0  0.67428  0.10868  0.68719  1.0000
  S   S1153     1.0  0.99361  0.24220  0.63677  1.0000
  C   C2889     1.0  0.73593  0.15543  0.59293  1.0000
  C   C2890     1.0  0.75609  0.15220  0.58677  1.0000
  C   C2891     1.0  0.73286  0.12637  0.49105  1.0000
  H   H4617     1.0  0.86235  0.31454  0.64966  1.0000
  H   H4618     1.0  0.99564  0.21699  0.61233  1.0000
  C   C2892     1.0  0.99500  0.22790  0.62306  1.0000
  H   H4619     1.0  0.73538  0.00936  0.62264  1.0000
  C   C2893     1.0  0.87401  0.31585  0.68240  1.0000
  C   C2894     1.0  0.96870  0.27087  0.59694  1.0000
  C   C2895     1.0  0.89593  0.31794  0.67181  1.0000
  H   H4620     1.0  0.72413  0.99534  0.62336  1.0000
  C   C2896     1.0  0.74281  0.00383  0.61848  1.0000
  H   H4621     1.0  0.85506  0.27412  0.50081  1.0000
  H   H4622     1.0  0.68317  0.09673  0.65166  1.0000
  H   H4623     1.0  0.84638  0.27030  0.48757  1.0000
  H   H4624     1.0  0.73258  0.99291  0.61011  1.0000
  H   H4625     1.0  0.93780  0.31789  0.67280  1.0000
  H   H4626     1.0  0.67301  0.10116  0.66968  1.0000
  H   H4627     1.0  0.67412  0.08753  0.65285  1.0000
  S   S1154     1.0  0.71039  0.11061  0.48682  1.0000
  C   C2897     1.0  0.72679  0.12186  0.48609  1.0000
  H   H4628     1.0  0.73323  0.99371  0.63891  1.0000
  C   C2898     1.0  0.73207  0.99035  0.61927  1.0000
  H   H4629     1.0  0.86453  0.32061  0.63504  1.0000
  H   H4630     1.0  0.73918  0.13092  0.48583  1.0000
  H   H4631     1.0  0.75489  0.07401  0.49237  1.0000
  H   H4632     1.0  0.67509  0.29018  0.93551  1.0000
  H   H4633     1.0  0.74618  0.31903  0.87901  1.0000
  H   H4634     1.0  0.73152  0.31355  0.93604  1.0000
  H   H4635     1.0  0.67559  0.30716  0.88529  1.0000
  H   H4636     1.0  0.72801  0.31296  0.90804  1.0000
  N   N291      1.0  0.73848  0.31370  0.91863  1.0000
  C   C2899     1.0  0.73050  0.31034  0.92909  1.0000
  H   H4637     1.0  0.75636  0.31150  0.91243  1.0000
  H   H4638     1.0  0.75188  0.29979  0.92254  1.0000
  H   H4639     1.0  0.67138  0.27818  0.92472  1.0000
  H   H4640     1.0  0.75179  0.31220  0.92690  1.0000
  C   C2900     1.0  0.73666  0.30942  0.90964  1.0000
  H   H4641     1.0  0.73781  0.30018  0.91172  1.0000
  C   C2901     1.0  0.67005  0.30961  0.89274  1.0000
  C   C2902     1.0  0.67357  0.31575  0.89853  1.0000
  H   H4642     1.0  0.74261  0.31172  0.90165  1.0000
  H   H4643     1.0  0.68176  0.31789  0.89556  1.0000
  C   C2903     1.0  0.75014  0.30907  0.92021  1.0000
  H   H4644     1.0  0.73163  0.30111  0.93171  1.0000
  H   H4645     1.0  0.66837  0.27263  0.94523  1.0000
  H   H4646     1.0  0.72162  0.31377  0.92817  1.0000
  H   H4647     1.0  0.76475  0.32303  0.87771  1.0000
  H   H4648     1.0  0.72332  0.39655  0.15316  1.0000
  H   H4649     1.0  0.76374  0.60995  0.13793  1.0000
  H   H4650     1.0  0.74388  0.38601  0.17147  1.0000
  H   H4651     1.0  0.71549  0.58458  0.08416  1.0000
  H   H4652     1.0  0.78995  0.34112  0.16024  1.0000
  H   H4653     1.0  0.68246  0.62103  0.17996  1.0000
  H   H4654     1.0  0.73686  0.48468  0.09633  1.0000
  S   S1155     1.0  0.91734  0.40566  0.21114  1.0000
  H   H4655     1.0  0.73942  0.40333  0.13872  1.0000
  H   H4656     1.0  0.74861  0.33457  0.09864  1.0000
  C   C2904     1.0  0.74922  0.34677  0.11920  1.0000
  C   C2905     1.0  0.91161  0.61316  0.22392  1.0000
  H   H4657     1.0  0.75779  0.52002  0.02427  1.0000
  H   H4658     1.0  0.83143  0.60899  0.12469  1.0000
  Fe  Fe577     1.0  0.79193  0.37895  0.13404  1.0000
  S   S1156     1.0  0.77332  0.38344  0.14042  1.0000
  S   S1157     1.0  0.79815  0.38054  0.11536  1.0000
  Fe  Fe578     1.0  0.79741  0.37310  0.15754  1.0000
  S   S1158     1.0  0.77900  0.37684  0.16534  1.0000
  S   S1159     1.0  0.80822  0.36673  0.17081  1.0000
  Fe  Fe579     1.0  0.77614  0.36799  0.15354  1.0000
  S   S1160     1.0  0.76514  0.35525  0.16070  1.0000
  Fe  Fe580     1.0  0.77804  0.39174  0.15152  1.0000
  S   S1161     1.0  0.76825  0.40783  0.15615  1.0000
  S   S1162     1.0  0.79466  0.36286  0.14672  1.0000
  S   S1163     1.0  0.79651  0.38873  0.14416  1.0000
  Fe  Fe581     1.0  0.71403  0.34854  0.13423  1.0000
  S   S1164     1.0  0.69529  0.35514  0.13867  1.0000
  S   S1165     1.0  0.72592  0.34270  0.14629  1.0000
  Fe  Fe582     1.0  0.71339  0.35004  0.11041  1.0000
  S   S1166     1.0  0.69495  0.35731  0.11241  1.0000
  S   S1167     1.0  0.72434  0.34649  0.09432  1.0000
  Fe  Fe583     1.0  0.69829  0.36767  0.12260  1.0000
  S   S1168     1.0  0.69076  0.38613  0.12026  1.0000
  Fe  Fe584     1.0  0.69333  0.34415  0.12809  1.0000
  S   S1169     1.0  0.71699  0.36173  0.11885  1.0000
  Fe  Fe585     1.0  0.86561  0.38643  0.21013  1.0000
  S   S1170     1.0  0.97957  0.60630  0.22503  1.0000
  S   S1171     1.0  0.88334  0.37678  0.21092  1.0000
  Fe  Fe586     1.0  0.84417  0.39327  0.20041  1.0000
  S   S1172     1.0  0.83537  0.40447  0.21270  1.0000
  S   S1173     1.0  0.83643  0.39378  0.18562  1.0000
  Fe  Fe587     1.0  0.85170  0.40994  0.20945  1.0000
  H   H4659     1.0  0.74925  0.64649  0.08634  1.0000
  H   H4660     1.0  0.73659  0.53782  0.02121  1.0000
  H   H4661     1.0  0.73224  0.49265  0.11308  1.0000
  S   S1174     1.0  0.86011  0.40004  0.19614  1.0000
  S   S1175     1.0  0.85050  0.37870  0.21354  1.0000
  Fe  Fe588     1.0  0.84704  0.61016  0.20703  1.0000
  H   H4662     1.0  0.77110  0.34261  0.99470  1.0000
  S   S1176     1.0  0.83461  0.61497  0.19524  1.0000
  Fe  Fe589     1.0  0.87081  0.60498  0.21216  1.0000
  H   H4663     1.0  0.69727  0.62005  0.17449  1.0000
  S   S1177     1.0  0.88959  0.60383  0.20557  1.0000
  C   C2906     1.0  0.80731  0.33847  0.16999  1.0000
  C   C2907     1.0  0.88121  0.44156  0.22115  1.0000
  H   H4664     1.0  0.67443  0.37428  0.11575  1.0000
  H   H4665     1.0  0.74328  0.49326  0.11929  1.0000
  S   S1178     1.0  0.86105  0.59497  0.20738  1.0000
  S   S1179     1.0  0.85746  0.62077  0.21013  1.0000
  Fe  Fe590     1.0  0.69749  0.62772  0.12682  1.0000
  S   S1180     1.0  0.70932  0.63415  0.13283  1.0000
  Fe  Fe591     1.0  0.71515  0.60699  0.12169  1.0000
  S   S1181     1.0  0.72829  0.61167  0.12733  1.0000
  S   S1182     1.0  0.72084  0.59211  0.11372  1.0000
  Fe  Fe592     1.0  0.71434  0.61630  0.14139  1.0000
  S   S1183     1.0  0.71755  0.61064  0.15865  1.0000
  Fe  Fe593     1.0  0.72210  0.62885  0.11813  1.0000
  S   S1184     1.0  0.73477  0.63852  0.10689  1.0000
  S   S1185     1.0  0.70157  0.61011  0.13658  1.0000
  S   S1186     1.0  0.70991  0.62395  0.11130  1.0000
  Fe  Fe594     1.0  0.80148  0.58771  0.16433  1.0000
  S   S1187     1.0  0.78342  0.58735  0.17311  1.0000
  S   S1188     1.0  0.81649  0.58536  0.17257  1.0000
  Fe  Fe595     1.0  0.79617  0.58971  0.14148  1.0000
  S   S1189     1.0  0.77807  0.58947  0.14852  1.0000
  S   S1190     1.0  0.80120  0.59352  0.12274  1.0000
  Fe  Fe596     1.0  0.77888  0.60100  0.15867  1.0000
  S   S1191     1.0  0.76585  0.61697  0.15787  1.0000
  Fe  Fe597     1.0  0.78405  0.57576  0.16207  1.0000
  S   S1192     1.0  0.77420  0.56197  0.16798  1.0000
  S   S1193     1.0  0.79673  0.60229  0.15069  1.0000
  S   S1194     1.0  0.80241  0.57499  0.15425  1.0000
  Fe  Fe598     1.0  0.77377  0.57669  0.08304  1.0000
  S   S1195     1.0  0.75630  0.58710  0.08507  1.0000
  S   S1196     1.0  0.77982  0.56850  0.09909  1.0000
  Fe  Fe599     1.0  0.77589  0.57908  0.05793  1.0000
  S   S1197     1.0  0.75860  0.58969  0.05819  1.0000
  S   S1198     1.0  0.78596  0.57631  0.04098  1.0000
  Fe  Fe600     1.0  0.76309  0.59822  0.06920  1.0000
  S   S1199     1.0  0.75986  0.61693  0.06514  1.0000
  Fe  Fe601     1.0  0.75368  0.57752  0.07384  1.0000
  S   S1200     1.0  0.73790  0.57116  0.07754  1.0000
  S   S1201     1.0  0.78090  0.58854  0.06792  1.0000
  S   S1202     1.0  0.77064  0.56610  0.07290  1.0000
  Fe  Fe602     1.0  0.73500  0.53148  0.13726  1.0000
  S   S1203     1.0  0.75000  0.53639  0.12475  1.0000
  S   S1204     1.0  0.71997  0.54391  0.14382  1.0000
  Fe  Fe603     1.0  0.74526  0.50682  0.14034  1.0000
  S   S1205     1.0  0.76149  0.50962  0.12856  1.0000
  S   S1206     1.0  0.74257  0.48923  0.14779  1.0000
  Fe  Fe604     1.0  0.76001  0.52400  0.13647  1.0000
  S   S1207     1.0  0.77554  0.52936  0.13712  1.0000
  Fe  Fe605     1.0  0.75033  0.52174  0.11786  1.0000
  S   S1208     1.0  0.75475  0.52128  0.09973  1.0000
  S   S1209     1.0  0.74494  0.51987  0.14959  1.0000
  S   S1210     1.0  0.73418  0.51818  0.12904  1.0000
  H   H4666     1.0  0.89301  0.45494  0.20514  1.0000
  Fe  Fe606     1.0  0.76298  0.56502  0.99399  1.0000
  S   S1211     1.0  0.76027  0.56077  0.01284  1.0000
  S   S1212     1.0  0.86477  0.59954  0.23057  1.0000
  Fe  Fe607     1.0  0.76931  0.38513  0.04386  1.0000
  S   S1213     1.0  0.75641  0.40116  0.04418  1.0000
  S   S1214     1.0  0.77590  0.38110  0.02662  1.0000
  Fe  Fe608     1.0  0.76786  0.37998  0.06924  1.0000
  S   S1215     1.0  0.75470  0.39543  0.07110  1.0000
  S   S1216     1.0  0.77018  0.36927  0.08621  1.0000
  Fe  Fe609     1.0  0.74710  0.39115  0.05923  1.0000
  S   S1217     1.0  0.72842  0.39280  0.06264  1.0000
  Fe  Fe610     1.0  0.76533  0.40390  0.05599  1.0000
  S   S1218     1.0  0.76763  0.42032  0.05751  1.0000
  S   S1219     1.0  0.75939  0.37490  0.05837  1.0000
  S   S1220     1.0  0.77922  0.38871  0.05461  1.0000
  Fe  Fe611     1.0  0.74209  0.44089  0.11295  1.0000
  S   S1221     1.0  0.73017  0.44039  0.12952  1.0000
  S   S1222     1.0  0.76053  0.43962  0.11078  1.0000
  Fe  Fe612     1.0  0.72386  0.44394  0.10052  1.0000
  S   S1223     1.0  0.71010  0.44442  0.11592  1.0000
  S   S1224     1.0  0.72127  0.44342  0.08390  1.0000
  Fe  Fe613     1.0  0.71957  0.45507  0.12020  1.0000
  S   S1225     1.0  0.71243  0.47126  0.12631  1.0000
  Fe  Fe614     1.0  0.72197  0.42976  0.12381  1.0000
  S   S1226     1.0  0.71812  0.41340  0.13483  1.0000
  S   S1227     1.0  0.73203  0.45605  0.10387  1.0000
  S   S1228     1.0  0.73519  0.42872  0.10817  1.0000
  S   S1229     1.0  0.85827  0.39682  0.22302  1.0000
  H   H4667     1.0  0.76016  0.57161  0.14684  1.0000
  S   S1230     1.0  0.74816  0.36059  0.00459  1.0000
  C   C2908     1.0  0.75596  0.36639  0.01053  1.0000
  C   C2909     1.0  0.75525  0.36346  0.02211  1.0000
  C   C2910     1.0  0.76112  0.36809  0.02717  1.0000
  C   C2911     1.0  0.76807  0.37540  0.02064  1.0000
  C   C2912     1.0  0.76901  0.37810  0.00902  1.0000
  C   C2913     1.0  0.76285  0.37375  0.00400  1.0000
  H   H4668     1.0  0.75007  0.35765  0.02721  1.0000
  H   H4669     1.0  0.76049  0.36578  0.03610  1.0000
  H   H4670     1.0  0.77442  0.38369  0.00390  1.0000
  H   H4671     1.0  0.76354  0.37606  0.99509  1.0000
  C   C2914     1.0  0.75471  0.42781  0.06377  1.0000
  C   C2915     1.0  0.74458  0.42628  0.06246  1.0000
  C   C2916     1.0  0.73428  0.43173  0.06808  1.0000
  C   C2917     1.0  0.73410  0.43816  0.07556  1.0000
  C   C2918     1.0  0.74422  0.43977  0.07680  1.0000
  C   C2919     1.0  0.75449  0.43490  0.07063  1.0000
  H   H4672     1.0  0.74467  0.42093  0.05707  1.0000
  H   H4673     1.0  0.72646  0.43056  0.06702  1.0000
  H   H4674     1.0  0.74412  0.44487  0.08245  1.0000
  H   H4675     1.0  0.76225  0.43643  0.07140  1.0000
  H   H4676     1.0  0.76834  0.33483  0.10883  1.0000
  C   C2920     1.0  0.73387  0.48421  0.14222  1.0000
  C   C2921     1.0  0.72467  0.49137  0.13808  1.0000
  C   C2922     1.0  0.71796  0.48722  0.13355  1.0000
  C   C2923     1.0  0.72054  0.47594  0.13286  1.0000
  C   C2924     1.0  0.72962  0.46875  0.13717  1.0000
  C   C2925     1.0  0.73617  0.47285  0.14195  1.0000
  H   H4677     1.0  0.72265  0.50008  0.13842  1.0000
  H   H4678     1.0  0.71089  0.49281  0.13033  1.0000
  H   H4679     1.0  0.73160  0.46002  0.13683  1.0000
  H   H4680     1.0  0.74317  0.46722  0.14526  1.0000
  C   C2926     1.0  0.76737  0.56561  0.02029  1.0000
  C   C2927     1.0  0.76310  0.56515  0.03174  1.0000
  C   C2928     1.0  0.76869  0.56853  0.03809  1.0000
  C   C2929     1.0  0.77876  0.57215  0.03309  1.0000
  C   C2930     1.0  0.78306  0.57262  0.02164  1.0000
  C   C2931     1.0  0.77732  0.56947  0.01522  1.0000
  H   H4681     1.0  0.75542  0.56216  0.03573  1.0000
  H   H4682     1.0  0.76530  0.56811  0.04691  1.0000
  H   H4683     1.0  0.79087  0.57537  0.01772  1.0000
  H   H4684     1.0  0.78073  0.56977  0.00642  1.0000
  C   C2932     1.0  0.74140  0.55684  0.08295  1.0000
  C   C2933     1.0  0.75035  0.55007  0.07703  1.0000
  C   C2934     1.0  0.75396  0.53884  0.08190  1.0000
  C   C2935     1.0  0.74888  0.53453  0.09283  1.0000
  C   C2936     1.0  0.73977  0.54122  0.09864  1.0000
  C   C2937     1.0  0.73590  0.55233  0.09362  1.0000
  H   H4685     1.0  0.75454  0.55353  0.06873  1.0000
  H   H4686     1.0  0.76094  0.53366  0.07734  1.0000
  H   H4687     1.0  0.73576  0.53789  0.10706  1.0000
  H   H4688     1.0  0.72894  0.55754  0.09817  1.0000
  C   C2938     1.0  0.77462  0.55314  0.15916  1.0000
  C   C2939     1.0  0.78354  0.55157  0.15007  1.0000
  C   C2940     1.0  0.78373  0.54423  0.14340  1.0000
  C   C2941     1.0  0.77491  0.53861  0.14561  1.0000
  C   C2942     1.0  0.76588  0.54036  0.15455  1.0000
  C   C2943     1.0  0.76580  0.54751  0.16136  1.0000
  H   H4689     1.0  0.79040  0.55583  0.14833  1.0000
  H   H4690     1.0  0.79077  0.54290  0.13651  1.0000
  H   H4691     1.0  0.75909  0.53599  0.15639  1.0000
  H   H4692     1.0  0.75890  0.54865  0.16842  1.0000
  C   C2944     1.0  0.79476  0.58687  0.11632  1.0000
  C   C2945     1.0  0.79312  0.59155  0.10541  1.0000
  C   C2946     1.0  0.78822  0.58618  0.10012  1.0000
  C   C2947     1.0  0.78527  0.57594  0.10561  1.0000
  C   C2948     1.0  0.78688  0.57130  0.11651  1.0000
  C   C2949     1.0  0.79140  0.57684  0.12194  1.0000
  H   H4693     1.0  0.79575  0.59928  0.10101  1.0000
  H   H4694     1.0  0.78707  0.58979  0.09168  1.0000
  H   H4695     1.0  0.78480  0.56328  0.12072  1.0000
  H   H4696     1.0  0.79270  0.57312  0.13032  1.0000
  C   C2950     1.0  0.74142  0.63260  0.09519  1.0000
  C   C2951     1.0  0.74828  0.63832  0.08618  1.0000
  C   C2952     1.0  0.75382  0.63354  0.07690  1.0000
  C   C2953     1.0  0.75273  0.62291  0.07672  1.0000
  C   C2954     1.0  0.74591  0.61717  0.08575  1.0000
  C   C2955     1.0  0.74019  0.62204  0.09494  1.0000
  H   H4697     1.0  0.80019  0.32939  0.19151  1.0000
  H   H4698     1.0  0.75906  0.63803  0.06992  1.0000
  H   H4699     1.0  0.74494  0.60906  0.08559  1.0000
  H   H4700     1.0  0.73495  0.61753  0.10187  1.0000
  C   C2956     1.0  0.72009  0.57887  0.12221  1.0000
  C   C2957     1.0  0.72541  0.56945  0.11763  1.0000
  C   C2958     1.0  0.72522  0.55872  0.12420  1.0000
  C   C2959     1.0  0.71968  0.55735  0.13540  1.0000
  C   C2960     1.0  0.71425  0.56678  0.13998  1.0000
  C   C2961     1.0  0.71451  0.57755  0.13340  1.0000
  H   H4701     1.0  0.72977  0.57044  0.10899  1.0000
  H   H4702     1.0  0.72924  0.55151  0.12055  1.0000
  H   H4703     1.0  0.70997  0.56576  0.14864  1.0000
  H   H4704     1.0  0.71038  0.58479  0.13698  1.0000
  C   C2962     1.0  0.73101  0.61230  0.15840  1.0000
  C   C2963     1.0  0.73411  0.62255  0.15337  1.0000
  C   C2964     1.0  0.74470  0.62401  0.15355  1.0000
  C   C2965     1.0  0.75242  0.61509  0.15831  1.0000
  C   C2966     1.0  0.74946  0.60471  0.16299  1.0000
  C   C2967     1.0  0.73868  0.60338  0.16323  1.0000
  H   H4705     1.0  0.72823  0.62946  0.14961  1.0000
  H   H4706     1.0  0.74695  0.63206  0.14997  1.0000
  H   H4707     1.0  0.75539  0.59778  0.16667  1.0000
  H   H4708     1.0  0.73631  0.59543  0.16711  1.0000
  C   C2968     1.0  0.82995  0.60678  0.18856  1.0000
  C   C2969     1.0  0.81986  0.61112  0.18464  1.0000
  C   C2970     1.0  0.81560  0.60475  0.17973  1.0000
  C   C2971     1.0  0.82141  0.59393  0.17861  1.0000
  C   C2972     1.0  0.83161  0.58969  0.18233  1.0000
  C   C2973     1.0  0.83587  0.59606  0.18723  1.0000
  H   H4709     1.0  0.81522  0.61942  0.18554  1.0000
  H   H4710     1.0  0.80776  0.60820  0.17692  1.0000
  H   H4711     1.0  0.83627  0.58139  0.18142  1.0000
  H   H4712     1.0  0.84375  0.59268  0.18996  1.0000
  H   H4713     1.0  0.72647  0.50667  0.15727  1.0000
  H   H4714     1.0  0.70655  0.60092  0.07161  1.0000
  C   C2974     1.0  0.72421  0.35916  0.08471  1.0000
  C   C2975     1.0  0.71680  0.36889  0.08738  1.0000
  C   C2976     1.0  0.71741  0.37919  0.08005  1.0000
  C   C2977     1.0  0.72572  0.37980  0.07028  1.0000
  C   C2978     1.0  0.73275  0.37001  0.06738  1.0000
  C   C2979     1.0  0.73198  0.35968  0.07458  1.0000
  H   H4715     1.0  0.71071  0.36853  0.09515  1.0000
  H   H4716     1.0  0.71179  0.38670  0.08221  1.0000
  H   H4717     1.0  0.73886  0.37034  0.05964  1.0000
  H   H4718     1.0  0.73762  0.35214  0.07244  1.0000
  C   C2980     1.0  0.69785  0.39380  0.12483  1.0000
  C   C2981     1.0  0.70552  0.38835  0.13172  1.0000
  C   C2982     1.0  0.71140  0.39450  0.13500  1.0000
  C   C2983     1.0  0.70990  0.40613  0.13119  1.0000
  C   C2984     1.0  0.70222  0.41160  0.12430  1.0000
  C   C2985     1.0  0.69611  0.40546  0.12125  1.0000
  H   H4719     1.0  0.70688  0.37938  0.13459  1.0000
  H   H4720     1.0  0.71734  0.39015  0.14025  1.0000
  H   H4721     1.0  0.70095  0.42056  0.12136  1.0000
  H   H4722     1.0  0.69016  0.40974  0.11596  1.0000
  C   C2986     1.0  0.81618  0.37425  0.17479  1.0000
  C   C2987     1.0  0.82044  0.38322  0.16743  1.0000
  C   C2988     1.0  0.82680  0.38887  0.17084  1.0000
  C   C2989     1.0  0.82892  0.38577  0.18170  1.0000
  C   C2990     1.0  0.82471  0.37675  0.18906  1.0000
  C   C2991     1.0  0.81846  0.37100  0.18560  1.0000
  H   H4723     1.0  0.81907  0.38563  0.15900  1.0000
  H   H4724     1.0  0.83011  0.39574  0.16501  1.0000
  H   H4725     1.0  0.82628  0.37421  0.19742  1.0000
  H   H4726     1.0  0.81533  0.36401  0.19137  1.0000
  C   C2992     1.0  0.76708  0.41739  0.14364  1.0000
  C   C2993     1.0  0.75919  0.42745  0.14358  1.0000
  C   C2994     1.0  0.75754  0.43460  0.13342  1.0000
  C   C2995     1.0  0.76389  0.43173  0.12338  1.0000
  C   C2996     1.0  0.77215  0.42191  0.12347  1.0000
  C   C2997     1.0  0.77366  0.41467  0.13361  1.0000
  H   H4727     1.0  0.75412  0.42958  0.15134  1.0000
  H   H4728     1.0  0.75129  0.44230  0.13336  1.0000
  H   H4729     1.0  0.77709  0.41969  0.11573  1.0000
  H   H4730     1.0  0.77982  0.40693  0.13360  1.0000
  C   C2998     1.0  0.79032  0.37717  0.10744  1.0000
  C   C2999     1.0  0.78013  0.37372  0.11236  1.0000
  C   C3000     1.0  0.77398  0.37143  0.10577  1.0000
  C   C3001     1.0  0.77784  0.37274  0.09417  1.0000
  C   C3002     1.0  0.78803  0.37616  0.08925  1.0000
  C   C3003     1.0  0.79428  0.37826  0.09587  1.0000
  H   H4731     1.0  0.77706  0.37269  0.12127  1.0000
  H   H4732     1.0  0.76619  0.36865  0.10968  1.0000
  H   H4733     1.0  0.79124  0.37690  0.08037  1.0000
  H   H4734     1.0  0.80227  0.38067  0.09202  1.0000
  C   C3004     1.0  0.75427  0.35267  0.15580  1.0000
  C   C3005     1.0  0.74962  0.35964  0.14679  1.0000
  C   C3006     1.0  0.74075  0.35695  0.14368  1.0000
  C   C3007     1.0  0.73668  0.34723  0.14951  1.0000
  H   H4735     1.0  0.75531  0.39106  0.16138  1.0000
  H   H4736     1.0  0.75281  0.36704  0.14227  1.0000
  H   H4737     1.0  0.68941  0.63085  0.18190  1.0000
  H   H4738     1.0  0.72574  0.38861  0.16648  1.0000
  H   H4739     1.0  0.78023  0.34653  0.18328  1.0000
  H   H4740     1.0  0.82584  0.58881  0.23188  1.0000
  H   H4741     1.0  0.99386  0.39292  0.21600  1.0000
  H   H4742     1.0  0.67939  0.62199  0.16114  1.0000
  H   H4743     1.0  0.90225  0.43036  0.20168  1.0000
  H   H4744     1.0  0.73768  0.35726  0.10274  1.0000
  H   H4745     1.0  0.88402  0.43269  0.19733  1.0000
  H   H4746     1.0  0.75126  0.47971  0.09010  1.0000
  H   H4747     1.0  0.75115  0.32771  0.11236  1.0000
  C   C3008     1.0  0.90798  0.39763  0.21088  1.0000
  C   C3009     1.0  0.67578  0.64137  0.16748  1.0000
  C   C3010     1.0  0.90286  0.37968  0.21430  1.0000
  C   C3011     1.0  0.89282  0.38491  0.21063  1.0000
  C   C3012     1.0  0.89036  0.39653  0.20709  1.0000
  C   C3013     1.0  0.89802  0.40285  0.20704  1.0000
  H   H4748     1.0  0.81988  0.56538  0.22352  1.0000
  H   H4749     1.0  0.73385  0.40446  0.03850  1.0000
  H   H4750     1.0  0.88266  0.40063  0.20418  1.0000
  S   S1231     1.0  0.85321  0.42778  0.20732  1.0000
  C   C3014     1.0  0.76280  0.53412  0.00476  1.0000
  H   H4751     1.0  0.74554  0.56110  0.14892  1.0000
  H   H4752     1.0  0.93379  0.36624  0.20839  1.0000
  H   H4753     1.0  0.96067  0.44409  0.22885  1.0000
  H   H4754     1.0  0.87275  0.44717  0.22129  1.0000
  C   C3015     1.0  0.74582  0.53113  0.00167  1.0000
  H   H4755     1.0  0.74078  0.58193  0.14524  1.0000
  C   C3016     1.0  0.74759  0.56183  0.13972  1.0000
  Fe  Fe615     1.0  0.95349  0.38764  0.22709  1.0000
  H   H4756     1.0  0.74748  0.57263  0.11843  1.0000
  C   C3017     1.0  0.78905  0.34727  0.17916  1.0000
  H   H4757     1.0  0.72427  0.58627  0.09231  1.0000
  N   N292      1.0  0.71781  0.60138  0.08146  1.0000
  H   H4758     1.0  0.75348  0.33772  0.16852  1.0000
  C   C3018     1.0  0.89306  0.61170  0.22254  1.0000
  C   C3019     1.0  0.89775  0.60799  0.21254  1.0000
  C   C3020     1.0  0.90934  0.60709  0.20818  1.0000
  C   C3021     1.0  0.91624  0.60971  0.21380  1.0000
  C   C3022     1.0  0.79625  0.32764  0.18545  1.0000
  H   H4759     1.0  0.71640  0.49813  0.16005  1.0000
  H   H4760     1.0  0.91302  0.60433  0.20040  1.0000
  H   H4761     1.0  0.92515  0.60904  0.21031  1.0000
  H   H4762     1.0  0.75384  0.55416  0.13791  1.0000
  H   H4763     1.0  0.76870  0.56428  0.13625  1.0000
  N   N293      1.0  0.78227  0.53581  0.09827  1.0000
  C   C3023     1.0  0.77154  0.54356  0.10150  1.0000
  C   C3024     1.0  0.79177  0.54091  0.09761  1.0000
  C   C3025     1.0  0.78288  0.53351  0.08731  1.0000
  C   C3026     1.0  0.78285  0.52526  0.10670  1.0000
  H   H4764     1.0  0.76420  0.54000  0.10207  1.0000
  H   H4765     1.0  0.77074  0.55160  0.09532  1.0000
  H   H4766     1.0  0.77084  0.54554  0.10971  1.0000
  H   H4767     1.0  0.80001  0.53514  0.09566  1.0000
  H   H4768     1.0  0.79179  0.54869  0.09103  1.0000
  H   H4769     1.0  0.79123  0.54324  0.10562  1.0000
  H   H4770     1.0  0.77602  0.52934  0.08768  1.0000
  H   H4771     1.0  0.79101  0.52796  0.08445  1.0000
  H   H4772     1.0  0.78201  0.54135  0.08083  1.0000
  H   H4773     1.0  0.78252  0.52670  0.11505  1.0000
  H   H4774     1.0  0.79078  0.51914  0.10453  1.0000
  H   H4775     1.0  0.77569  0.52131  0.10753  1.0000
  N   N294      1.0  0.77533  0.61051  0.03014  1.0000
  C   C3027     1.0  0.78128  0.61778  0.02058  1.0000
  C   C3028     1.0  0.77246  0.60189  0.02615  1.0000
  C   C3029     1.0  0.76492  0.61729  0.03563  1.0000
  C   C3030     1.0  0.78270  0.60507  0.03820  1.0000
  H   H4776     1.0  0.78015  0.59652  0.02210  1.0000
  H   H4777     1.0  0.73838  0.33294  0.16298  1.0000
  H   H4778     1.0  0.76694  0.60563  0.02001  1.0000
  H   H4779     1.0  0.75917  0.62162  0.02980  1.0000
  H   H4780     1.0  0.76679  0.62372  0.03899  1.0000
  H   H4781     1.0  0.76022  0.61202  0.04285  1.0000
  H   H4782     1.0  0.78495  0.61128  0.04153  1.0000
  H   H4783     1.0  0.79062  0.59978  0.03442  1.0000
  H   H4784     1.0  0.77847  0.59949  0.04544  1.0000
  N   N295      1.0  0.77984  0.41240  0.08815  1.0000
  C   C3031     1.0  0.77518  0.40413  0.08546  1.0000
  C   C3032     1.0  0.78803  0.40662  0.09534  1.0000
  C   C3033     1.0  0.77062  0.42000  0.09408  1.0000
  C   C3034     1.0  0.78553  0.41889  0.07772  1.0000
  H   H4785     1.0  0.77135  0.39866  0.09313  1.0000
  H   H4786     1.0  0.78182  0.39867  0.08041  1.0000
  H   H4787     1.0  0.76861  0.40828  0.08046  1.0000
  H   H4788     1.0  0.79525  0.40097  0.09108  1.0000
  H   H4789     1.0  0.79150  0.41264  0.09772  1.0000
  H   H4790     1.0  0.78411  0.40144  0.10321  1.0000
  H   H4791     1.0  0.77378  0.42673  0.09562  1.0000
  H   H4792     1.0  0.76652  0.41552  0.10229  1.0000
  H   H4793     1.0  0.76395  0.42413  0.08922  1.0000
  H   H4794     1.0  0.79246  0.41337  0.07297  1.0000
  H   H4795     1.0  0.78917  0.42521  0.07940  1.0000
  H   H4796     1.0  0.77960  0.42340  0.07212  1.0000
  C   C3035     1.0  0.74496  0.53972  0.01681  1.0000
  H   H4797     1.0  0.87832  0.39361  0.23223  1.0000
  S   S1232     1.0  0.95071  0.56467  0.23471  1.0000
  H   H4798     1.0  0.69428  0.62052  0.15608  1.0000
  C   C3036     1.0  0.88798  0.45067  0.20224  1.0000
  N   N296      1.0  0.83194  0.59946  0.14130  1.0000
  C   C3037     1.0  0.83760  0.60462  0.13011  1.0000
  C   C3038     1.0  0.82378  0.60824  0.14665  1.0000
  C   C3039     1.0  0.84040  0.59368  0.14821  1.0000
  C   C3040     1.0  0.82598  0.59132  0.14025  1.0000
  H   H4799     1.0  0.84385  0.59824  0.12584  1.0000
  H   H4800     1.0  0.81920  0.60462  0.15503  1.0000
  H   H4801     1.0  0.82800  0.61439  0.14782  1.0000
  H   H4802     1.0  0.81735  0.61289  0.14161  1.0000
  H   H4803     1.0  0.84674  0.58703  0.14443  1.0000
  H   H4804     1.0  0.83639  0.58961  0.15668  1.0000
  H   H4805     1.0  0.84494  0.59958  0.14934  1.0000
  H   H4806     1.0  0.82166  0.58723  0.14856  1.0000
  H   H4807     1.0  0.83187  0.58457  0.13626  1.0000
  H   H4808     1.0  0.81948  0.59536  0.13513  1.0000
  H   H4809     1.0  0.75418  0.46725  0.10818  1.0000
  C   C3041     1.0  0.74107  0.49373  0.11124  1.0000
  H   H4810     1.0  0.74580  0.49447  0.08926  1.0000
  H   H4811     1.0  0.70644  0.53061  0.16784  1.0000
  H   H4812     1.0  0.71468  0.52230  0.14648  1.0000
  C   C3042     1.0  0.74143  0.34042  0.15840  1.0000
  C   C3043     1.0  0.75005  0.34313  0.16155  1.0000
  H   H4813     1.0  0.81148  0.34065  0.17562  1.0000
  N   N297      1.0  0.73972  0.39551  0.15585  1.0000
  C   C3044     1.0  0.74523  0.39749  0.14392  1.0000
  C   C3045     1.0  0.72982  0.39063  0.15751  1.0000
  C   C3046     1.0  0.73609  0.40625  0.15955  1.0000
  H   H4814     1.0  0.74812  0.38961  0.14078  1.0000
  H   H4815     1.0  0.75262  0.40135  0.14240  1.0000
  H   H4816     1.0  0.73215  0.38280  0.15429  1.0000
  H   H4817     1.0  0.73011  0.41236  0.15463  1.0000
  H   H4818     1.0  0.74338  0.41013  0.15844  1.0000
  H   H4819     1.0  0.73181  0.40516  0.16849  1.0000
  H   H4820     1.0  0.75063  0.37948  0.15980  1.0000
  N   N298      1.0  0.88678  0.43979  0.20978  1.0000
  H   H4821     1.0  0.87225  0.57629  0.22216  1.0000
  H   H4822     1.0  0.87154  0.44001  0.20505  1.0000
  C   C3047     1.0  0.77363  0.34999  0.98849  1.0000
  H   H4823     1.0  0.89755  0.42444  0.21608  1.0000
  C   C3048     1.0  0.81663  0.59344  0.21395  1.0000
  N   N299      1.0  0.68669  0.63349  0.16531  1.0000
  Fe  Fe616     1.0  0.96278  0.60094  0.23232  1.0000
  H   H4824     1.0  0.68776  0.65096  0.13413  1.0000
  H   H4825     1.0  0.91558  0.55933  0.23002  1.0000
  N   N300      1.0  0.79234  0.40900  0.17286  1.0000
  C   C3049     1.0  0.79781  0.41026  0.16092  1.0000
  C   C3050     1.0  0.80031  0.40948  0.17933  1.0000
  C   C3051     1.0  0.78886  0.39814  0.17688  1.0000
  C   C3052     1.0  0.78233  0.41813  0.17431  1.0000
  H   H4826     1.0  0.79199  0.40992  0.15582  1.0000
  H   H4827     1.0  0.80539  0.40352  0.15950  1.0000
  H   H4828     1.0  0.80055  0.41837  0.15758  1.0000
  H   H4829     1.0  0.80343  0.41741  0.17631  1.0000
  H   H4830     1.0  0.79639  0.40880  0.18835  1.0000
  H   H4831     1.0  0.80781  0.40253  0.17871  1.0000
  H   H4832     1.0  0.78486  0.39679  0.18590  1.0000
  H   H4833     1.0  0.79618  0.39106  0.17571  1.0000
  H   H4834     1.0  0.78272  0.39756  0.17227  1.0000
  H   H4835     1.0  0.77789  0.41739  0.18320  1.0000
  H   H4836     1.0  0.77618  0.41808  0.16945  1.0000
  H   H4837     1.0  0.78467  0.42645  0.17141  1.0000
  N   N301      1.0  0.72636  0.40082  0.09608  1.0000
  C   C3053     1.0  0.73250  0.38984  0.09351  1.0000
  C   C3054     1.0  0.73100  0.40982  0.08763  1.0000
  C   C3055     1.0  0.72758  0.40131  0.10715  1.0000
  C   C3056     1.0  0.71433  0.40237  0.09603  1.0000
  H   H4838     1.0  0.72873  0.38294  0.09938  1.0000
  H   H4839     1.0  0.74150  0.38815  0.09400  1.0000
  H   H4840     1.0  0.73228  0.38943  0.08496  1.0000
  H   H4841     1.0  0.73043  0.40959  0.07910  1.0000
  H   H4842     1.0  0.72631  0.41819  0.08926  1.0000
  H   H4843     1.0  0.73999  0.40923  0.08754  1.0000
  H   H4844     1.0  0.73654  0.40023  0.10747  1.0000
  H   H4845     1.0  0.72409  0.39466  0.11372  1.0000
  H   H4846     1.0  0.72308  0.40951  0.10933  1.0000
  H   H4847     1.0  0.71313  0.40259  0.08761  1.0000
  H   H4848     1.0  0.70937  0.41038  0.09839  1.0000
  H   H4849     1.0  0.71055  0.39551  0.10199  1.0000
  H   H4850     1.0  0.76809  0.34949  0.10393  1.0000
  H   H4851     1.0  0.72083  0.50056  0.17135  1.0000
  C   C3057     1.0  0.72755  0.40342  0.03436  1.0000
  N   N302      1.0  0.75198  0.57201  0.13382  1.0000
  H   H4852     1.0  0.76659  0.48081  0.09848  1.0000
  C   C3058     1.0  0.98935  0.39452  0.22413  1.0000
  H   H4853     1.0  0.79028  0.33176  0.98842  1.0000
  H   H4854     1.0  0.73977  0.47227  0.11426  1.0000
  H   H4855     1.0  0.73981  0.56182  0.13717  1.0000
  H   H4856     1.0  0.75261  0.35379  0.11978  1.0000
  H   H4857     1.0  0.70938  0.59114  0.09596  1.0000
  H   H4858     1.0  0.73557  0.58245  0.13323  1.0000
  H   H4859     1.0  0.76105  0.49555  0.09778  1.0000
  C   C3059     1.0  0.74774  0.38767  0.16241  1.0000
  H   H4860     1.0  0.76313  0.48646  0.11082  1.0000
  H   H4861     1.0  0.83849  0.58603  0.21351  1.0000
  C   C3060     1.0  0.71663  0.59039  0.08877  1.0000
  H   H4862     1.0  0.77682  0.35467  0.99284  1.0000
  C   C3061     1.0  0.74221  0.39510  0.02060  1.0000
  C   C3062     1.0  0.89803  0.43247  0.20995  1.0000
  H   H4863     1.0  0.81629  0.57357  0.21060  1.0000
  H   H4864     1.0  0.74933  0.54029  0.02314  1.0000
  H   H4865     1.0  0.78167  0.33327  0.17167  1.0000
  S   S1233     1.0  0.67933  0.63589  0.12620  1.0000
  C   C3063     1.0  0.67269  0.64798  0.13159  1.0000
  C   C3064     1.0  0.72787  0.59996  0.07241  1.0000
  C   C3065     1.0  0.75337  0.52015  0.01771  1.0000
  H   H4866     1.0  0.92653  0.33866  0.22256  1.0000
  H   H4867     1.0  0.88872  0.36952  0.23440  1.0000
  H   H4868     1.0  0.89622  0.41176  0.20398  1.0000
  H   H4869     1.0  0.88304  0.64118  0.23373  1.0000
  H   H4870     1.0  0.83467  0.57856  0.20537  1.0000
  H   H4871     1.0  0.73803  0.33711  0.11074  1.0000
  C   C3066     1.0  0.96382  0.42291  0.22666  1.0000
  N   N303      1.0  0.73183  0.39363  0.02906  1.0000
  C   C3067     1.0  0.81602  0.57388  0.21935  1.0000
  H   H4872     1.0  0.92301  0.35829  0.21204  1.0000
  C   C3068     1.0  0.73431  0.38345  0.03764  1.0000
  C   C3069     1.0  0.72325  0.39250  0.02367  1.0000
  H   H4873     1.0  0.78767  0.32628  0.18987  1.0000
  H   H4874     1.0  0.74078  0.40292  0.01420  1.0000
  C   C3070     1.0  0.71866  0.50455  0.16307  1.0000
  H   H4875     1.0  0.90514  0.58305  0.21963  1.0000
  C   C3071     1.0  0.69924  0.51135  0.17123  1.0000
  H   H4876     1.0  0.75076  0.47297  0.12044  1.0000
  C   C3072     1.0  0.89997  0.61429  0.22819  1.0000
  H   H4877     1.0  0.74115  0.38377  0.04152  1.0000
  H   H4878     1.0  0.73702  0.37583  0.03409  1.0000
  H   H4879     1.0  0.72117  0.40002  0.01711  1.0000
  H   H4880     1.0  0.71533  0.39131  0.02985  1.0000
  C   C3073     1.0  0.76044  0.48707  0.10297  1.0000
  C   C3074     1.0  0.75495  0.57237  0.12169  1.0000
  H   H4881     1.0  0.84213  0.61086  0.13057  1.0000
  H   H4882     1.0  0.74453  0.53937  0.99583  1.0000
  H   H4883     1.0  0.74351  0.54822  0.01140  1.0000
  H   H4884     1.0  0.78919  0.61289  0.01630  1.0000
  H   H4885     1.0  0.78358  0.62438  0.02331  1.0000
  H   H4886     1.0  0.74131  0.50234  0.10622  1.0000
  S   S1234     1.0  0.97203  0.38738  0.22045  1.0000
  H   H4887     1.0  0.77598  0.62201  0.01430  1.0000
  N   N304      1.0  0.75172  0.53128  0.01024  1.0000
  H   H4888     1.0  0.87962  0.45636  0.20185  1.0000
  H   H4889     1.0  0.89135  0.52172  0.22823  1.0000
  H   H4890     1.0  0.76143  0.56489  0.11967  1.0000
  N   N305      1.0  0.70949  0.51457  0.16362  1.0000
  S   S1235     1.0  0.90166  0.45314  0.23456  1.0000
  C   C3075     1.0  0.76209  0.57180  0.13773  1.0000
  H   H4891     1.0  0.75848  0.57982  0.11693  1.0000
  H   H4892     1.0  0.76582  0.57921  0.13333  1.0000
  C   C3076     1.0  0.74330  0.58199  0.13614  1.0000
  H   H4893     1.0  0.74636  0.58979  0.13185  1.0000
  N   N306      1.0  0.74888  0.48519  0.10533  1.0000
  C   C3077     1.0  0.74839  0.47394  0.11235  1.0000
  C   C3078     1.0  0.74557  0.48606  0.09477  1.0000
  C   C3079     1.0  0.71293  0.52272  0.16779  1.0000
  H   H4894     1.0  0.71447  0.51931  0.17638  1.0000
  H   H4895     1.0  0.70827  0.61468  0.07113  1.0000
  H   H4896     1.0  0.88413  0.61249  0.22596  1.0000
  H   H4897     1.0  0.69642  0.50523  0.16828  1.0000
  C   C3080     1.0  0.68903  0.62604  0.17590  1.0000
  H   H4898     1.0  0.76583  0.35544  0.98601  1.0000
  H   H4899     1.0  0.72084  0.52506  0.16240  1.0000
  H   H4900     1.0  0.74538  0.38807  0.01616  1.0000
  C   C3081     1.0  0.82136  0.58255  0.23138  1.0000
  C   C3082     1.0  0.70716  0.51965  0.15237  1.0000
  H   H4901     1.0  0.70468  0.51372  0.14887  1.0000
  H   H4902     1.0  0.94580  0.35373  0.22738  1.0000
  Fe  Fe617     1.0  0.92975  0.39643  0.22214  1.0000
  C   C3083     1.0  0.85241  0.43321  0.21898  1.0000
  N   N307      1.0  0.79578  0.33691  0.17559  1.0000
  H   H4903     1.0  0.70033  0.52729  0.15243  1.0000
  H   H4904     1.0  0.75793  0.63047  0.13062  1.0000
  S   S1236     1.0  0.71181  0.33622  0.12543  1.0000
  C   C3084     1.0  0.87992  0.43451  0.20573  1.0000
  H   H4905     1.0  0.71982  0.40249  0.04094  1.0000
  H   H4906     1.0  0.80776  0.59610  0.21825  1.0000
  H   H4907     1.0  0.70072  0.50741  0.17979  1.0000
  H   H4908     1.0  0.69218  0.51873  0.17187  1.0000
  H   H4909     1.0  0.76702  0.60769  0.10868  1.0000
  H   H4910     1.0  0.71162  0.61002  0.09500  1.0000
  C   C3085     1.0  0.84856  0.44472  0.21833  1.0000
  H   H4911     1.0  0.72730  0.59430  0.06732  1.0000
  H   H4912     1.0  0.89034  0.53289  0.23485  1.0000
  H   H4913     1.0  0.74919  0.35450  0.09146  1.0000
  H   H4914     1.0  0.94010  0.33224  0.22594  1.0000
  C   C3086     1.0  0.85613  0.42652  0.22855  1.0000
  C   C3087     1.0  0.68627  0.62672  0.15766  1.0000
  N   N308      1.0  0.91662  0.57573  0.23078  1.0000
  H   H4915     1.0  0.87843  0.42647  0.21143  1.0000
  H   H4916     1.0  0.68480  0.63199  0.14946  1.0000
  H   H4917     1.0  0.79601  0.34380  0.98658  1.0000
  C   C3088     1.0  0.94849  0.35090  0.21932  1.0000
  C   C3089     1.0  0.93389  0.34027  0.22472  1.0000
  H   H4918     1.0  0.76800  0.59620  0.03315  1.0000
  H   H4919     1.0  0.89268  0.38821  0.23333  1.0000
  H   H4920     1.0  0.97191  0.41954  0.22953  1.0000
  H   H4921     1.0  0.75075  0.52492  0.99649  1.0000
  S   S1237     1.0  0.83937  0.60591  0.22530  1.0000
  C   C3090     1.0  0.92422  0.58359  0.22546  1.0000
  H   H4922     1.0  0.95243  0.35745  0.21299  1.0000
  H   H4923     1.0  0.68346  0.33638  0.10868  1.0000
  H   H4924     1.0  0.72912  0.60808  0.06678  1.0000
  H   H4925     1.0  0.97567  0.62925  0.22654  1.0000
  H   H4926     1.0  0.72627  0.38516  0.01960  1.0000
  C   C3091     1.0  0.74728  0.33569  0.10733  1.0000
  H   H4927     1.0  0.72009  0.61717  0.08286  1.0000
  H   H4928     1.0  0.77736  0.62582  0.11137  1.0000
  H   H4929     1.0  0.94585  0.43912  0.22258  1.0000
  H   H4930     1.0  0.73996  0.34865  0.12248  1.0000
  H   H4931     1.0  0.89919  0.57549  0.23306  1.0000
  H   H4932     1.0  0.76806  0.52817  0.99941  1.0000
  Fe  Fe618     1.0  0.85370  0.59127  0.22566  1.0000
  H   H4933     1.0  0.75277  0.60778  0.13275  1.0000
  C   C3092     1.0  0.94457  0.43306  0.23067  1.0000
  H   H4934     1.0  0.76663  0.34159  0.09485  1.0000
  H   H4935     1.0  0.90472  0.37072  0.21713  1.0000
  C   C3093     1.0  0.70769  0.60635  0.07665  1.0000
  H   H4936     1.0  0.84577  0.44995  0.21093  1.0000
  H   H4937     1.0  0.72680  0.38237  0.04447  1.0000
  H   H4938     1.0  0.78147  0.61107  0.11660  1.0000
  H   H4939     1.0  0.75254  0.61460  0.11245  1.0000
  H   H4940     1.0  0.76711  0.60047  0.12872  1.0000
  H   H4941     1.0  0.83838  0.57148  0.21850  1.0000
  N   N309      1.0  0.75195  0.34511  0.10763  1.0000
  C   C3094     1.0  0.76173  0.60856  0.13046  1.0000
  H   H4942     1.0  0.76265  0.62241  0.10354  1.0000
  H   H4943     1.0  0.94934  0.33732  0.20597  1.0000
  H   H4944     1.0  0.93086  0.34284  0.23291  1.0000
  C   C3095     1.0  0.76140  0.61550  0.11095  1.0000
  H   H4945     1.0  0.77760  0.62048  0.12592  1.0000
  N   N310      1.0  0.76371  0.61782  0.12082  1.0000
  C   C3096     1.0  0.77555  0.61887  0.11855  1.0000
  H   H4946     1.0  0.69639  0.64494  0.16576  1.0000
  H   H4947     1.0  0.73559  0.59614  0.07584  1.0000
  H   H4948     1.0  0.88626  0.44541  0.22451  1.0000
  C   C3097     1.0  0.91033  0.38604  0.21462  1.0000
  H   H4949     1.0  0.74716  0.62770  0.12551  1.0000
  H   H4950     1.0  0.75709  0.63546  0.11616  1.0000
  C   C3098     1.0  0.75617  0.62832  0.12339  1.0000
  C   C3099     1.0  0.79047  0.33429  0.16777  1.0000
  H   H4951     1.0  0.75275  0.33917  0.12497  1.0000
  H   H4952     1.0  0.92132  0.56756  0.21694  1.0000
  H   H4953     1.0  0.81269  0.33083  0.16718  1.0000
  H   H4954     1.0  0.73741  0.52905  0.00546  1.0000
  C   C3100     1.0  0.92097  0.56558  0.22607  1.0000
  C   C3101     1.0  0.84784  0.44946  0.22733  1.0000
  C   C3102     1.0  0.74700  0.35536  0.10032  1.0000
  H   H4955     1.0  0.74518  0.51771  0.02196  1.0000
  H   H4956     1.0  0.73709  0.36234  0.13685  1.0000
  H   H4957     1.0  0.72551  0.41127  0.02818  1.0000
  N   N311      1.0  0.82197  0.58234  0.21968  1.0000
  H   H4958     1.0  0.91792  0.38202  0.21769  1.0000
  H   H4959     1.0  0.75006  0.36270  0.10060  1.0000
  S   S1238     1.0  0.95209  0.59683  0.22270  1.0000
  C   C3103     1.0  0.83389  0.57948  0.21401  1.0000
  S   S1239     1.0  0.94241  0.38041  0.22071  1.0000
  Fe  Fe619     1.0  0.84276  0.39040  0.22539  1.0000
  H   H4960     1.0  0.93302  0.57967  0.22632  1.0000
  C   C3104     1.0  0.93030  0.35941  0.21471  1.0000
  H   H4961     1.0  0.90193  0.58898  0.23169  1.0000
  C   C3105     1.0  0.76429  0.34261  0.10366  1.0000
  H   H4962     1.0  0.75851  0.51363  0.01299  1.0000
  H   H4963     1.0  0.81651  0.59344  0.20524  1.0000
  Fe  Fe620     1.0  0.85111  0.61478  0.22854  1.0000
  S   S1240     1.0  0.94162  0.40425  0.22651  1.0000
  H   H4964     1.0  0.93579  0.34365  0.20258  1.0000
  H   H4965     1.0  0.72651  0.60519  0.09192  1.0000
  H   H4966     1.0  0.69997  0.60747  0.08331  1.0000
  H   H4967     1.0  0.69426  0.64557  0.15219  1.0000
  C   C3106     1.0  0.71904  0.60882  0.08805  1.0000
  H   H4968     1.0  0.74909  0.39543  0.02443  1.0000
  H   H4969     1.0  0.89099  0.56568  0.22525  1.0000
  S   S1241     1.0  0.67895  0.33462  0.13296  1.0000
  H   H4970     1.0  0.89224  0.44964  0.19361  1.0000
  H   H4971     1.0  0.76756  0.53426  0.01094  1.0000
  S   S1242     1.0  0.92005  0.61638  0.23130  1.0000
  H   H4972     1.0  0.79282  0.34960  0.18501  1.0000
  H   H4973     1.0  0.96556  0.42870  0.21846  1.0000
  H   H4974     1.0  0.76180  0.54255  0.99931  1.0000
  S   S1243     1.0  0.74842  0.56259  0.98839  1.0000
  H   H4975     1.0  0.82121  0.59999  0.21356  1.0000
  H   H4976     1.0  0.88000  0.43356  0.22706  1.0000
  H   H4977     1.0  0.94128  0.42630  0.22937  1.0000
  C   C3107     1.0  0.67165  0.32821  0.10592  1.0000
  H   H4978     1.0  0.94660  0.35159  0.19857  1.0000
  H   H4979     1.0  0.95513  0.34317  0.22042  1.0000
  H   H4980     1.0  0.96124  0.41574  0.22522  1.0000
  C   C3108     1.0  0.94283  0.34520  0.20531  1.0000
  H   H4981     1.0  0.78865  0.35435  0.17190  1.0000
  H   H4982     1.0  0.92168  0.59099  0.22935  1.0000
  H   H4983     1.0  0.91102  0.43243  0.22762  1.0000
  C   C3109     1.0  0.88353  0.56334  0.23093  1.0000
  C   C3110     1.0  0.87290  0.56931  0.22914  1.0000
  C   C3111     1.0  0.98182  0.62445  0.23148  1.0000
  H   H4984     1.0  0.90367  0.43654  0.21221  1.0000
  H   H4985     1.0  0.90983  0.51281  0.23377  1.0000
  H   H4986     1.0  0.79526  0.32650  0.16490  1.0000
  H   H4987     1.0  0.92697  0.36235  0.22270  1.0000
  C   C3112     1.0  0.69575  0.63981  0.16018  1.0000
  H   H4988     1.0  0.92437  0.58650  0.21639  1.0000
  H   H4989     1.0  0.80700  0.57576  0.22357  1.0000
  H   H4990     1.0  0.67397  0.35878  0.13236  1.0000
  N   N312      1.0  0.93888  0.34894  0.21602  1.0000
  C   C3113     1.0  0.99432  0.39899  0.23021  1.0000
  H   H4991     1.0  0.80727  0.34545  0.16255  1.0000
  C   C3114     1.0  0.98492  0.61286  0.23257  1.0000
  H   H4992     1.0  0.67450  0.32997  0.09695  1.0000
  H   H4993     1.0  0.85939  0.41768  0.22899  1.0000
  C   C3115     1.0  0.67677  0.33186  0.11257  1.0000
  H   H4994     1.0  0.67126  0.35594  0.11493  1.0000
  C   C3116     1.0  0.67876  0.65375  0.13501  1.0000
  C   C3117     1.0  0.67318  0.32971  0.12418  1.0000
  C   C3118     1.0  0.97846  0.39239  0.22838  1.0000
  H   H4995     1.0  0.90285  0.63918  0.23446  1.0000
  H   H4996     1.0  0.84428  0.45827  0.22694  1.0000
  H   H4997     1.0  0.92965  0.56154  0.22735  1.0000
  H   H4998     1.0  0.70410  0.63409  0.15837  1.0000
  C   C3119     1.0  0.90522  0.58103  0.22869  1.0000
  H   H4999     1.0  0.66876  0.63688  0.17146  1.0000
  Fe  Fe621     1.0  0.74535  0.36747  0.98690  1.0000
  H   H5000     1.0  0.67583  0.64677  0.17308  1.0000
  Fe  Fe622     1.0  0.93708  0.60540  0.23389  1.0000
  H   H5001     1.0  0.67369  0.64698  0.15962  1.0000
  S   S1244     1.0  0.85004  0.57461  0.23490  1.0000
  N   N313      1.0  0.95509  0.42856  0.23489  1.0000
  H   H5002     1.0  0.87402  0.37510  0.23493  1.0000
  H   H5003     1.0  0.87182  0.33280  0.31997  1.0000
  H   H5004     1.0  0.99140  0.36911  0.26993  1.0000
  S   S1245     1.0  0.96285  0.58502  0.24530  1.0000
  C   C3120     1.0  0.87486  0.61268  0.35542  1.0000
  S   S1246     1.0  0.93553  0.58985  0.24698  1.0000
  Fe  Fe623     1.0  0.94725  0.59466  0.25442  1.0000
  S   S1247     1.0  0.94363  0.59397  0.27279  1.0000
  H   H5005     1.0  0.85810  0.62097  0.34444  1.0000
  H   H5006     1.0  0.85394  0.60304  0.25466  1.0000
  S   S1248     1.0  0.87842  0.64821  0.29213  1.0000
  Fe  Fe624     1.0  0.88447  0.55241  0.28356  1.0000
  S   S1249     1.0  0.89940  0.55612  0.27025  1.0000
  S   S1250     1.0  0.87192  0.56779  0.28813  1.0000
  Fe  Fe625     1.0  0.89127  0.52734  0.28346  1.0000
  S   S1251     1.0  0.90692  0.52929  0.27028  1.0000
  S   S1252     1.0  0.88836  0.50961  0.28943  1.0000
  Fe  Fe626     1.0  0.90908  0.54088  0.27976  1.0000
  S   S1253     1.0  0.92560  0.54269  0.28188  1.0000
  Fe  Fe627     1.0  0.89586  0.54429  0.26205  1.0000
  H   H5007     1.0  0.82243  0.43126  0.25865  1.0000
  S   S1254     1.0  0.89437  0.53781  0.29385  1.0000
  S   S1255     1.0  0.87997  0.54169  0.27452  1.0000
  C   C3121     1.0  0.83426  0.34295  0.30999  1.0000
  S   S1256     1.0  0.94697  0.38080  0.24515  1.0000
  H   H5008     1.0  0.89160  0.52853  0.25493  1.0000
  H   H5009     1.0  0.84179  0.32770  0.29700  1.0000
  Fe  Fe628     1.0  0.87490  0.44744  0.27130  1.0000
  S   S1257     1.0  0.87755  0.44170  0.25545  1.0000
  S   S1258     1.0  0.87551  0.43516  0.28756  1.0000
  Fe  Fe629     1.0  0.86914  0.47201  0.26056  1.0000
  S   S1259     1.0  0.86374  0.48955  0.26396  1.0000
  Fe  Fe630     1.0  0.86180  0.45428  0.25299  1.0000
  Fe  Fe631     1.0  0.88608  0.45609  0.24758  1.0000
  C   C3122     1.0  0.86383  0.58187  0.26235  1.0000
  S   S1260     1.0  0.85857  0.45924  0.26942  1.0000
  S   S1261     1.0  0.88537  0.46047  0.26374  1.0000
  Fe  Fe632     1.0  0.85974  0.38036  0.29482  1.0000
  S   S1262     1.0  0.87362  0.37329  0.28192  1.0000
  S   S1263     1.0  0.85072  0.39772  0.28815  1.0000
  Fe  Fe633     1.0  0.86249  0.35837  0.31203  1.0000
  S   S1264     1.0  0.87645  0.34955  0.30023  1.0000
  Fe  Fe634     1.0  0.88278  0.36537  0.29579  1.0000
  S   S1265     1.0  0.90086  0.36602  0.29345  1.0000
  Fe  Fe635     1.0  0.86581  0.35834  0.28755  1.0000
  S   S1266     1.0  0.86366  0.35071  0.27440  1.0000
  S   S1267     1.0  0.86960  0.37379  0.30839  1.0000
  S   S1268     1.0  0.85125  0.36583  0.29965  1.0000
  Fe  Fe636     1.0  0.87731  0.64010  0.31032  1.0000
  Fe  Fe637     1.0  0.88321  0.61653  0.30524  1.0000
  S   S1269     1.0  0.88554  0.62273  0.28679  1.0000
  S   S1270     1.0  0.88583  0.59802  0.31278  1.0000
  Fe  Fe638     1.0  0.89393  0.63497  0.28953  1.0000
  S   S1271     1.0  0.90911  0.63899  0.27703  1.0000
  Fe  Fe639     1.0  0.86979  0.63533  0.29078  1.0000
  S   S1272     1.0  0.89352  0.62746  0.30762  1.0000
  S   S1273     1.0  0.86680  0.62849  0.30933  1.0000
  H   H5010     1.0  0.88966  0.38099  0.25826  1.0000
  C   C3123     1.0  0.99817  0.61227  0.24384  1.0000
  S   S1274     1.0  0.89768  0.54850  0.24347  1.0000
  C   C3124     1.0  0.85399  0.63539  0.26964  1.0000
  N   N314      1.0  0.89393  0.51647  0.24505  1.0000
  H   H5011     1.0  0.89119  0.64353  0.26354  1.0000
  C   C3125     1.0  0.84883  0.62910  0.25204  1.0000
  C   C3126     1.0  0.84136  0.63729  0.25741  1.0000
  C   C3127     1.0  0.84394  0.64045  0.26602  1.0000
  H   H5012     1.0  0.83344  0.64128  0.25488  1.0000
  H   H5013     1.0  0.88293  0.60704  0.35708  1.0000
  C   C3128     1.0  0.88100  0.63941  0.24301  1.0000
  C   C3129     1.0  0.85474  0.36014  0.26598  1.0000
  C   C3130     1.0  0.84626  0.36846  0.27028  1.0000
  C   C3131     1.0  0.83961  0.37638  0.26336  1.0000
  C   C3132     1.0  0.84173  0.37635  0.25199  1.0000
  C   C3133     1.0  0.85027  0.36809  0.24765  1.0000
  C   C3134     1.0  0.85657  0.35983  0.25470  1.0000
  H   H5014     1.0  0.84472  0.36874  0.27896  1.0000
  H   H5015     1.0  0.86540  0.62955  0.33276  1.0000
  H   H5016     1.0  0.86500  0.61775  0.25131  1.0000
  C   C3135     1.0  0.86775  0.42517  0.28848  1.0000
  C   C3136     1.0  0.86151  0.42658  0.28043  1.0000
  C   C3137     1.0  0.85609  0.41823  0.28056  1.0000
  C   C3138     1.0  0.85688  0.40838  0.28874  1.0000
  C   C3139     1.0  0.86283  0.40708  0.29702  1.0000
  C   C3140     1.0  0.86822  0.41551  0.29692  1.0000
  H   H5017     1.0  0.86083  0.43411  0.27405  1.0000
  H   H5018     1.0  0.85146  0.41936  0.27417  1.0000
  H   H5019     1.0  0.86331  0.39957  0.30347  1.0000
  H   H5020     1.0  0.87293  0.41443  0.30325  1.0000
  C   C3141     1.0  0.92099  0.36010  0.25935  1.0000
  C   C3142     1.0  0.91088  0.35640  0.26381  1.0000
  C   C3143     1.0  0.90463  0.35812  0.27436  1.0000
  C   C3144     1.0  0.90874  0.36315  0.28058  1.0000
  C   C3145     1.0  0.91910  0.36636  0.27630  1.0000
  C   C3146     1.0  0.92508  0.36505  0.26562  1.0000
  H   H5021     1.0  0.90774  0.35247  0.25901  1.0000
  H   H5022     1.0  0.89671  0.35546  0.27773  1.0000
  H   H5023     1.0  0.89530  0.49916  0.25320  1.0000
  H   H5024     1.0  0.93298  0.36771  0.26232  1.0000
  C   C3147     1.0  0.91850  0.42956  0.25603  1.0000
  C   C3148     1.0  0.91237  0.43972  0.25100  1.0000
  H   H5025     1.0  0.88882  0.41678  0.27100  1.0000
  H   H5026     1.0  0.92063  0.42876  0.26396  1.0000
  H   H5027     1.0  0.90966  0.44674  0.25509  1.0000
  H   H5028     1.0  0.83273  0.42870  0.24632  1.0000
  H   H5029     1.0  0.99580  0.59784  0.23937  1.0000
  C   C3149     1.0  0.99320  0.60679  0.23868  1.0000
  H   H5030     1.0  0.84236  0.33368  0.32836  1.0000
  H   H5031     1.0  0.89341  0.41567  0.28350  1.0000
  C   C3150     1.0  0.92172  0.42044  0.25085  1.0000
  C   C3151     1.0  0.99638  0.37245  0.26165  1.0000
  C   C3152     1.0  0.99494  0.62387  0.24281  1.0000
  C   C3153     1.0  0.87477  0.55136  0.24723  1.0000
  C   C3154     1.0  0.88082  0.65506  0.33025  1.0000
  H   H5032     1.0  0.87541  0.54432  0.25409  1.0000
  H   H5033     1.0  0.85663  0.55473  0.25084  1.0000
  C   C3155     1.0  0.87582  0.57608  0.29506  1.0000
  C   C3156     1.0  0.88114  0.57125  0.30407  1.0000
  C   C3157     1.0  0.88396  0.57806  0.30960  1.0000
  C   C3158     1.0  0.88160  0.58973  0.30609  1.0000
  C   C3159     1.0  0.87620  0.59455  0.29713  1.0000
  C   C3160     1.0  0.87325  0.58776  0.29170  1.0000
  H   H5034     1.0  0.88298  0.56227  0.30685  1.0000
  H   H5035     1.0  0.88806  0.57426  0.31658  1.0000
  H   H5036     1.0  0.87416  0.60352  0.29446  1.0000
  H   H5037     1.0  0.86903  0.59159  0.28483  1.0000
  C   C3161     1.0  0.88165  0.50422  0.28208  1.0000
  C   C3162     1.0  0.88630  0.49357  0.27966  1.0000
  C   C3163     1.0  0.88106  0.48907  0.27388  1.0000
  C   C3164     1.0  0.87094  0.49504  0.27077  1.0000
  C   C3165     1.0  0.86628  0.50567  0.27322  1.0000
  C   C3166     1.0  0.87162  0.51026  0.27882  1.0000
  H   H5038     1.0  0.89406  0.48886  0.28216  1.0000
  H   H5039     1.0  0.88488  0.48098  0.27184  1.0000
  H   H5040     1.0  0.85845  0.51036  0.27084  1.0000
  H   H5041     1.0  0.86790  0.51843  0.28075  1.0000
  C   C3167     1.0  0.93293  0.60561  0.27484  1.0000
  C   C3168     1.0  0.93062  0.60971  0.28456  1.0000
  C   C3169     1.0  0.92313  0.61997  0.28534  1.0000
  C   C3170     1.0  0.91817  0.62611  0.27634  1.0000
  C   C3171     1.0  0.92011  0.62174  0.26688  1.0000
  C   C3172     1.0  0.92733  0.61141  0.26621  1.0000
  H   H5042     1.0  0.93481  0.60515  0.29132  1.0000
  H   H5043     1.0  0.92139  0.62328  0.29278  1.0000
  H   H5044     1.0  0.91605  0.62633  0.26004  1.0000
  H   H5045     1.0  0.92868  0.60809  0.25889  1.0000
  C   C3173     1.0  0.94526  0.55711  0.24785  1.0000
  C   C3174     1.0  0.94658  0.55946  0.25751  1.0000
  C   C3175     1.0  0.94115  0.55437  0.26801  1.0000
  C   C3176     1.0  0.93380  0.54748  0.26885  1.0000
  C   C3177     1.0  0.93259  0.54501  0.25920  1.0000
  C   C3178     1.0  0.93861  0.54953  0.24874  1.0000
  H   H5046     1.0  0.95183  0.56518  0.25690  1.0000
  H   H5047     1.0  0.94242  0.55604  0.27543  1.0000
  H   H5048     1.0  0.92708  0.53956  0.25980  1.0000
  C   C3179     1.0  0.86504  0.62561  0.34172  1.0000
  H   H5049     1.0  0.83293  0.38263  0.26681  1.0000
  S   S1275     1.0  0.84434  0.62558  0.24151  1.0000
  H   H5050     1.0  0.88627  0.39781  0.29239  1.0000
  H   H5051     1.0  0.84896  0.40981  0.25859  1.0000
  H   H5052     1.0  0.88588  0.62896  0.33130  1.0000
  C   C3180     1.0  0.88559  0.64074  0.25982  1.0000
  H   H5053     1.0  0.88165  0.63025  0.24592  1.0000
  H   H5054     1.0  0.91570  0.39868  0.27811  1.0000
  H   H5055     1.0  0.88720  0.60391  0.33769  1.0000
  S   S1276     1.0  0.85528  0.35031  0.32971  1.0000
  H   H5056     1.0  0.83710  0.42876  0.25864  1.0000
  C   C3181     1.0  0.91607  0.57275  0.24293  1.0000
  S   S1277     1.0  0.94790  0.61093  0.24214  1.0000
  H   H5057     1.0  0.83800  0.64688  0.26996  1.0000
  N   N315      1.0  0.88858  0.64337  0.24751  1.0000
  N   N316      1.0  0.96218  0.62027  0.26658  1.0000
  H   H5058     1.0  0.88252  0.63163  0.34502  1.0000
  H   H5059     1.0  0.90634  0.64077  0.24670  1.0000
  C   C3182     1.0  0.84154  0.32762  0.32384  1.0000
  C   C3183     1.0  0.88053  0.37183  0.24012  1.0000
  C   C3184     1.0  0.85094  0.59955  0.26365  1.0000
  C   C3185     1.0  0.89589  0.41291  0.27541  1.0000
  H   H5060     1.0  0.82500  0.41264  0.24569  1.0000
  H   H5061     1.0  0.94581  0.42415  0.25169  1.0000
  C   C3186     1.0  0.86160  0.62706  0.26439  1.0000
  S   S1278     1.0  0.99360  0.40773  0.24830  1.0000
  H   H5062     1.0  0.86928  0.58372  0.26695  1.0000
  C   C3187     1.0  0.96086  0.61377  0.27818  1.0000
  H   H5063     1.0  0.97870  0.62270  0.26578  1.0000
  H   H5064     1.0  0.95191  0.63241  0.25600  1.0000
  S   S1279     1.0  0.92946  0.40772  0.25685  1.0000
  S   S1280     1.0  0.92812  0.35940  0.24564  1.0000
  H   H5065     1.0  0.88637  0.63160  0.26309  1.0000
  H   H5066     1.0  0.83601  0.58866  0.26175  1.0000
  H   H5067     1.0  0.86936  0.62302  0.26718  1.0000
  H   H5068     1.0  0.94735  0.63284  0.27057  1.0000
  C   C3188     1.0  0.88845  0.39625  0.28379  1.0000
  H   H5069     1.0  0.83428  0.41365  0.27537  1.0000
  C   C3189     1.0  0.88963  0.52034  0.25565  1.0000
  H   H5070     1.0  0.90579  0.39860  0.29121  1.0000
  S   S1281     1.0  0.92160  0.39052  0.23983  1.0000
  C   C3190     1.0  0.95116  0.62718  0.26459  1.0000
  N   N317      1.0  0.88085  0.38009  0.24625  1.0000
  N   N318      1.0  0.89849  0.40061  0.27713  1.0000
  H   H5071     1.0  0.89302  0.61958  0.34169  1.0000
  H   H5072     1.0  0.84883  0.57384  0.27972  1.0000
  C   C3191     1.0  0.88926  0.37512  0.25333  1.0000
  H   H5073     1.0  0.86492  0.57261  0.26411  1.0000
  H   H5074     1.0  0.85595  0.60174  0.26846  1.0000
  C   C3192     1.0  0.83083  0.42622  0.25560  1.0000
  H   H5075     1.0  0.84482  0.40973  0.24606  1.0000
  H   H5076     1.0  0.95272  0.44213  0.24298  1.0000
  H   H5077     1.0  0.83880  0.58684  0.28056  1.0000
  H   H5078     1.0  0.87675  0.64483  0.26303  1.0000
  H   H5079     1.0  0.86724  0.37589  0.25964  1.0000
  H   H5080     1.0  0.84206  0.60401  0.26600  1.0000
  Fe  Fe640     1.0  0.93437  0.39699  0.24419  1.0000
  C   C3193     1.0  0.88473  0.62484  0.34028  1.0000
  H   H5081     1.0  0.90411  0.38803  0.26726  1.0000
  C   C3194     1.0  0.90984  0.44081  0.24064  1.0000
  H   H5082     1.0  0.84772  0.58841  0.25017  1.0000
  H   H5083     1.0  0.89671  0.64803  0.32069  1.0000
  H   H5084     1.0  0.81972  0.41558  0.27512  1.0000
  C   C3195     1.0  0.82284  0.41113  0.25497  1.0000
  C   C3196     1.0  0.85132  0.44280  0.23697  1.0000
  H   H5085     1.0  0.96678  0.61706  0.25006  1.0000
  H   H5086     1.0  0.82255  0.40213  0.25803  1.0000
  H   H5087     1.0  0.91208  0.58010  0.24684  1.0000
  S   S1282     1.0  0.84818  0.44847  0.24893  1.0000
  C   C3197     1.0  0.91883  0.42149  0.24070  1.0000
  C   C3198     1.0  0.85406  0.33468  0.30699  1.0000
  C   C3199     1.0  0.90783  0.39595  0.28311  1.0000
  C   C3200     1.0  0.89141  0.50537  0.24655  1.0000
  H   H5088     1.0  0.92245  0.36999  0.28118  1.0000
  H   H5089     1.0  0.97518  0.60770  0.25950  1.0000
  H   H5090     1.0  0.91060  0.50982  0.24823  1.0000
  H   H5091     1.0  0.86830  0.60757  0.35815  1.0000
  C   C3201     1.0  0.88446  0.55469  0.24026  1.0000
  C   C3202     1.0  0.85909  0.62403  0.25546  1.0000
  H   H5092     1.0  0.94509  0.62190  0.26548  1.0000
  C   C3203     1.0  0.89257  0.65277  0.32712  1.0000
  C   C3204     1.0  0.85613  0.33140  0.34632  1.0000
  C   C3205     1.0  0.90176  0.39729  0.26623  1.0000
  H   H5093     1.0  0.84598  0.57577  0.26020  1.0000
  H   H5094     1.0  0.85263  0.58505  0.28293  1.0000
  H   H5095     1.0  0.88722  0.36740  0.25934  1.0000
  C   C3206     1.0  0.85564  0.43133  0.23751  1.0000
  N   N319      1.0  0.85192  0.58735  0.26575  1.0000
  C   C3207     1.0  0.97016  0.62760  0.26471  1.0000
  C   C3208     1.0  0.86412  0.55714  0.24528  1.0000
  N   N320      1.0  0.84267  0.33239  0.31175  1.0000
  H   H5096     1.0  0.89348  0.51444  0.26247  1.0000
  H   H5097     1.0  0.89785  0.37273  0.24823  1.0000
  H   H5098     1.0  0.95500  0.60805  0.27979  1.0000
  N   N321      1.0  0.83113  0.41411  0.25941  1.0000
  H   H5099     1.0  0.97321  0.40026  0.25316  1.0000
  C   C3209     1.0  0.82837  0.41125  0.27173  1.0000
  C   C3210     1.0  0.87901  0.60966  0.33666  1.0000
  H   H5100     1.0  0.91118  0.56609  0.24708  1.0000
  H   H5101     1.0  0.96112  0.60636  0.26054  1.0000
  H   H5102     1.0  0.88100  0.40016  0.27992  1.0000
  H   H5103     1.0  0.86301  0.38654  0.24825  1.0000
  H   H5104     1.0  0.81421  0.41604  0.25748  1.0000
  C   C3211     1.0  0.84783  0.58309  0.27775  1.0000
  H   H5105     1.0  0.90330  0.41647  0.27042  1.0000
  N   N322      1.0  0.86119  0.46907  0.29924  1.0000
  C   C3212     1.0  0.85798  0.48133  0.29810  1.0000
  C   C3213     1.0  0.85180  0.46493  0.29789  1.0000
  C   C3214     1.0  0.86381  0.46375  0.31033  1.0000
  C   C3215     1.0  0.87121  0.46625  0.29055  1.0000
  H   H5106     1.0  0.86501  0.48480  0.29869  1.0000
  H   H5107     1.0  0.85058  0.48381  0.30466  1.0000
  H   H5108     1.0  0.85574  0.48556  0.28987  1.0000
  H   H5109     1.0  0.85414  0.45576  0.29820  1.0000
  H   H5110     1.0  0.84417  0.46658  0.30451  1.0000
  H   H5111     1.0  0.84941  0.46907  0.28971  1.0000
  H   H5112     1.0  0.85642  0.46566  0.31713  1.0000
  H   H5113     1.0  0.87087  0.46670  0.31159  1.0000
  H   H5114     1.0  0.86632  0.45449  0.31137  1.0000
  H   H5115     1.0  0.87385  0.45707  0.29106  1.0000
  H   H5116     1.0  0.87849  0.46919  0.29129  1.0000
  H   H5117     1.0  0.86948  0.47017  0.28209  1.0000
  H   H5118     1.0  0.97116  0.63281  0.25612  1.0000
  C   C3216     1.0  0.84509  0.58492  0.25922  1.0000
  C   C3217     1.0  0.84251  0.40781  0.25533  1.0000
  H   H5119     1.0  0.88034  0.52136  0.25826  1.0000
  S   S1283     1.0  0.85633  0.64028  0.28054  1.0000
  H   H5120     1.0  0.92460  0.56963  0.24479  1.0000
  C   C3218     1.0  0.90035  0.63775  0.24373  1.0000
  C   C3219     1.0  0.96653  0.61252  0.25884  1.0000
  H   H5121     1.0  0.96703  0.43465  0.23981  1.0000
  H   H5122     1.0  0.86711  0.58464  0.25327  1.0000
  H   H5123     1.0  0.82553  0.34157  0.31341  1.0000
  H   H5124     1.0  0.95741  0.61932  0.28429  1.0000
  C   C3220     1.0  0.86049  0.33613  0.33521  1.0000
  H   H5125     1.0  0.85824  0.42613  0.24500  1.0000
  N   N323      1.0  0.91521  0.57785  0.28622  1.0000
  C   C3221     1.0  0.92511  0.57227  0.29126  1.0000
  C   C3222     1.0  0.91883  0.58057  0.27397  1.0000
  C   C3223     1.0  0.90963  0.58821  0.29036  1.0000
  C   C3224     1.0  0.90727  0.57028  0.28931  1.0000
  H   H5126     1.0  0.92908  0.56408  0.28885  1.0000
  H   H5127     1.0  0.92274  0.57059  0.30052  1.0000
  H   H5128     1.0  0.93161  0.57745  0.28858  1.0000
  H   H5129     1.0  0.92314  0.57292  0.27060  1.0000
  H   H5130     1.0  0.91156  0.58476  0.26991  1.0000
  H   H5131     1.0  0.92483  0.58626  0.27134  1.0000
  H   H5132     1.0  0.91539  0.59412  0.28814  1.0000
  H   H5133     1.0  0.90680  0.58645  0.29959  1.0000
  H   H5134     1.0  0.90205  0.59262  0.28682  1.0000
  H   H5135     1.0  0.91109  0.56256  0.28599  1.0000
  H   H5136     1.0  0.89953  0.57432  0.28595  1.0000
  H   H5137     1.0  0.90477  0.56761  0.29851  1.0000
  S   S1284     1.0  0.87053  0.46842  0.24373  1.0000
  H   H5138     1.0  0.89482  0.40050  0.26161  1.0000
  C   C3225     1.0  0.86963  0.38323  0.25330  1.0000
  H   H5139     1.0  0.88985  0.38710  0.28462  1.0000
  C   C3226     1.0  0.97771  0.39877  0.24500  1.0000
  H   H5140     1.0  0.90966  0.38668  0.28500  1.0000
  H   H5141     1.0  0.96728  0.63340  0.27059  1.0000
  H   H5142     1.0  0.84298  0.39866  0.25801  1.0000
  S   S1285     1.0  0.87223  0.65014  0.32422  1.0000
  H   H5143     1.0  0.85011  0.33665  0.35161  1.0000
  H   H5144     1.0  0.96905  0.60853  0.27993  1.0000
  H   H5145     1.0  0.86069  0.32696  0.30826  1.0000
  H   H5146     1.0  0.86306  0.35336  0.25135  1.0000
  H   H5147     1.0  0.87251  0.61894  0.36080  1.0000
  H   H5148     1.0  0.90917  0.40063  0.26090  1.0000
  H   H5149     1.0  0.87254  0.60450  0.33877  1.0000
  C   C3227     1.0  0.95296  0.42047  0.24554  1.0000
  H   H5150     1.0  0.90167  0.62855  0.24690  1.0000
  H   H5151     1.0  0.86270  0.63255  0.34627  1.0000
  S   S1286     1.0  0.83382  0.38689  0.24337  1.0000
  H   H5152     1.0  0.82894  0.40210  0.27491  1.0000
  C   C3228     1.0  0.86824  0.32928  0.32845  1.0000
  H   H5153     1.0  0.87985  0.61358  0.32764  1.0000
  H   H5154     1.0  0.88362  0.39682  0.24258  1.0000
  H   H5155     1.0  0.99150  0.38085  0.25839  1.0000
  H   H5156     1.0  0.86940  0.38965  0.25789  1.0000
  N   N324      1.0  0.87591  0.61820  0.34352  1.0000
  H   H5157     1.0  0.99691  0.36699  0.25589  1.0000
  H   H5158     1.0  0.83541  0.34912  0.31420  1.0000
  H   H5159     1.0  0.87202  0.64348  0.24572  1.0000
  C   C3229     1.0  0.98840  0.40128  0.24061  1.0000
  H   H5160     1.0  0.96045  0.41757  0.24941  1.0000
  H   H5161     1.0  0.90810  0.65479  0.32977  1.0000
  H   H5162     1.0  0.93770  0.54753  0.24132  1.0000
  H   H5163     1.0  0.96438  0.39278  0.24231  1.0000
  H   H5164     1.0  0.85560  0.34077  0.31099  1.0000
  H   H5165     1.0  0.83500  0.34688  0.30096  1.0000
  H   H5166     1.0  0.95082  0.41296  0.24434  1.0000
  H   H5167     1.0  0.89461  0.50209  0.23876  1.0000
  H   H5168     1.0  0.88218  0.50569  0.24902  1.0000
  C   C3230     1.0  0.90623  0.51571  0.24175  1.0000
  H   H5169     1.0  0.87855  0.36401  0.24590  1.0000
  H   H5170     1.0  0.85526  0.33826  0.29786  1.0000
  H   H5171     1.0  0.87912  0.52549  0.23869  1.0000
  C   C3231     1.0  0.97271  0.39446  0.23889  1.0000
  H   H5172     1.0  0.90834  0.52400  0.24061  1.0000
  C   C3232     1.0  0.88398  0.39014  0.23827  1.0000
  Fe  Fe641     1.0  0.93491  0.37502  0.23883  1.0000
  H   H5173     1.0  0.85188  0.36795  0.23889  1.0000
  C   C3233     1.0  0.88844  0.52448  0.23631  1.0000
  C   C3234     1.0  0.84086  0.32438  0.30616  1.0000
  H   H5174     1.0  0.83320  0.32536  0.32765  1.0000
  C   C3235     1.0  0.95904  0.43778  0.23671  1.0000
  H   H5175     1.0  0.92080  0.41441  0.23687  1.0000
  C   C3236     1.0  0.98674  0.62990  0.23663  1.0000
  Fe  Fe642     1.0  0.95117  0.58164  0.23658  1.0000
  H   H5176     1.0  0.93780  0.43741  0.23666  1.0000
  C   C3237     1.0  0.88737  0.65557  0.24352  1.0000
  C   C3238     1.0  0.86321  0.56632  0.23641  1.0000
  H   H5177     1.0  0.81250  0.58469  0.23595  1.0000
  H   H5178     1.0  0.82541  0.57432  0.23592  1.0000
  H   H5179     1.0  0.98423  0.63887  0.23574  1.0000
  H   H5180     1.0  0.89630  0.61699  0.23597  1.0000
  C   C3239     1.0  0.91315  0.43171  0.23548  1.0000
  C   C3240     1.0  0.89902  0.65662  0.33231  1.0000
  S   S1287     1.0  0.92655  0.54152  0.71595  1.0000
  S   S1288     1.0  0.90475  0.59754  0.72027  1.0000
  H   H5181     1.0  0.90603  0.39512  0.73302  1.0000
  C   C3241     1.0  0.91465  0.50436  0.71141  1.0000
  C   C3242     1.0  0.90761  0.55555  0.70969  1.0000
  N   N325      1.0  0.92348  0.38877  0.73359  1.0000
  H   H5182     1.0  0.85325  0.34470  0.63775  1.0000
  C   C3243     1.0  0.90603  0.46994  0.73232  1.0000
  H   H5183     1.0  0.93794  0.63703  0.67917  1.0000
  H   H5184     1.0  0.86037  0.40755  0.73006  1.0000
  S   S1289     1.0  0.90421  0.41441  0.71278  1.0000
  H   H5185     1.0  0.92905  0.52537  0.70056  1.0000
  H   H5186     1.0  0.92887  0.50519  0.69146  1.0000
  C   C3244     1.0  0.94132  0.62785  0.68054  1.0000
  Fe  Fe643     1.0  0.91910  0.60627  0.71389  1.0000
  S   S1290     1.0  0.91815  0.60909  0.69603  1.0000
  S   S1291     1.0  0.93621  0.59906  0.71774  1.0000
  S   S1292     1.0  0.90557  0.33239  0.71208  1.0000
  S   S1293     1.0  0.89109  0.61871  0.70370  1.0000
  Fe  Fe644     1.0  0.90264  0.60203  0.70264  1.0000
  S   S1294     1.0  0.89803  0.58859  0.69742  1.0000
  Fe  Fe645     1.0  0.90693  0.62553  0.69885  1.0000
  S   S1295     1.0  0.91309  0.64068  0.68735  1.0000
  C   C3245     1.0  0.87741  0.32772  0.64434  1.0000
  S   S1296     1.0  0.90865  0.62292  0.71658  1.0000
  Fe  Fe646     1.0  0.91118  0.34856  0.70832  1.0000
  S   S1297     1.0  0.90149  0.35657  0.69475  1.0000
  S   S1298     1.0  0.92905  0.35072  0.70536  1.0000
  Fe  Fe647     1.0  0.89109  0.34023  0.72410  1.0000
  S   S1299     1.0  0.87985  0.34739  0.71170  1.0000
  H   H5187     1.0  0.95397  0.60805  0.69981  1.0000
  Fe  Fe648     1.0  0.89492  0.34063  0.69916  1.0000
  Fe  Fe649     1.0  0.88754  0.36247  0.70834  1.0000
  S   S1300     1.0  0.87766  0.38019  0.70825  1.0000
  S   S1301     1.0  0.89773  0.35561  0.72151  1.0000
  H   H5188     1.0  0.91679  0.49519  0.71468  1.0000
  H   H5189     1.0  0.89085  0.64311  0.68297  1.0000
  C   C3246     1.0  0.89666  0.40522  0.71118  1.0000
  C   C3247     1.0  0.88490  0.40760  0.71329  1.0000
  C   C3248     1.0  0.87919  0.40010  0.71184  1.0000
  C   C3249     1.0  0.88513  0.38989  0.70896  1.0000
  C   C3250     1.0  0.89689  0.38752  0.70685  1.0000
  C   C3251     1.0  0.90262  0.39532  0.70762  1.0000
  H   H5190     1.0  0.88025  0.41539  0.71565  1.0000
  H   H5191     1.0  0.87013  0.40215  0.71303  1.0000
  H   H5192     1.0  0.90158  0.37979  0.70437  1.0000
  H   H5193     1.0  0.91172  0.39361  0.70556  1.0000
  C   C3252     1.0  0.86249  0.34172  0.63714  1.0000
  H   H5194     1.0  0.91753  0.52323  0.69604  1.0000
  S   S1302     1.0  0.88690  0.46752  0.72723  1.0000
  C   C3253     1.0  0.93449  0.34818  0.71744  1.0000
  N   N326      1.0  0.86508  0.33131  0.64543  1.0000
  C   C3254     1.0  0.93273  0.50390  0.69875  1.0000
  H   H5195     1.0  0.93414  0.62393  0.68130  1.0000
  H   H5196     1.0  0.94761  0.62603  0.67292  1.0000
  C   C3255     1.0  0.85981  0.33333  0.65678  1.0000
  H   H5197     1.0  0.91324  0.38504  0.72459  1.0000
  H   H5198     1.0  0.89578  0.57180  0.73020  1.0000
  H   H5199     1.0  0.93534  0.49473  0.70180  1.0000
  H   H5200     1.0  0.88103  0.33392  0.64625  1.0000
  H   H5201     1.0  0.86144  0.32561  0.66324  1.0000
  C   C3256     1.0  0.91851  0.55462  0.71106  1.0000
  C   C3257     1.0  0.92303  0.56417  0.70841  1.0000
  C   C3258     1.0  0.91666  0.57466  0.70442  1.0000
  C   C3259     1.0  0.90593  0.57554  0.70266  1.0000
  S   S1303     1.0  0.90260  0.52528  0.73241  1.0000
  H   H5202     1.0  0.94344  0.60713  0.69324  1.0000
  H   H5203     1.0  0.93143  0.56348  0.70949  1.0000
  H   H5204     1.0  0.92018  0.58202  0.70241  1.0000
  H   H5205     1.0  0.93033  0.62237  0.70166  1.0000
  Fe  Fe650     1.0  0.89401  0.61450  0.72113  1.0000
  H   H5206     1.0  0.86630  0.34047  0.62848  1.0000
  N   N327      1.0  0.92481  0.50923  0.70763  1.0000
  C   C3260     1.0  0.89491  0.64946  0.67708  1.0000
  H   H5207     1.0  0.85052  0.33618  0.65789  1.0000
  H   H5208     1.0  0.94391  0.36126  0.71092  1.0000
  H   H5209     1.0  0.92086  0.40646  0.72674  1.0000
  H   H5210     1.0  0.86580  0.34852  0.63837  1.0000
  C   C3261     1.0  0.94178  0.35463  0.71793  1.0000
  H   H5211     1.0  0.95490  0.59103  0.72826  1.0000
  H   H5212     1.0  0.93785  0.51101  0.71470  1.0000
  H   H5213     1.0  0.92375  0.32559  0.67201  1.0000
  Fe  Fe651     1.0  0.89661  0.42561  0.72531  1.0000
  H   H5214     1.0  0.90858  0.50803  0.71828  1.0000
  H   H5215     1.0  0.88742  0.56335  0.72820  1.0000
  H   H5216     1.0  0.94083  0.62327  0.70824  1.0000
  H   H5217     1.0  0.86318  0.33973  0.65869  1.0000
  H   H5218     1.0  0.87515  0.32628  0.69295  1.0000
  C   C3262     1.0  0.95564  0.62916  0.68927  1.0000
  H   H5219     1.0  0.91561  0.52569  0.70973  1.0000
  C   C3263     1.0  0.93027  0.50727  0.71712  1.0000
  Fe  Fe652     1.0  0.88990  0.44857  0.73169  1.0000
  N   N328      1.0  0.87790  0.57817  0.73411  1.0000
  N   N329      1.0  0.93260  0.33246  0.67999  1.0000
  C   C3264     1.0  0.94631  0.35255  0.72747  1.0000
  H   H5220     1.0  0.93283  0.49819  0.72066  1.0000
  H   H5221     1.0  0.96238  0.62734  0.68193  1.0000
  H   H5222     1.0  0.95697  0.60914  0.68495  1.0000
  C   C3265     1.0  0.95037  0.61149  0.69218  1.0000
  C   C3266     1.0  0.92161  0.52138  0.70327  1.0000
  H   H5223     1.0  0.92445  0.51104  0.72400  1.0000
  H   H5224     1.0  0.93403  0.63551  0.69950  1.0000
  C   C3267     1.0  0.93752  0.62637  0.70043  1.0000
  H   H5225     1.0  0.92521  0.34847  0.68429  1.0000
  C   C3268     1.0  0.90142  0.56597  0.70528  1.0000
  H   H5226     1.0  0.91018  0.50579  0.70453  1.0000
  H   H5227     1.0  0.88171  0.32643  0.63579  1.0000
  C   C3269     1.0  0.89491  0.47470  0.73129  1.0000
  S   S1304     1.0  0.89783  0.33161  0.68467  1.0000
  S   S1305     1.0  0.88028  0.43826  0.72711  1.0000
  C   C3270     1.0  0.92669  0.39851  0.72511  1.0000
  H   H5228     1.0  0.89313  0.56664  0.70392  1.0000
  H   H5229     1.0  0.94049  0.50739  0.69573  1.0000
  N   N330      1.0  0.94622  0.62372  0.69060  1.0000
  H   H5230     1.0  0.92825  0.34870  0.66965  1.0000
  H   H5231     1.0  0.85135  0.32491  0.64417  1.0000
  H   H5232     1.0  0.88544  0.58894  0.71959  1.0000
  C   C3271     1.0  0.93195  0.33950  0.72642  1.0000
  H   H5233     1.0  0.94768  0.33828  0.67090  1.0000
  S   S1306     1.0  0.90650  0.43671  0.72815  1.0000
  H   H5234     1.0  0.95276  0.63839  0.68809  1.0000
  H   H5235     1.0  0.87043  0.59235  0.72283  1.0000
  C   C3272     1.0  0.92532  0.34370  0.67804  1.0000
  H   H5236     1.0  0.95948  0.62620  0.69676  1.0000
  H   H5237     1.0  0.92823  0.33053  0.69780  1.0000
  H   H5238     1.0  0.90408  0.54818  0.71174  1.0000
  C   C3273     1.0  0.92833  0.32619  0.69121  1.0000
  H   H5239     1.0  0.92652  0.33435  0.72602  1.0000
  C   C3274     1.0  0.91256  0.38729  0.73264  1.0000
  H   H5240     1.0  0.93532  0.39928  0.72497  1.0000
  H   H5241     1.0  0.92653  0.39789  0.71659  1.0000
  H   H5242     1.0  0.87774  0.58041  0.71676  1.0000
  H   H5243     1.0  0.94442  0.33805  0.68558  1.0000
  H   H5244     1.0  0.91648  0.34321  0.67862  1.0000
  C   C3275     1.0  0.90582  0.64989  0.67729  1.0000
  Fe  Fe653     1.0  0.91677  0.53308  0.73180  1.0000
  C   C3276     1.0  0.93801  0.60088  0.73027  1.0000
  C   C3277     1.0  0.93246  0.32646  0.67154  1.0000
  H   H5245     1.0  0.93316  0.37707  0.72333  1.0000
  H   H5246     1.0  0.92151  0.61105  0.73460  1.0000
  C   C3278     1.0  0.87784  0.58525  0.72285  1.0000
  H   H5247     1.0  0.95191  0.35756  0.72781  1.0000
  C   C3279     1.0  0.89014  0.48551  0.73329  1.0000
  H   H5248     1.0  0.94992  0.32521  0.68073  1.0000
  H   H5249     1.0  0.94433  0.41428  0.72703  1.0000
  C   C3280     1.0  0.88777  0.56879  0.73363  1.0000
  H   H5250     1.0  0.94061  0.37960  0.73232  1.0000
  H   H5251     1.0  0.90987  0.46174  0.73053  1.0000
  C   C3281     1.0  0.94819  0.59571  0.73359  1.0000
  H   H5252     1.0  0.86697  0.56826  0.73292  1.0000
  H   H5253     1.0  0.88157  0.48930  0.73239  1.0000
  C   C3282     1.0  0.93222  0.37868  0.73176  1.0000
  C   C3283     1.0  0.94419  0.33353  0.67924  1.0000
  H   H5254     1.0  0.86933  0.38687  0.73132  1.0000
  H   H5255     1.0  0.93558  0.33096  0.66295  1.0000
  H   H5256     1.0  0.91960  0.32520  0.69205  1.0000
  H   H5257     1.0  0.93294  0.58733  0.78859  1.0000
  C   C3284     1.0  0.86749  0.57373  0.73825  1.0000
  H   H5258     1.0  0.93505  0.33024  0.74255  1.0000
  C   C3285     1.0  0.73404  0.57842  0.88874  1.0000
  H   H5259     1.0  0.83807  0.35693  0.80586  1.0000
  Fe  Fe654     1.0  0.77576  0.57113  0.97007  1.0000
  S   S1307     1.0  0.78952  0.57779  0.95692  1.0000
  S   S1308     1.0  0.76250  0.56868  0.96278  1.0000
  Fe  Fe655     1.0  0.72456  0.52029  0.94539  1.0000
  S   S1309     1.0  0.71211  0.51377  0.94027  1.0000
  S   S1310     1.0  0.71988  0.52940  0.95951  1.0000
  Fe  Fe656     1.0  0.74286  0.51516  0.92561  1.0000
  S   S1311     1.0  0.73219  0.50843  0.91857  1.0000
  S   S1312     1.0  0.76072  0.51609  0.91784  1.0000
  Fe  Fe657     1.0  0.71873  0.52305  0.92311  1.0000
  S   S1313     1.0  0.70716  0.53221  0.91134  1.0000
  Fe  Fe658     1.0  0.72660  0.49969  0.93620  1.0000
  S   S1314     1.0  0.72714  0.48111  0.93988  1.0000
  S   S1315     1.0  0.73002  0.53061  0.92850  1.0000
  S   S1316     1.0  0.73845  0.50538  0.94297  1.0000
  Fe  Fe659     1.0  0.75483  0.36884  0.96212  1.0000
  S   S1317     1.0  0.73961  0.38087  0.95723  1.0000
  S   S1318     1.0  0.76889  0.36146  0.94933  1.0000
  S   S1319     1.0  0.97130  0.36136  0.74354  1.0000
  H   H5260     1.0  0.89104  0.51854  0.79704  1.0000
  Fe  Fe660     1.0  0.73988  0.38902  0.97074  1.0000
  S   S1320     1.0  0.73498  0.40751  0.96919  1.0000
  C   C3286     1.0  0.97727  0.34705  0.79366  1.0000
  H   H5261     1.0  0.68977  0.50700  0.90383  1.0000
  Fe  Fe661     1.0  0.70659  0.44513  0.91356  1.0000
  S   S1321     1.0  0.72304  0.44340  0.90123  1.0000
  S   S1322     1.0  0.69811  0.46155  0.91880  1.0000
  Fe  Fe662     1.0  0.70643  0.42028  0.91825  1.0000
  S   S1323     1.0  0.72306  0.41646  0.90686  1.0000
  S   S1324     1.0  0.69915  0.40538  0.92821  1.0000
  Fe  Fe663     1.0  0.72831  0.42825  0.91383  1.0000
  S   S1325     1.0  0.74548  0.42459  0.91752  1.0000
  Fe  Fe664     1.0  0.71633  0.43186  0.89521  1.0000
  S   S1326     1.0  0.71900  0.43256  0.87688  1.0000
  S   S1327     1.0  0.71229  0.43052  0.92663  1.0000
  S   S1328     1.0  0.69912  0.43510  0.90623  1.0000
  Fe  Fe665     1.0  0.97703  0.57320  0.77618  1.0000
  S   S1329     1.0  0.97002  0.57704  0.76076  1.0000
  H   H5262     1.0  0.92090  0.47222  0.73609  1.0000
  Fe  Fe666     1.0  0.95490  0.56804  0.79105  1.0000
  S   S1330     1.0  0.94652  0.57102  0.77678  1.0000
  S   S1331     1.0  0.94602  0.56322  0.80884  1.0000
  Fe  Fe667     1.0  0.96288  0.56176  0.76848  1.0000
  S   S1332     1.0  0.96403  0.55017  0.75738  1.0000
  Fe  Fe668     1.0  0.95431  0.58602  0.77047  1.0000
  H   H5263     1.0  0.82042  0.34801  0.79211  1.0000
  S   S1333     1.0  0.97070  0.55725  0.78337  1.0000
  S   S1334     1.0  0.96183  0.58368  0.78529  1.0000
  H   H5264     1.0  0.89303  0.44651  0.78019  1.0000
  H   H5265     1.0  0.90402  0.54524  0.80005  1.0000
  H   H5266     1.0  0.92044  0.57453  0.73724  1.0000
  S   S1335     1.0  0.90061  0.51833  0.75969  1.0000
  H   H5267     1.0  0.76719  0.61133  0.92077  1.0000
  Fe  Fe669     1.0  0.89414  0.53317  0.74716  1.0000
  S   S1336     1.0  0.87626  0.54257  0.74907  1.0000
  Fe  Fe670     1.0  0.91484  0.52704  0.75677  1.0000
  S   S1337     1.0  0.92057  0.52954  0.77108  1.0000
  H   H5268     1.0  0.92130  0.55705  0.75208  1.0000
  H   H5269     1.0  0.92337  0.58747  0.75910  1.0000
  Fe  Fe671     1.0  0.97553  0.35866  0.76037  1.0000
  H   H5270     1.0  0.91978  0.38361  0.75150  1.0000
  Fe  Fe672     1.0  0.95108  0.36548  0.77162  1.0000
  S   S1338     1.0  0.94480  0.36915  0.75594  1.0000
  S   S1339     1.0  0.93867  0.36824  0.78742  1.0000
  H   H5271     1.0  0.71769  0.51431  0.89846  1.0000
  S   S1340     1.0  0.96199  0.34891  0.76916  1.0000
  S   S1341     1.0  0.96499  0.37492  0.76418  1.0000
  H   H5272     1.0  0.90357  0.35868  0.74309  1.0000
  S   S1342     1.0  0.86183  0.42494  0.75543  1.0000
  S   S1343     1.0  0.88601  0.44105  0.74994  1.0000
  Fe  Fe673     1.0  0.70614  0.59133  0.92771  1.0000
  S   S1344     1.0  0.69033  0.59182  0.92253  1.0000
  S   S1345     1.0  0.71271  0.57715  0.94072  1.0000
  Fe  Fe674     1.0  0.71200  0.61079  0.90921  1.0000
  S   S1346     1.0  0.69676  0.61295  0.90223  1.0000
  S   S1347     1.0  0.72346  0.62298  0.90250  1.0000
  Fe  Fe675     1.0  0.68747  0.61048  0.92010  1.0000
  C   C3287     1.0  0.75712  0.32867  0.88073  1.0000
  Fe  Fe676     1.0  0.70097  0.59419  0.90531  1.0000
  S   S1348     1.0  0.70084  0.58445  0.89304  1.0000
  S   S1349     1.0  0.70246  0.60974  0.92685  1.0000
  S   S1350     1.0  0.71700  0.59232  0.91063  1.0000
  Fe  Fe677     1.0  0.77762  0.56895  0.88666  1.0000
  S   S1351     1.0  0.79483  0.55851  0.88707  1.0000
  S   S1352     1.0  0.76281  0.56297  0.88543  1.0000
  Fe  Fe678     1.0  0.78345  0.58848  0.89113  1.0000
  S   S1353     1.0  0.80133  0.57985  0.89207  1.0000
  S   S1354     1.0  0.77628  0.60556  0.89486  1.0000
  Fe  Fe679     1.0  0.80144  0.57370  0.87701  1.0000
  S   S1355     1.0  0.81759  0.56724  0.86553  1.0000
  Fe  Fe680     1.0  0.79374  0.56527  0.90189  1.0000
  S   S1356     1.0  0.79906  0.55355  0.91698  1.0000
  S   S1357     1.0  0.78406  0.58370  0.87510  1.0000
  S   S1358     1.0  0.77594  0.57439  0.90246  1.0000
  H   H5273     1.0  0.91274  0.33905  0.74412  1.0000
  Fe  Fe681     1.0  0.88330  0.58541  0.79476  1.0000
  S   S1359     1.0  0.88356  0.58262  0.81288  1.0000
  S   S1360     1.0  0.89491  0.59525  0.78164  1.0000
  Fe  Fe682     1.0  0.86799  0.56933  0.79899  1.0000
  S   S1361     1.0  0.86724  0.56475  0.81737  1.0000
  S   S1362     1.0  0.85684  0.56267  0.79240  1.0000
  Fe  Fe683     1.0  0.86499  0.58311  0.81613  1.0000
  S   S1363     1.0  0.85124  0.59299  0.82750  1.0000
  Fe  Fe684     1.0  0.88568  0.56464  0.81258  1.0000
  S   S1364     1.0  0.89798  0.55125  0.82110  1.0000
  S   S1365     1.0  0.86454  0.58775  0.79792  1.0000
  S   S1366     1.0  0.88670  0.56731  0.79428  1.0000
  Fe  Fe685     1.0  0.88127  0.35473  0.79927  1.0000
  S   S1367     1.0  0.87794  0.37033  0.78634  1.0000
  S   S1368     1.0  0.89845  0.34356  0.79707  1.0000
  Fe  Fe686     1.0  0.85685  0.35810  0.81217  1.0000
  S   S1369     1.0  0.85160  0.37400  0.80023  1.0000
  S   S1370     1.0  0.84487  0.35007  0.82684  1.0000
  Fe  Fe687     1.0  0.86229  0.36485  0.78690  1.0000
  S   S1371     1.0  0.85656  0.36641  0.77113  1.0000
  Fe  Fe688     1.0  0.86774  0.37780  0.80092  1.0000
  S   S1372     1.0  0.86856  0.39478  0.80223  1.0000
  S   S1373     1.0  0.86631  0.34860  0.79875  1.0000
  S   S1374     1.0  0.87231  0.36258  0.81393  1.0000
  Fe  Fe689     1.0  0.70297  0.33878  0.92432  1.0000
  H   H5274     1.0  0.70157  0.63684  0.90338  1.0000
  C   C3288     1.0  0.73662  0.32600  0.91554  1.0000
  H   H5275     1.0  0.71719  0.39314  0.87655  1.0000
  S   S1375     1.0  0.69214  0.34530  0.89671  1.0000
  C   C3289     1.0  0.84272  0.33536  0.80444  1.0000
  Fe  Fe690     1.0  0.69285  0.35715  0.90680  1.0000
  S   S1376     1.0  0.68999  0.37570  0.89990  1.0000
  Fe  Fe691     1.0  0.68560  0.33467  0.91318  1.0000
  H   H5276     1.0  0.90132  0.54482  0.78697  1.0000
  S   S1377     1.0  0.71051  0.34949  0.90867  1.0000
  N   N331      1.0  0.70368  0.40255  0.95955  1.0000
  Fe  Fe692     1.0  0.77175  0.37910  0.88569  1.0000
  S   S1378     1.0  0.75819  0.37184  0.88376  1.0000
  S   S1379     1.0  0.76804  0.38808  0.89974  1.0000
  Fe  Fe693     1.0  0.78696  0.37502  0.86330  1.0000
  S   S1380     1.0  0.77465  0.36717  0.85968  1.0000
  S   S1381     1.0  0.80158  0.38074  0.85013  1.0000
  Fe  Fe694     1.0  0.76144  0.38101  0.86602  1.0000
  S   S1382     1.0  0.74771  0.39068  0.85692  1.0000
  Fe  Fe695     1.0  0.77252  0.35860  0.87776  1.0000
  N   N332      1.0  0.83243  0.34384  0.80260  1.0000
  S   S1383     1.0  0.77369  0.38956  0.86838  1.0000
  S   S1384     1.0  0.78609  0.36518  0.88100  1.0000
  H   H5277     1.0  0.70887  0.39016  0.97338  1.0000
  H   H5278     1.0  0.67865  0.56194  0.95498  1.0000
  H   H5279     1.0  0.87297  0.37888  0.74419  1.0000
  H   H5280     1.0  0.79878  0.33686  0.97521  1.0000
  C   C3290     1.0  0.74788  0.34553  0.88763  1.0000
  C   C3291     1.0  0.73735  0.34312  0.88861  1.0000
  H   H5281     1.0  0.84732  0.37468  0.82992  1.0000
  H   H5282     1.0  0.69751  0.38775  0.96138  1.0000
  H   H5283     1.0  0.74834  0.35280  0.89021  1.0000
  H   H5284     1.0  0.72976  0.34867  0.89169  1.0000
  C   C3292     1.0  0.83217  0.35824  0.83282  1.0000
  C   C3293     1.0  0.82607  0.35386  0.84330  1.0000
  C   C3294     1.0  0.81627  0.36047  0.84851  1.0000
  C   C3295     1.0  0.81255  0.37149  0.84324  1.0000
  C   C3296     1.0  0.81838  0.37568  0.83254  1.0000
  C   C3297     1.0  0.82811  0.36906  0.82732  1.0000
  H   H5285     1.0  0.82909  0.34543  0.84755  1.0000
  H   H5286     1.0  0.81183  0.35717  0.85677  1.0000
  H   H5287     1.0  0.81541  0.38416  0.82838  1.0000
  H   H5288     1.0  0.83254  0.37239  0.81912  1.0000
  C   C3298     1.0  0.87750  0.34091  0.75014  1.0000
  C   C3299     1.0  0.87144  0.35109  0.74518  1.0000
  C   C3300     1.0  0.86470  0.35868  0.75175  1.0000
  C   C3301     1.0  0.86443  0.35640  0.76320  1.0000
  C   C3302     1.0  0.87051  0.34622  0.76815  1.0000
  C   C3303     1.0  0.87684  0.33839  0.76167  1.0000
  H   H5289     1.0  0.71292  0.38360  0.85887  1.0000
  H   H5290     1.0  0.85979  0.36636  0.74787  1.0000
  H   H5291     1.0  0.87025  0.34429  0.77698  1.0000
  S   S1385     1.0  0.67074  0.32594  0.91648  1.0000
  S   S1386     1.0  0.92537  0.51853  0.74303  1.0000
  H   H5292     1.0  0.98468  0.35035  0.79348  1.0000
  C   C3304     1.0  0.88384  0.60907  0.74840  1.0000
  C   C3305     1.0  0.89487  0.60856  0.74905  1.0000
  C   C3306     1.0  0.89818  0.60443  0.75933  1.0000
  C   C3307     1.0  0.89059  0.60045  0.76887  1.0000
  C   C3308     1.0  0.87967  0.60064  0.76812  1.0000
  C   C3309     1.0  0.87625  0.60510  0.75793  1.0000
  H   H5293     1.0  0.84948  0.33566  0.79675  1.0000
  H   H5294     1.0  0.90660  0.60439  0.75989  1.0000
  H   H5295     1.0  0.87376  0.59762  0.77543  1.0000
  H   H5296     1.0  0.86770  0.60550  0.75744  1.0000
  C   C3310     1.0  0.82700  0.57480  0.85555  1.0000
  C   C3311     1.0  0.83707  0.56876  0.85019  1.0000
  C   C3312     1.0  0.84473  0.57429  0.84189  1.0000
  C   C3313     1.0  0.84233  0.58592  0.83875  1.0000
  C   C3314     1.0  0.83237  0.59201  0.84429  1.0000
  C   C3315     1.0  0.82470  0.58646  0.85268  1.0000
  H   H5297     1.0  0.83894  0.55974  0.85242  1.0000
  H   H5298     1.0  0.85246  0.56952  0.83788  1.0000
  H   H5299     1.0  0.83050  0.60103  0.84196  1.0000
  H   H5300     1.0  0.81698  0.59119  0.85681  1.0000
  C   C3316     1.0  0.73808  0.61769  0.90045  1.0000
  C   C3317     1.0  0.74277  0.60633  0.90074  1.0000
  C   C3318     1.0  0.75453  0.60253  0.89868  1.0000
  C   C3319     1.0  0.76159  0.61003  0.89668  1.0000
  C   C3320     1.0  0.75687  0.62132  0.89660  1.0000
  C   C3321     1.0  0.74518  0.62515  0.89835  1.0000
  H   H5301     1.0  0.73738  0.60049  0.90246  1.0000
  H   H5302     1.0  0.75810  0.59380  0.89875  1.0000
  H   H5303     1.0  0.76227  0.62715  0.89507  1.0000
  H   H5304     1.0  0.74163  0.63394  0.89809  1.0000
  C   C3322     1.0  0.82822  0.34178  0.79368  1.0000
  C   C3323     1.0  0.86343  0.41749  0.76886  1.0000
  C   C3324     1.0  0.85471  0.41255  0.77600  1.0000
  C   C3325     1.0  0.85629  0.40557  0.78627  1.0000
  C   C3326     1.0  0.86643  0.40390  0.78962  1.0000
  C   C3327     1.0  0.87499  0.40917  0.78269  1.0000
  C   C3328     1.0  0.87355  0.41585  0.77224  1.0000
  H   H5305     1.0  0.84685  0.41385  0.77343  1.0000
  H   H5306     1.0  0.84966  0.40150  0.79159  1.0000
  H   H5307     1.0  0.88288  0.40781  0.78523  1.0000
  H   H5308     1.0  0.88032  0.41963  0.76678  1.0000
  C   C3329     1.0  0.92737  0.36165  0.78967  1.0000
  C   C3330     1.0  0.92897  0.35188  0.78581  1.0000
  C   C3331     1.0  0.92008  0.34631  0.78821  1.0000
  C   C3332     1.0  0.90945  0.35072  0.79410  1.0000
  C   C3333     1.0  0.90773  0.36070  0.79760  1.0000
  C   C3334     1.0  0.91674  0.36605  0.79557  1.0000
  H   H5309     1.0  0.93714  0.34843  0.78126  1.0000
  H   H5310     1.0  0.93920  0.57758  0.74644  1.0000
  H   H5311     1.0  0.89954  0.36416  0.80213  1.0000
  H   H5312     1.0  0.91544  0.37364  0.79850  1.0000
  H   H5313     1.0  0.73783  0.57036  0.96624  1.0000
  S   S1387     1.0  0.88637  0.33156  0.74197  1.0000
  H   H5314     1.0  0.92943  0.40476  0.76779  1.0000
  H   H5315     1.0  0.92656  0.42563  0.73564  1.0000
  H   H5316     1.0  0.98533  0.54346  0.76706  1.0000
  H   H5317     1.0  0.98817  0.58516  0.78984  1.0000
  H   H5318     1.0  0.83926  0.38719  0.84942  1.0000
  H   H5319     1.0  0.72568  0.38741  0.85878  1.0000
  H   H5320     1.0  0.74604  0.59430  0.86482  1.0000
  C   C3335     1.0  0.87127  0.54787  0.76128  1.0000
  C   C3336     1.0  0.85967  0.55047  0.76538  1.0000
  C   C3337     1.0  0.85539  0.55497  0.77495  1.0000
  C   C3338     1.0  0.86267  0.55719  0.78032  1.0000
  C   C3339     1.0  0.87430  0.55485  0.77608  1.0000
  C   C3340     1.0  0.87862  0.55002  0.76665  1.0000
  H   H5321     1.0  0.85398  0.54886  0.76122  1.0000
  H   H5322     1.0  0.84641  0.55676  0.77818  1.0000
  H   H5323     1.0  0.87996  0.55668  0.78008  1.0000
  H   H5324     1.0  0.88760  0.54811  0.76345  1.0000
  H   H5325     1.0  0.95589  0.34828  0.79293  1.0000
  H   H5326     1.0  0.69810  0.54682  0.89321  1.0000
  H   H5327     1.0  0.91300  0.46564  0.76731  1.0000
  H   H5328     1.0  0.69824  0.49876  0.92061  1.0000
  H   H5329     1.0  0.99359  0.56469  0.75399  1.0000
  C   C3341     1.0  0.82375  0.34315  0.81304  1.0000
  H   H5330     1.0  0.69210  0.41783  0.96243  1.0000
  C   C3342     1.0  0.87848  0.58493  0.74172  1.0000
  C   C3343     1.0  0.72897  0.58317  0.87083  1.0000
  H   H5331     1.0  0.69743  0.63361  0.92888  1.0000
  H   H5332     1.0  0.89360  0.34202  0.77119  1.0000
  C   C3344     1.0  0.93289  0.55954  0.81164  1.0000
  C   C3345     1.0  0.92916  0.55312  0.82211  1.0000
  C   C3346     1.0  0.91856  0.55039  0.82484  1.0000
  C   C3347     1.0  0.91143  0.55440  0.81727  1.0000
  C   C3348     1.0  0.91507  0.56089  0.80679  1.0000
  C   C3349     1.0  0.92589  0.56329  0.80391  1.0000
  H   H5333     1.0  0.93452  0.55021  0.82813  1.0000
  H   H5334     1.0  0.91578  0.54538  0.83295  1.0000
  H   H5335     1.0  0.90961  0.56400  0.80088  1.0000
  H   H5336     1.0  0.92868  0.56823  0.79583  1.0000
  C   C3350     1.0  0.95232  0.54387  0.76134  1.0000
  C   C3351     1.0  0.94597  0.54286  0.77224  1.0000
  C   C3352     1.0  0.93643  0.53815  0.77524  1.0000
  C   C3353     1.0  0.93301  0.53470  0.76729  1.0000
  C   C3354     1.0  0.93928  0.53584  0.75634  1.0000
  C   C3355     1.0  0.94901  0.54029  0.75341  1.0000
  H   H5337     1.0  0.94851  0.54556  0.77842  1.0000
  H   H5338     1.0  0.93168  0.53728  0.78373  1.0000
  H   H5339     1.0  0.90990  0.51963  0.80779  1.0000
  H   H5340     1.0  0.76954  0.34593  0.97048  1.0000
  H   H5341     1.0  0.84614  0.33668  0.81112  1.0000
  H   H5342     1.0  0.87126  0.59221  0.74211  1.0000
  C   C3356     1.0  0.72662  0.42053  0.87178  1.0000
  C   C3357     1.0  0.72647  0.41995  0.86098  1.0000
  C   C3358     1.0  0.73283  0.41068  0.85653  1.0000
  C   C3359     1.0  0.73960  0.40207  0.86273  1.0000
  C   C3360     1.0  0.73973  0.40257  0.87355  1.0000
  C   C3361     1.0  0.73313  0.41173  0.87810  1.0000
  H   H5343     1.0  0.72146  0.42672  0.85604  1.0000
  H   H5344     1.0  0.73271  0.41031  0.84816  1.0000
  H   H5345     1.0  0.74492  0.39592  0.87840  1.0000
  H   H5346     1.0  0.73329  0.41209  0.88637  1.0000
  C   C3362     1.0  0.69677  0.39712  0.92027  1.0000
  C   C3363     1.0  0.69593  0.40144  0.90915  1.0000
  C   C3364     1.0  0.69365  0.39486  0.90305  1.0000
  C   C3365     1.0  0.69263  0.38379  0.90788  1.0000
  C   C3366     1.0  0.69383  0.37935  0.91891  1.0000
  C   C3367     1.0  0.69572  0.38606  0.92515  1.0000
  H   H5347     1.0  0.69669  0.40998  0.90534  1.0000
  S   S1388     1.0  0.91344  0.42282  0.75821  1.0000
  H   H5348     1.0  0.69299  0.37083  0.92273  1.0000
  H   H5349     1.0  0.69631  0.38269  0.93377  1.0000
  C   C3368     1.0  0.71444  0.35916  0.95776  1.0000
  C   C3369     1.0  0.72368  0.35049  0.95564  1.0000
  C   C3370     1.0  0.72339  0.34311  0.94923  1.0000
  C   C3371     1.0  0.71398  0.34449  0.94466  1.0000
  C   C3372     1.0  0.70492  0.35343  0.94640  1.0000
  C   C3373     1.0  0.70511  0.36067  0.95303  1.0000
  H   H5350     1.0  0.70427  0.38909  0.87743  1.0000
  H   H5351     1.0  0.82147  0.33482  0.81581  1.0000
  H   H5352     1.0  0.69760  0.35456  0.94297  1.0000
  H   H5353     1.0  0.69792  0.36735  0.95461  1.0000
  C   C3374     1.0  0.76847  0.36875  0.93554  1.0000
  C   C3375     1.0  0.76357  0.38013  0.93329  1.0000
  C   C3376     1.0  0.76347  0.38591  0.92226  1.0000
  C   C3377     1.0  0.76821  0.38037  0.91341  1.0000
  C   C3378     1.0  0.77290  0.36893  0.91563  1.0000
  C   C3379     1.0  0.77312  0.36316  0.92668  1.0000
  H   H5354     1.0  0.76011  0.38456  0.94003  1.0000
  H   H5355     1.0  0.75977  0.39474  0.92055  1.0000
  H   H5356     1.0  0.77655  0.36460  0.90882  1.0000
  H   H5357     1.0  0.77693  0.35436  0.92836  1.0000
  C   C3380     1.0  0.73880  0.41313  0.95506  1.0000
  C   C3381     1.0  0.73195  0.42273  0.95016  1.0000
  C   C3382     1.0  0.73437  0.42657  0.93860  1.0000
  C   C3383     1.0  0.74363  0.42084  0.93199  1.0000
  C   C3384     1.0  0.75085  0.41163  0.93698  1.0000
  C   C3385     1.0  0.74833  0.40765  0.94852  1.0000
  H   H5358     1.0  0.72458  0.42697  0.95522  1.0000
  H   H5359     1.0  0.72907  0.43397  0.93476  1.0000
  H   H5360     1.0  0.75813  0.40731  0.93189  1.0000
  H   H5361     1.0  0.75368  0.40026  0.95234  1.0000
  C   C3386     1.0  0.76230  0.54969  0.89400  1.0000
  C   C3387     1.0  0.75265  0.54528  0.89632  1.0000
  C   C3388     1.0  0.75213  0.53486  0.90356  1.0000
  C   C3389     1.0  0.76137  0.52874  0.90825  1.0000
  C   C3390     1.0  0.77106  0.53304  0.90575  1.0000
  C   C3391     1.0  0.77144  0.54355  0.89881  1.0000
  H   H5362     1.0  0.74554  0.54991  0.89262  1.0000
  H   H5363     1.0  0.74464  0.53151  0.90538  1.0000
  H   H5364     1.0  0.77821  0.52833  0.90938  1.0000
  H   H5365     1.0  0.77883  0.54685  0.89723  1.0000
  C   C3392     1.0  0.70596  0.54671  0.90637  1.0000
  C   C3393     1.0  0.70958  0.55325  0.91149  1.0000
  C   C3394     1.0  0.70791  0.56491  0.90756  1.0000
  C   C3395     1.0  0.70290  0.56996  0.89833  1.0000
  C   C3396     1.0  0.69955  0.56336  0.89311  1.0000
  C   C3397     1.0  0.70093  0.55181  0.89720  1.0000
  H   H5366     1.0  0.71353  0.54936  0.91852  1.0000
  H   H5367     1.0  0.71060  0.56996  0.91159  1.0000
  H   H5368     1.0  0.90280  0.59552  0.80201  1.0000
  H   H5369     1.0  0.74261  0.51654  0.95906  1.0000
  C   C3398     1.0  0.71901  0.47598  0.93379  1.0000
  C   C3399     1.0  0.70733  0.47965  0.93553  1.0000
  C   C3400     1.0  0.70095  0.47512  0.93096  1.0000
  C   C3401     1.0  0.70619  0.46670  0.92490  1.0000
  C   C3402     1.0  0.71785  0.46282  0.92343  1.0000
  C   C3403     1.0  0.72423  0.46749  0.92781  1.0000
  H   H5370     1.0  0.70319  0.48595  0.94042  1.0000
  H   H5371     1.0  0.69192  0.47806  0.93222  1.0000
  H   H5372     1.0  0.72196  0.45632  0.91878  1.0000
  H   H5373     1.0  0.73325  0.46457  0.92646  1.0000
  C   C3404     1.0  0.72999  0.58776  0.96222  1.0000
  C   C3405     1.0  0.73210  0.57654  0.96160  1.0000
  C   C3406     1.0  0.72666  0.57328  0.95507  1.0000
  C   C3407     1.0  0.71922  0.58127  0.94908  1.0000
  C   C3408     1.0  0.71708  0.59246  0.94977  1.0000
  C   C3409     1.0  0.72244  0.59571  0.95635  1.0000
  H   H5374     1.0  0.97942  0.33782  0.79650  1.0000
  H   H5375     1.0  0.72823  0.56459  0.95464  1.0000
  H   H5376     1.0  0.71112  0.59859  0.94545  1.0000
  H   H5377     1.0  0.72075  0.60438  0.95689  1.0000
  C   C3410     1.0  0.79243  0.57104  0.94580  1.0000
  C   C3411     1.0  0.79501  0.57695  0.93479  1.0000
  C   C3412     1.0  0.79681  0.57168  0.92588  1.0000
  C   C3413     1.0  0.79650  0.56037  0.92799  1.0000
  C   C3414     1.0  0.79411  0.55442  0.93898  1.0000
  C   C3415     1.0  0.79181  0.55982  0.94787  1.0000
  H   H5378     1.0  0.79551  0.58562  0.93318  1.0000
  H   H5379     1.0  0.79867  0.57631  0.91740  1.0000
  H   H5380     1.0  0.79397  0.54565  0.94066  1.0000
  H   H5381     1.0  0.78984  0.55522  0.95637  1.0000
  C   C3416     1.0  0.95755  0.34707  0.80137  1.0000
  C   C3417     1.0  0.73949  0.54250  0.97120  1.0000
  C   C3418     1.0  0.73029  0.54073  0.96807  1.0000
  C   C3419     1.0  0.73141  0.53143  0.96355  1.0000
  C   C3420     1.0  0.74170  0.52381  0.96239  1.0000
  C   C3421     1.0  0.86590  0.39486  0.75568  1.0000
  H   H5382     1.0  0.71271  0.40330  0.97142  1.0000
  H   H5383     1.0  0.72233  0.54664  0.96904  1.0000
  H   H5384     1.0  0.76384  0.60315  0.94670  1.0000
  N   N333      1.0  0.75982  0.54751  0.93374  1.0000
  C   C3422     1.0  0.77147  0.54882  0.92844  1.0000
  C   C3423     1.0  0.75588  0.55254  0.94369  1.0000
  C   C3424     1.0  0.75953  0.53551  0.93710  1.0000
  C   C3425     1.0  0.75238  0.55314  0.92576  1.0000
  H   H5385     1.0  0.77465  0.54535  0.92074  1.0000
  H   H5386     1.0  0.77735  0.54436  0.93413  1.0000
  H   H5387     1.0  0.77215  0.55773  0.92605  1.0000
  H   H5388     1.0  0.76140  0.54858  0.94983  1.0000
  H   H5389     1.0  0.75579  0.56163  0.94149  1.0000
  H   H5390     1.0  0.74719  0.55149  0.94801  1.0000
  H   H5391     1.0  0.76463  0.53108  0.94351  1.0000
  H   H5392     1.0  0.76297  0.53132  0.92990  1.0000
  H   H5393     1.0  0.75079  0.53419  0.94060  1.0000
  H   H5394     1.0  0.75492  0.54930  0.91831  1.0000
  H   H5395     1.0  0.75263  0.56214  0.92276  1.0000
  H   H5396     1.0  0.74348  0.55250  0.92959  1.0000
  N   N334      1.0  0.82864  0.58157  0.81346  1.0000
  C   C3426     1.0  0.83324  0.58753  0.80218  1.0000
  C   C3427     1.0  0.82026  0.57565  0.81282  1.0000
  C   C3428     1.0  0.82327  0.58967  0.82078  1.0000
  C   C3429     1.0  0.83787  0.57339  0.81808  1.0000
  H   H5397     1.0  0.83944  0.59224  0.80245  1.0000
  H   H5398     1.0  0.82650  0.59364  0.79831  1.0000
  H   H5399     1.0  0.83768  0.58162  0.79653  1.0000
  H   H5400     1.0  0.81669  0.57103  0.82121  1.0000
  H   H5401     1.0  0.81315  0.58156  0.80936  1.0000
  H   H5402     1.0  0.82413  0.56947  0.80737  1.0000
  H   H5403     1.0  0.82008  0.58541  0.82948  1.0000
  H   H5404     1.0  0.81610  0.59586  0.81772  1.0000
  H   H5405     1.0  0.82938  0.59442  0.82121  1.0000
  H   H5406     1.0  0.83479  0.56885  0.82667  1.0000
  H   H5407     1.0  0.84440  0.57759  0.81847  1.0000
  H   H5408     1.0  0.84207  0.56705  0.81287  1.0000
  N   N335      1.0  0.76025  0.42127  0.88415  1.0000
  C   C3430     1.0  0.75309  0.41439  0.89282  1.0000
  C   C3431     1.0  0.75605  0.42434  0.87369  1.0000
  C   C3432     1.0  0.77195  0.41482  0.88229  1.0000
  C   C3433     1.0  0.75981  0.43147  0.88790  1.0000
  H   H5409     1.0  0.75634  0.41138  0.90067  1.0000
  H   H5410     1.0  0.75271  0.40690  0.89010  1.0000
  H   H5411     1.0  0.74441  0.41926  0.89491  1.0000
  H   H5412     1.0  0.76111  0.42971  0.86697  1.0000
  H   H5413     1.0  0.75641  0.41680  0.87059  1.0000
  H   H5414     1.0  0.74711  0.42897  0.87492  1.0000
  H   H5415     1.0  0.77529  0.41228  0.89007  1.0000
  H   H5416     1.0  0.77764  0.41966  0.87572  1.0000
  H   H5417     1.0  0.77249  0.40697  0.87968  1.0000
  H   H5418     1.0  0.75105  0.43649  0.88942  1.0000
  H   H5419     1.0  0.76518  0.43687  0.88162  1.0000
  H   H5420     1.0  0.76271  0.42936  0.89590  1.0000
  C   C3434     1.0  0.72738  0.59773  0.88047  1.0000
  H   H5421     1.0  0.72535  0.57753  0.89320  1.0000
  H   H5422     1.0  0.72014  0.58231  0.87480  1.0000
  H   H5423     1.0  0.72711  0.60421  0.87267  1.0000
  H   H5424     1.0  0.73097  0.60074  0.88595  1.0000
  H   H5425     1.0  0.71852  0.59724  0.88469  1.0000
  N   N336      1.0  0.89672  0.53154  0.80060  1.0000
  H   H5426     1.0  0.97125  0.34109  0.81592  1.0000
  H   H5427     1.0  0.95385  0.54113  0.74494  1.0000
  H   H5428     1.0  0.85922  0.40033  0.76062  1.0000
  Fe  Fe696     1.0  0.75072  0.57800  0.97539  1.0000
  S   S1389     1.0  0.99350  0.35285  0.76295  1.0000
  C   C3435     1.0  0.92017  0.57960  0.76228  1.0000
  S   S1390     1.0  0.67105  0.62077  0.92783  1.0000
  H   H5429     1.0  0.84106  0.32677  0.80705  1.0000
  H   H5430     1.0  0.82676  0.34454  0.81996  1.0000
  H   H5431     1.0  0.88144  0.33048  0.76554  1.0000
  H   H5432     1.0  0.96142  0.35389  0.81799  1.0000
  H   H5433     1.0  0.86679  0.38626  0.76092  1.0000
  S   S1391     1.0  0.76153  0.53667  0.97378  1.0000
  H   H5434     1.0  0.98369  0.36973  0.77659  1.0000
  H   H5435     1.0  0.92214  0.55761  0.76575  1.0000
  H   H5436     1.0  0.72542  0.50014  0.90059  1.0000
  N   N337      1.0  0.74556  0.44864  0.95118  1.0000
  C   C3436     1.0  0.75091  0.45483  0.94036  1.0000
  C   C3437     1.0  0.73356  0.44963  0.95139  1.0000
  C   C3438     1.0  0.74644  0.45340  0.96027  1.0000
  C   C3439     1.0  0.75133  0.43675  0.95271  1.0000
  H   H5437     1.0  0.75997  0.45425  0.93991  1.0000
  H   H5438     1.0  0.74681  0.46386  0.93894  1.0000
  H   H5439     1.0  0.75030  0.45153  0.93329  1.0000
  H   H5440     1.0  0.72943  0.44444  0.95911  1.0000
  H   H5441     1.0  0.72879  0.45840  0.95104  1.0000
  H   H5442     1.0  0.73249  0.44698  0.94414  1.0000
  H   H5443     1.0  0.75537  0.45283  0.96040  1.0000
  H   H5444     1.0  0.74242  0.44896  0.96856  1.0000
  H   H5445     1.0  0.74218  0.46240  0.95927  1.0000
  H   H5446     1.0  0.74727  0.43168  0.96059  1.0000
  H   H5447     1.0  0.76032  0.43565  0.95297  1.0000
  H   H5448     1.0  0.75115  0.43305  0.94576  1.0000
  N   N338      1.0  0.83181  0.55602  0.89464  1.0000
  C   C3440     1.0  0.82702  0.56009  0.90513  1.0000
  C   C3441     1.0  0.82368  0.55077  0.89244  1.0000
  C   C3442     1.0  0.84238  0.54770  0.89565  1.0000
  C   C3443     1.0  0.83412  0.56549  0.88530  1.0000
  H   H5449     1.0  0.81902  0.56637  0.90466  1.0000
  H   H5450     1.0  0.83291  0.56406  0.90714  1.0000
  H   H5451     1.0  0.82497  0.55318  0.91231  1.0000
  H   H5452     1.0  0.81568  0.55687  0.89163  1.0000
  H   H5453     1.0  0.82688  0.54771  0.88451  1.0000
  H   H5454     1.0  0.82158  0.54367  0.89934  1.0000
  H   H5455     1.0  0.84616  0.54444  0.88787  1.0000
  H   H5456     1.0  0.84090  0.54044  0.90261  1.0000
  H   H5457     1.0  0.84872  0.55137  0.89730  1.0000
  H   H5458     1.0  0.83762  0.56271  0.87723  1.0000
  H   H5459     1.0  0.84022  0.56970  0.88662  1.0000
  H   H5460     1.0  0.82630  0.57188  0.88421  1.0000
  H   H5461     1.0  0.73804  0.58069  0.89442  1.0000
  H   H5462     1.0  0.91633  0.45193  0.77579  1.0000
  H   H5463     1.0  0.99871  0.59354  0.79838  1.0000
  C   C3444     1.0  0.69308  0.63997  0.90822  1.0000
  H   H5464     1.0  0.72879  0.58927  0.86276  1.0000
  N   N339      1.0  0.70747  0.50195  0.90369  1.0000
  Fe  Fe697     1.0  0.95976  0.37699  0.74813  1.0000
  H   H5465     1.0  0.74288  0.32881  0.90800  1.0000
  H   H5466     1.0  0.73881  0.57005  0.88725  1.0000
  S   S1392     1.0  0.74517  0.35701  0.97507  1.0000
  C   C3445     1.0  0.90116  0.52433  0.81036  1.0000
  C   C3446     1.0  0.93275  0.40695  0.75892  1.0000
  H   H5467     1.0  0.73089  0.34922  0.95928  1.0000
  C   C3447     1.0  0.76838  0.59738  0.94096  1.0000
  H   H5468     1.0  0.71169  0.38342  0.88854  1.0000
  C   C3448     1.0  0.93090  0.60766  0.74749  1.0000
  S   S1393     1.0  0.68506  0.34735  0.92322  1.0000
  N   N340      1.0  0.73173  0.37484  0.92263  1.0000
  C   C3449     1.0  0.72623  0.38669  0.92245  1.0000
  C   C3450     1.0  0.74056  0.37400  0.91241  1.0000
  C   C3451     1.0  0.72324  0.36850  0.92314  1.0000
  C   C3452     1.0  0.73684  0.37023  0.93253  1.0000
  H   H5469     1.0  0.71948  0.38762  0.93003  1.0000
  H   H5470     1.0  0.72220  0.39046  0.91513  1.0000
  H   H5471     1.0  0.73236  0.39176  0.92208  1.0000
  H   H5472     1.0  0.74509  0.36520  0.91236  1.0000
  H   H5473     1.0  0.73698  0.37729  0.90478  1.0000
  H   H5474     1.0  0.74696  0.37889  0.91168  1.0000
  H   H5475     1.0  0.72700  0.35946  0.92351  1.0000
  H   H5476     1.0  0.71922  0.37172  0.91578  1.0000
  H   H5477     1.0  0.71639  0.36915  0.93067  1.0000
  H   H5478     1.0  0.73042  0.37088  0.94038  1.0000
  H   H5479     1.0  0.74337  0.37475  0.93235  1.0000
  H   H5480     1.0  0.74097  0.36126  0.93305  1.0000
  N   N341      1.0  0.90432  0.45379  0.76584  1.0000
  C   C3453     1.0  0.91307  0.45014  0.75644  1.0000
  C   C3454     1.0  0.89962  0.44414  0.77296  1.0000
  C   C3455     1.0  0.89525  0.46256  0.76149  1.0000
  C   C3456     1.0  0.90940  0.45832  0.77246  1.0000
  H   H5481     1.0  0.91731  0.45697  0.75129  1.0000
  H   H5482     1.0  0.90944  0.44725  0.75088  1.0000
  H   H5483     1.0  0.91970  0.44306  0.75941  1.0000
  H   H5484     1.0  0.89576  0.44052  0.76821  1.0000
  H   H5485     1.0  0.90628  0.43728  0.77622  1.0000
  H   H5486     1.0  0.88822  0.46510  0.76834  1.0000
  H   H5487     1.0  0.89166  0.45970  0.75588  1.0000
  H   H5488     1.0  0.89839  0.47019  0.75658  1.0000
  H   H5489     1.0  0.90306  0.46114  0.77965  1.0000
  H   H5490     1.0  0.94698  0.39322  0.75917  1.0000
  N   N342      1.0  0.73403  0.58679  0.87817  1.0000
  H   H5491     1.0  0.69262  0.39839  0.89457  1.0000
  C   C3457     1.0  0.94273  0.40043  0.75403  1.0000
  H   H5492     1.0  0.83063  0.38424  0.84189  1.0000
  H   H5493     1.0  0.82949  0.39836  0.84276  1.0000
  C   C3458     1.0  0.94678  0.40291  0.74249  1.0000
  H   H5494     1.0  0.73375  0.57491  0.86899  1.0000
  C   C3459     1.0  0.83556  0.39035  0.84185  1.0000
  H   H5495     1.0  0.74995  0.59003  0.87817  1.0000
  C   C3460     1.0  0.90928  0.33721  0.75325  1.0000
  H   H5496     1.0  0.84174  0.35586  0.79149  1.0000
  C   C3461     1.0  0.74572  0.58780  0.87264  1.0000
  N   N343      1.0  0.90716  0.34714  0.75808  1.0000
  H   H5497     1.0  0.91850  0.60000  0.77893  1.0000
  H   H5498     1.0  0.70166  0.64611  0.92865  1.0000
  H   H5499     1.0  0.76998  0.58089  0.93080  1.0000
  H   H5500     1.0  0.92293  0.61300  0.79996  1.0000
  H   H5501     1.0  0.70962  0.49006  0.89355  1.0000
  Fe  Fe698     1.0  0.90192  0.42853  0.74614  1.0000
  H   H5502     1.0  0.89155  0.35430  0.75268  1.0000
  C   C3462     1.0  0.73023  0.37233  0.87726  1.0000
  H   H5503     1.0  0.93960  0.56533  0.75729  1.0000
  H   H5504     1.0  0.92148  0.33857  0.78553  1.0000
  H   H5505     1.0  0.73499  0.37907  0.87526  1.0000
  H   H5506     1.0  0.84550  0.39730  0.81388  1.0000
  H   H5507     1.0  0.83336  0.40450  0.82223  1.0000
  H   H5508     1.0  0.90948  0.56437  0.76074  1.0000
  H   H5509     1.0  0.75087  0.57978  0.87046  1.0000
  C   C3463     1.0  0.76788  0.58951  0.92581  1.0000
  H   H5510     1.0  0.75222  0.58586  0.94473  1.0000
  H   H5511     1.0  0.76296  0.58936  0.91978  1.0000
  C   C3464     1.0  0.91736  0.60685  0.80337  1.0000
  C   C3465     1.0  0.90170  0.34455  0.76998  1.0000
  H   H5512     1.0  0.69784  0.41736  0.94802  1.0000
  H   H5513     1.0  0.92396  0.34326  0.76107  1.0000
  N   N344      1.0  0.84437  0.39172  0.83157  1.0000
  H   H5514     1.0  0.77596  0.59181  0.92081  1.0000
  H   H5515     1.0  0.84559  0.40790  0.83285  1.0000
  H   H5516     1.0  0.77037  0.58891  0.94627  1.0000
  H   H5517     1.0  0.83402  0.39057  0.82110  1.0000
  C   C3466     1.0  0.83907  0.39622  0.82178  1.0000
  H   H5518     1.0  0.85526  0.39638  0.83924  1.0000
  H   H5519     1.0  0.85598  0.37706  0.83783  1.0000
  C   C3467     1.0  0.75084  0.59433  0.93931  1.0000
  H   H5520     1.0  0.74543  0.59435  0.93365  1.0000
  H   H5521     1.0  0.72917  0.36891  0.88638  1.0000
  H   H5522     1.0  0.91905  0.60222  0.81171  1.0000
  S   S1394     1.0  0.73717  0.59207  0.96980  1.0000
  C   C3468     1.0  0.85099  0.39955  0.83205  1.0000
  C   C3469     1.0  0.85192  0.38079  0.83054  1.0000
  H   H5523     1.0  0.71941  0.50599  0.88844  1.0000
  H   H5524     1.0  0.69706  0.51830  0.90011  1.0000
  C   C3470     1.0  0.72105  0.38047  0.86168  1.0000
  N   N345      1.0  0.76160  0.59751  0.93303  1.0000
  H   H5525     1.0  0.84519  0.39834  0.75159  1.0000
  H   H5526     1.0  0.69837  0.40194  0.97718  1.0000
  H   H5527     1.0  0.88496  0.54294  0.81017  1.0000
  C   C3471     1.0  0.70087  0.64084  0.92328  1.0000
  H   H5528     1.0  0.90813  0.61023  0.78554  1.0000
  H   H5529     1.0  0.71536  0.48450  0.90590  1.0000
  C   C3472     1.0  0.92671  0.41582  0.75225  1.0000
  H   H5530     1.0  0.74593  0.60020  0.94487  1.0000
  H   H5531     1.0  0.77654  0.59981  0.93656  1.0000
  C   C3473     1.0  0.94962  0.59624  0.74396  1.0000
  C   C3474     1.0  0.69924  0.54233  0.94358  1.0000
  C   C3475     1.0  0.74976  0.53482  0.97004  1.0000
  Fe  Fe699     1.0  0.76164  0.55349  0.97642  1.0000
  H   H5532     1.0  0.97625  0.34880  0.78489  1.0000
  C   C3476     1.0  0.69783  0.50959  0.89927  1.0000
  C   C3477     1.0  0.75929  0.60884  0.92605  1.0000
  H   H5533     1.0  0.75378  0.60932  0.92031  1.0000
  H   H5534     1.0  0.90849  0.61162  0.80462  1.0000
  C   C3478     1.0  0.73671  0.33351  0.88560  1.0000
  H   H5535     1.0  0.95632  0.36838  0.80158  1.0000
  C   C3479     1.0  0.99930  0.35939  0.77012  1.0000
  H   H5536     1.0  0.85767  0.40078  0.82434  1.0000
  H   H5537     1.0  0.85876  0.38162  0.82297  1.0000
  C   C3480     1.0  0.91703  0.60559  0.78485  1.0000
  C   C3481     1.0  0.70583  0.50199  0.91561  1.0000
  H   H5538     1.0  0.70453  0.37042  0.87503  1.0000
  C   C3482     1.0  0.99410  0.54400  0.76674  1.0000
  H   H5539     1.0  0.70469  0.51053  0.91698  1.0000
  Fe  Fe700     1.0  0.95664  0.35325  0.75272  1.0000
  S   S1395     1.0  0.91527  0.49306  0.74278  1.0000
  C   C3483     1.0  0.99717  0.58437  0.78695  1.0000
  H   H5540     1.0  0.75496  0.61518  0.93123  1.0000
  C   C3484     1.0  0.75080  0.52543  0.96575  1.0000
  S   S1396     1.0  0.77620  0.55494  0.98265  1.0000
  H   H5541     1.0  0.87943  0.53179  0.80891  1.0000
  H   H5542     1.0  0.92260  0.61168  0.78090  1.0000
  H   H5543     1.0  0.98542  0.55761  0.74967  1.0000
  H   H5544     1.0  0.79125  0.35479  0.96317  1.0000
  H   H5545     1.0  0.70981  0.55377  0.95096  1.0000
  C   C3485     1.0  0.91832  0.57938  0.74392  1.0000
  C   C3486     1.0  0.69483  0.39701  0.95929  1.0000
  H   H5546     1.0  0.72116  0.40242  0.95214  1.0000
  S   S1397     1.0  0.94930  0.34078  0.74854  1.0000
  C   C3487     1.0  0.91793  0.35031  0.75704  1.0000
  C   C3488     1.0  0.90402  0.53959  0.79470  1.0000
  N   N346      1.0  0.69357  0.64723  0.91535  1.0000
  H   H5547     1.0  0.97105  0.36843  0.79606  1.0000
  H   H5548     1.0  0.70006  0.54770  0.96246  1.0000
  H   H5549     1.0  0.69501  0.54124  0.93739  1.0000
  H   H5550     1.0  0.68143  0.54706  0.95996  1.0000
  H   H5551     1.0  0.93711  0.59879  0.79083  1.0000
  C   C3489     1.0  0.68247  0.55381  0.95238  1.0000
  H   H5552     1.0  0.95748  0.59219  0.74644  1.0000
  C   C3490     1.0  0.88515  0.53762  0.80439  1.0000
  H   H5553     1.0  0.69099  0.56167  0.93073  1.0000
  H   H5554     1.0  0.67755  0.55296  0.94666  1.0000
  H   H5555     1.0  0.70834  0.54155  0.93972  1.0000
  S   S1398     1.0  0.75628  0.37825  0.97422  1.0000
  C   C3491     1.0  0.89969  0.35650  0.75211  1.0000
  S   S1399     1.0  0.72376  0.32980  0.88743  1.0000
  Fe  Fe701     1.0  0.70929  0.33681  0.90007  1.0000
  H   H5556     1.0  0.93322  0.58782  0.80245  1.0000
  N   N347      1.0  0.69446  0.55319  0.94692  1.0000
  C   C3492     1.0  0.93117  0.59301  0.79441  1.0000
  N   N348      1.0  0.91934  0.59916  0.79582  1.0000
  H   H5557     1.0  0.82754  0.36170  0.79763  1.0000
  H   H5558     1.0  0.69851  0.53525  0.95090  1.0000
  H   H5559     1.0  0.69567  0.56721  0.88599  1.0000
  H   H5560     1.0  0.99232  0.37814  0.78699  1.0000
  H   H5561     1.0  0.75870  0.51942  0.96491  1.0000
  C   C3493     1.0  0.69548  0.56228  0.93693  1.0000
  N   N349      1.0  0.71925  0.37658  0.87391  1.0000
  C   C3494     1.0  0.68210  0.65115  0.92158  1.0000
  H   H5562     1.0  0.91671  0.35741  0.76113  1.0000
  C   C3495     1.0  0.69983  0.41479  0.95649  1.0000
  H   H5563     1.0  0.95926  0.33794  0.80488  1.0000
  H   H5564     1.0  0.93070  0.39127  0.74593  1.0000
  H   H5565     1.0  0.70445  0.56210  0.93271  1.0000
  H   H5566     1.0  0.90521  0.51976  0.79009  1.0000
  H   H5567     1.0  0.69200  0.57060  0.93917  1.0000
  C   C3496     1.0  0.70068  0.55437  0.95477  1.0000
  H   H5568     1.0  0.69752  0.56260  0.95726  1.0000
  C   C3497     1.0  0.99263  0.36733  0.77628  1.0000
  C   C3498     1.0  0.89661  0.52459  0.79297  1.0000
  C   C3499     1.0  0.91180  0.59115  0.80065  1.0000
  H   H5569     1.0  0.91284  0.58544  0.79499  1.0000
  H   H5570     1.0  0.92420  0.61227  0.75288  1.0000
  C   C3500     1.0  0.99754  0.37210  0.78213  1.0000
  H   H5571     1.0  0.71119  0.36458  0.88661  1.0000
  S   S1400     1.0  0.71367  0.33456  0.93730  1.0000
  C   C3501     1.0  0.92938  0.60699  0.73715  1.0000
  N   N350      1.0  0.92322  0.57288  0.75364  1.0000
  H   H5572     1.0  0.89986  0.35190  0.77386  1.0000
  S   S1401     1.0  0.94241  0.60177  0.76441  1.0000
  H   H5573     1.0  0.97607  0.35396  0.81227  1.0000
  H   H5574     1.0  0.73725  0.32959  0.92239  1.0000
  S   S1402     1.0  0.71412  0.36812  0.96646  1.0000
  C   C3502     1.0  0.70600  0.39938  0.97089  1.0000
  H   H5575     1.0  0.81593  0.34957  0.81205  1.0000
  S   S1403     1.0  0.90760  0.54235  0.74533  1.0000
  C   C3503     1.0  0.71409  0.39902  0.95155  1.0000
  H   H5576     1.0  0.84963  0.39240  0.73936  1.0000
  H   H5577     1.0  0.70950  0.63744  0.91883  1.0000
  C   C3504     1.0  0.74661  0.32642  0.88145  1.0000
  C   C3505     1.0  0.94095  0.60206  0.75100  1.0000
  H   H5578     1.0  0.91351  0.58588  0.80879  1.0000
  S   S1404     1.0  0.99588  0.57222  0.77224  1.0000
  H   H5579     1.0  0.71673  0.38977  0.95304  1.0000
  H   H5580     1.0  0.91089  0.58189  0.76519  1.0000
  H   H5581     1.0  0.88815  0.56337  0.74203  1.0000
  H   H5582     1.0  0.89362  0.52982  0.78535  1.0000
  C   C3506     1.0  0.77731  0.34070  0.97322  1.0000
  H   H5583     1.0  0.68691  0.39941  0.96532  1.0000
  H   H5584     1.0  0.71757  0.36019  0.87366  1.0000
  H   H5585     1.0  0.99232  0.53762  0.74894  1.0000
  N   N351      1.0  0.96701  0.35214  0.80094  1.0000
  H   H5586     1.0  0.90073  0.61167  0.74172  1.0000
  H   H5587     1.0  0.77754  0.36256  0.96783  1.0000
  C   C3507     1.0  0.93560  0.56999  0.75012  1.0000
  Fe  Fe702     1.0  0.72991  0.36967  0.97075  1.0000
  H   H5588     1.0  0.92377  0.57496  0.76972  1.0000
  H   H5589     1.0  0.68765  0.64449  0.90212  1.0000
  C   C3508     1.0  0.83506  0.35507  0.79923  1.0000
  C   C3509     1.0  0.96902  0.35017  0.81229  1.0000
  H   H5590     1.0  0.96262  0.36604  0.78788  1.0000
  H   H5591     1.0  0.69275  0.39923  0.95091  1.0000
  H   H5592     1.0  0.89586  0.51816  0.81508  1.0000
  H   H5593     1.0  0.70047  0.48735  0.90697  1.0000
  S   S1405     1.0  0.70290  0.32531  0.91581  1.0000
  H   H5594     1.0  0.70643  0.41921  0.95638  1.0000
  C   C3510     1.0  0.96417  0.36428  0.79645  1.0000
  H   H5595     1.0  0.73041  0.33619  0.94797  1.0000
  H   H5596     1.0  0.71293  0.40200  0.94283  1.0000
  H   H5597     1.0  0.87838  0.57993  0.75036  1.0000
  H   H5598     1.0  0.90714  0.33760  0.77479  1.0000
  H   H5599     1.0  0.85194  0.38394  0.75263  1.0000
  H   H5600     1.0  0.72611  0.37366  0.85731  1.0000
  C   C3511     1.0  0.71289  0.36754  0.87741  1.0000
  H   H5601     1.0  0.93668  0.53325  0.75013  1.0000
  H   H5602     1.0  0.90144  0.52937  0.81622  1.0000
  H   H5603     1.0  0.88153  0.54315  0.79727  1.0000
  C   C3512     1.0  0.75779  0.33826  0.88375  1.0000
  C   C3513     1.0  0.71283  0.38599  0.87932  1.0000
  S   S1406     1.0  0.77110  0.34059  0.88317  1.0000
  H   H5604     1.0  0.73559  0.36562  0.87288  1.0000
  H   H5605     1.0  0.91640  0.39847  0.74632  1.0000
  H   H5606     1.0  0.91289  0.53523  0.79225  1.0000
  H   H5607     1.0  0.73860  0.54975  0.97455  1.0000
  H   H5608     1.0  0.90900  0.58190  0.74629  1.0000
  H   H5609     1.0  0.94957  0.35097  0.80650  1.0000
  H   H5610     1.0  0.83458  0.34237  0.78568  1.0000
  H   H5611     1.0  0.82624  0.33333  0.79588  1.0000
  C   C3514     1.0  0.93103  0.41863  0.74079  1.0000
  S   S1407     1.0  0.89349  0.41649  0.74312  1.0000
  H   H5612     1.0  0.89776  0.36407  0.75568  1.0000
  H   H5613     1.0  0.78332  0.33838  0.96562  1.0000
  H   H5614     1.0  0.93829  0.56470  0.74378  1.0000
  H   H5615     1.0  0.72810  0.32973  0.91370  1.0000
  N   N352      1.0  0.86302  0.39537  0.74500  1.0000
  S   S1408     1.0  0.76397  0.58144  0.98197  1.0000
  H   H5616     1.0  0.71323  0.49681  0.91906  1.0000
  C   C3515     1.0  0.70827  0.49049  0.90245  1.0000
  C   C3516     1.0  0.71796  0.50576  0.89751  1.0000
  H   H5617     1.0  0.90141  0.33424  0.75444  1.0000
  Fe  Fe703     1.0  0.87792  0.42982  0.74521  1.0000
  H   H5618     1.0  0.87388  0.39771  0.75437  1.0000
  C   C3517     1.0  0.91882  0.56254  0.75824  1.0000
  C   C3518     1.0  0.92250  0.39061  0.74483  1.0000
  H   H5619     1.0  0.68963  0.63257  0.91331  1.0000
  H   H5620     1.0  0.67368  0.63055  0.90409  1.0000
  N   N353      1.0  0.78206  0.34675  0.97871  1.0000
  C   C3519     1.0  0.85196  0.39238  0.74722  1.0000
  H   H5621     1.0  0.69875  0.50976  0.89029  1.0000
  Fe  Fe704     1.0  0.91045  0.51113  0.74468  1.0000
  H   H5622     1.0  0.91534  0.33014  0.75716  1.0000
  H   H5623     1.0  0.77506  0.33294  0.97892  1.0000
  C   C3520     1.0  0.78504  0.35688  0.97076  1.0000
  H   H5624     1.0  0.86715  0.56858  0.74685  1.0000
  H   H5625     1.0  0.92211  0.35273  0.74817  1.0000
  C   C3521     1.0  0.90733  0.48648  0.73791  1.0000
  H   H5626     1.0  0.99847  0.56051  0.74085  1.0000
  H   H5627     1.0  0.67845  0.64401  0.92713  1.0000
  H   H5628     1.0  0.99831  0.53579  0.77111  1.0000
  H   H5629     1.0  0.78865  0.36170  0.97459  1.0000
  C   C3522     1.0  0.79225  0.33946  0.98239  1.0000
  C   C3523     1.0  0.99416  0.55794  0.74965  1.0000
  H   H5630     1.0  0.85588  0.41298  0.74253  1.0000
  S   S1409     1.0  0.72896  0.37886  0.98400  1.0000
  C   C3524     1.0  0.86245  0.40684  0.73821  1.0000
  H   H5631     1.0  0.93022  0.37113  0.73803  1.0000
  H   H5632     1.0  0.70686  0.65418  0.90343  1.0000
  H   H5633     1.0  0.92158  0.58717  0.74016  1.0000
  H   H5634     1.0  0.89241  0.49954  0.73850  1.0000
  C   C3525     1.0  0.87172  0.38745  0.73895  1.0000
  H   H5635     1.0  0.99362  0.55026  0.77164  1.0000
  H   H5636     1.0  0.90951  0.38053  0.73939  1.0000
  H   H5637     1.0  0.87056  0.40955  0.73655  1.0000
  C   C3526     1.0  0.94116  0.41227  0.73594  1.0000
  H   H5638     1.0  0.87182  0.35303  0.73630  1.0000
  N   N354      1.0  0.00022  0.54710  0.75514  1.0000
  C   C3527     1.0  0.89628  0.49136  0.73669  1.0000
  H   H5639     1.0  0.85986  0.58056  0.73847  1.0000
  H   H5640     1.0  0.67628  0.65574  0.91585  1.0000
  C   C3528     1.0  0.94387  0.34377  0.73639  1.0000
  H   H5641     1.0  0.88625  0.58838  0.73888  1.0000
  C   C3529     1.0  0.91225  0.47589  0.73546  1.0000
  S   S1410     1.0  0.95770  0.39341  0.73607  1.0000
  C   C3530     1.0  0.93680  0.33717  0.73575  1.0000
  H   H5642     1.0  0.87997  0.39003  0.73628  1.0000
  C   C3531     1.0  0.66760  0.63639  0.90867  1.0000
  S   S1411     1.0  0.87943  0.61454  0.73572  1.0000
  H   H5643     1.0  0.68207  0.65682  0.92692  1.0000
  C   C3532     1.0  0.69823  0.65691  0.90828  1.0000
  H   H5644     1.0  0.67790  0.66766  0.14217  1.0000
  C   C3533     1.0  0.67318  0.66324  0.13949  1.0000
  H   H5645     1.0  0.67393  0.68320  0.10696  1.0000
  H   H5646     1.0  0.67274  0.67565  0.09100  1.0000
  H   H5647     1.0  0.88962  0.65785  0.23426  1.0000
  H   H5648     1.0  0.66896  0.67126  0.11599  1.0000
  H   H5649     1.0  0.86366  0.71709  0.43974  1.0000
  H   H5650     1.0  0.72999  0.91473  0.36665  1.0000
  H   H5651     1.0  0.85691  0.70846  0.43566  1.0000
  Fe  Fe705     1.0  0.68683  0.89186  0.35873  1.0000
  S   S1412     1.0  0.69937  0.90310  0.35062  1.0000
  H   H5652     1.0  0.84944  0.73671  0.41785  1.0000
  Fe  Fe706     1.0  0.69579  0.88489  0.38057  1.0000
  S   S1413     1.0  0.70888  0.89517  0.37388  1.0000
  H   H5653     1.0  0.89984  0.73246  0.35894  1.0000
  Fe  Fe707     1.0  0.69548  0.90845  0.36695  1.0000
  S   S1414     1.0  0.69287  0.92539  0.37103  1.0000
  Fe  Fe708     1.0  0.71179  0.88884  0.35836  1.0000
  S   S1415     1.0  0.73003  0.88494  0.34984  1.0000
  S   S1416     1.0  0.68198  0.89851  0.37458  1.0000
  S   S1417     1.0  0.69970  0.87721  0.36549  1.0000
  Fe  Fe709     1.0  0.77624  0.86009  0.38112  1.0000
  S   S1418     1.0  0.78824  0.86616  0.36562  1.0000
  S   S1419     1.0  0.76208  0.85242  0.38104  1.0000
  Fe  Fe710     1.0  0.78643  0.86813  0.39576  1.0000
  S   S1420     1.0  0.79924  0.87500  0.38149  1.0000
  S   S1421     1.0  0.78459  0.87079  0.41289  1.0000
  Fe  Fe711     1.0  0.78495  0.88148  0.37255  1.0000
  S   S1422     1.0  0.77984  0.89846  0.36209  1.0000
  Fe  Fe712     1.0  0.80136  0.85895  0.37604  1.0000
  S   S1423     1.0  0.81866  0.84995  0.36860  1.0000
  S   S1424     1.0  0.77193  0.87591  0.38728  1.0000
  S   S1425     1.0  0.78959  0.85155  0.39112  1.0000
  Fe  Fe713     1.0  0.89475  0.70420  0.35856  1.0000
  S   S1426     1.0  0.88495  0.69063  0.36576  1.0000
  S   S1427     1.0  0.88688  0.72114  0.34985  1.0000
  Fe  Fe714     1.0  0.91583  0.69014  0.36641  1.0000
  S   S1428     1.0  0.90777  0.67526  0.37387  1.0000
  S   S1429     1.0  0.93256  0.68971  0.37007  1.0000
  Fe  Fe715     1.0  0.90072  0.67957  0.35824  1.0000
  H   H5654     1.0  0.75045  0.89644  0.36045  1.0000
  Fe  Fe716     1.0  0.89285  0.68778  0.38054  1.0000
  S   S1430     1.0  0.88333  0.68498  0.39851  1.0000
  S   S1431     1.0  0.91019  0.69351  0.35030  1.0000
  S   S1432     1.0  0.90132  0.70226  0.37383  1.0000
  Fe  Fe717     1.0  0.85286  0.78810  0.38169  1.0000
  S   S1433     1.0  0.85251  0.77481  0.39737  1.0000
  S   S1434     1.0  0.83497  0.79740  0.38087  1.0000
  Fe  Fe718     1.0  0.87829  0.78109  0.37463  1.0000
  S   S1435     1.0  0.87965  0.76748  0.38975  1.0000
  S   S1436     1.0  0.89506  0.78152  0.36289  1.0000
  Fe  Fe719     1.0  0.86462  0.76352  0.38673  1.0000
  S   S1437     1.0  0.86418  0.74532  0.39009  1.0000
  Fe  Fe720     1.0  0.86753  0.78002  0.39886  1.0000
  S   S1438     1.0  0.87070  0.78136  0.41492  1.0000
  S   S1439     1.0  0.86395  0.77627  0.37080  1.0000
  S   S1440     1.0  0.86721  0.79418  0.38401  1.0000
  Fe  Fe721     1.0  0.95450  0.74033  0.37209  1.0000
  S   S1441     1.0  0.95834  0.75741  0.36863  1.0000
  S   S1442     1.0  0.94806  0.73579  0.35923  1.0000
  Fe  Fe722     1.0  0.95770  0.73512  0.39577  1.0000
  S   S1443     1.0  0.96139  0.75171  0.39461  1.0000
  S   S1444     1.0  0.95674  0.72230  0.41161  1.0000
  Fe  Fe723     1.0  0.94725  0.75851  0.38542  1.0000
  S   S1445     1.0  0.93367  0.77338  0.38919  1.0000
  Fe  Fe724     1.0  0.97222  0.74917  0.37808  1.0000
  S   S1446     1.0  0.98981  0.75273  0.37268  1.0000
  S   S1447     1.0  0.94247  0.74211  0.38827  1.0000
  S   S1448     1.0  0.96953  0.73187  0.37984  1.0000
  Fe  Fe725     1.0  0.89014  0.71297  0.46947  1.0000
  S   S1449     1.0  0.88573  0.73135  0.46278  1.0000
  Fe  Fe726     1.0  0.89582  0.70768  0.44616  1.0000
  S   S1450     1.0  0.89197  0.72568  0.43783  1.0000
  S   S1451     1.0  0.90239  0.69523  0.43487  1.0000
  Fe  Fe727     1.0  0.90111  0.72836  0.44944  1.0000
  S   S1452     1.0  0.91205  0.74102  0.44334  1.0000
  Fe  Fe728     1.0  0.87703  0.72690  0.45193  1.0000
  S   S1453     1.0  0.86061  0.73699  0.44799  1.0000
  S   S1454     1.0  0.90631  0.71019  0.45688  1.0000
  S   S1455     1.0  0.88003  0.70862  0.45955  1.0000
  Fe  Fe729     1.0  0.73804  0.95606  0.37197  1.0000
  S   S1456     1.0  0.75393  0.96253  0.36874  1.0000
  S   S1457     1.0  0.73243  0.95173  0.35841  1.0000
  Fe  Fe730     1.0  0.73293  0.95605  0.39656  1.0000
  S   S1458     1.0  0.74850  0.96174  0.39573  1.0000
  S   S1459     1.0  0.72018  0.95340  0.41242  1.0000
  Fe  Fe731     1.0  0.74411  0.97402  0.38049  1.0000
  Fe  Fe732     1.0  0.75689  0.94983  0.38431  1.0000
  S   S1460     1.0  0.77307  0.93773  0.38660  1.0000
  S   S1461     1.0  0.72791  0.96884  0.38197  1.0000
  S   S1462     1.0  0.74170  0.94274  0.38684  1.0000
  Fe  Fe733     1.0  0.73037  0.89826  0.44836  1.0000
  S   S1463     1.0  0.71234  0.90305  0.45689  1.0000
  S   S1464     1.0  0.74248  0.90977  0.44261  1.0000
  Fe  Fe734     1.0  0.72875  0.87474  0.44918  1.0000
  S   S1465     1.0  0.71063  0.87725  0.45803  1.0000
  S   S1466     1.0  0.73850  0.85969  0.44224  1.0000
  Fe  Fe735     1.0  0.70891  0.89367  0.44575  1.0000
  S   S1467     1.0  0.69594  0.90034  0.43500  1.0000
  Fe  Fe736     1.0  0.71582  0.88633  0.46834  1.0000
  S   S1468     1.0  0.72667  0.89049  0.43629  1.0000
  S   S1469     1.0  0.73414  0.88219  0.46050  1.0000
  C   C3534     1.0  0.72624  0.94154  0.42117  1.0000
  C   C3535     1.0  0.73718  0.94030  0.42257  1.0000
  C   C3536     1.0  0.74209  0.93065  0.42943  1.0000
  C   C3537     1.0  0.73619  0.92208  0.43452  1.0000
  C   C3538     1.0  0.72535  0.92325  0.43292  1.0000
  C   C3539     1.0  0.72030  0.93306  0.42641  1.0000
  H   H5655     1.0  0.74183  0.94683  0.41847  1.0000
  H   H5656     1.0  0.75050  0.92974  0.43060  1.0000
  H   H5657     1.0  0.72083  0.91660  0.43659  1.0000
  H   H5658     1.0  0.71190  0.93393  0.42519  1.0000
  H   H5659     1.0  0.73058  0.90326  0.36052  1.0000
  H   H5660     1.0  0.93864  0.67192  0.39018  1.0000
  H   H5661     1.0  0.90228  0.73949  0.37913  1.0000
  H   H5662     1.0  0.87984  0.71685  0.32683  1.0000
  C   C3540     1.0  0.94488  0.72740  0.42111  1.0000
  C   C3541     1.0  0.93845  0.72006  0.42857  1.0000
  C   C3542     1.0  0.92847  0.72420  0.43558  1.0000
  C   C3543     1.0  0.92507  0.73565  0.43541  1.0000
  C   C3544     1.0  0.93169  0.74296  0.42820  1.0000
  C   C3545     1.0  0.94149  0.73886  0.42092  1.0000
  H   H5663     1.0  0.94101  0.71120  0.42868  1.0000
  H   H5664     1.0  0.92340  0.71851  0.44103  1.0000
  H   H5665     1.0  0.92912  0.75182  0.42803  1.0000
  H   H5666     1.0  0.94645  0.74456  0.41522  1.0000
  H   H5667     1.0  0.99524  0.72436  0.39951  1.0000
  H   H5668     1.0  0.91402  0.73216  0.35133  1.0000
  H   H5669     1.0  0.92234  0.73865  0.36850  1.0000
  H   H5670     1.0  0.90028  0.76466  0.48050  1.0000
  H   H5671     1.0  0.97939  0.76467  0.39090  1.0000
  H   H5672     1.0  0.88996  0.69317  0.31213  1.0000
  C   C3546     1.0  0.86713  0.76984  0.42513  1.0000
  C   C3547     1.0  0.85742  0.76620  0.42567  1.0000
  C   C3548     1.0  0.85516  0.75635  0.43309  1.0000
  C   C3549     1.0  0.86274  0.74999  0.43980  1.0000
  C   C3550     1.0  0.87234  0.75377  0.43945  1.0000
  C   C3551     1.0  0.87441  0.76382  0.43227  1.0000
  H   H5673     1.0  0.85159  0.77101  0.42043  1.0000
  H   H5674     1.0  0.84765  0.75356  0.43345  1.0000
  H   H5675     1.0  0.87819  0.74894  0.44466  1.0000
  H   H5676     1.0  0.88189  0.76667  0.43192  1.0000
  C   C3552     1.0  0.90585  0.78004  0.36989  1.0000
  C   C3553     1.0  0.90348  0.78329  0.38010  1.0000
  C   C3554     1.0  0.91216  0.78164  0.38578  1.0000
  C   C3555     1.0  0.92311  0.77627  0.38152  1.0000
  C   C3556     1.0  0.92546  0.77302  0.37132  1.0000
  C   C3557     1.0  0.91691  0.77519  0.36538  1.0000
  H   H5677     1.0  0.89498  0.78717  0.38357  1.0000
  H   H5678     1.0  0.91030  0.78427  0.39361  1.0000
  H   H5679     1.0  0.93390  0.76896  0.36792  1.0000
  H   H5680     1.0  0.91883  0.77293  0.35736  1.0000
  C   C3558     1.0  0.93657  0.70265  0.36723  1.0000
  C   C3559     1.0  0.94309  0.70436  0.37379  1.0000
  C   C3560     1.0  0.94646  0.71459  0.37158  1.0000
  C   C3561     1.0  0.94376  0.72295  0.36247  1.0000
  C   C3562     1.0  0.93746  0.72112  0.35577  1.0000
  C   C3563     1.0  0.93364  0.71112  0.35829  1.0000
  H   H5681     1.0  0.94560  0.69778  0.38057  1.0000
  H   H5682     1.0  0.95142  0.71587  0.37672  1.0000
  H   H5683     1.0  0.93562  0.72743  0.34853  1.0000
  H   H5684     1.0  0.92881  0.70977  0.35306  1.0000
  C   C3564     1.0  0.88692  0.68972  0.40875  1.0000
  C   C3565     1.0  0.89306  0.69816  0.40599  1.0000
  C   C3566     1.0  0.89677  0.70081  0.41432  1.0000
  C   C3567     1.0  0.89453  0.69491  0.42540  1.0000
  C   C3568     1.0  0.88791  0.68690  0.42820  1.0000
  C   C3569     1.0  0.88397  0.68446  0.41995  1.0000
  H   H5685     1.0  0.89519  0.70243  0.39742  1.0000
  H   H5686     1.0  0.90199  0.70692  0.41206  1.0000
  H   H5687     1.0  0.90316  0.76185  0.35343  1.0000
  C   C3570     1.0  0.99510  0.75975  0.37983  1.0000
  C   C3571     1.0  0.87901  0.72811  0.36056  1.0000
  C   C3572     1.0  0.87612  0.73980  0.35859  1.0000
  C   C3573     1.0  0.87123  0.74523  0.36758  1.0000
  C   C3574     1.0  0.86924  0.73896  0.37850  1.0000
  C   C3575     1.0  0.87176  0.72731  0.38033  1.0000
  C   C3576     1.0  0.87655  0.72192  0.37140  1.0000
  H   H5688     1.0  0.87794  0.74463  0.35019  1.0000
  H   H5689     1.0  0.86917  0.75423  0.36606  1.0000
  H   H5690     1.0  0.87025  0.72234  0.38866  1.0000
  H   H5691     1.0  0.87842  0.71292  0.37299  1.0000
  C   C3577     1.0  0.82320  0.83539  0.37246  1.0000
  C   C3578     1.0  0.81579  0.82863  0.37918  1.0000
  C   C3579     1.0  0.81949  0.81697  0.38154  1.0000
  C   C3580     1.0  0.83071  0.81203  0.37753  1.0000
  C   C3581     1.0  0.83819  0.81879  0.37102  1.0000
  C   C3582     1.0  0.83440  0.83044  0.36842  1.0000
  H   H5692     1.0  0.80719  0.83239  0.38240  1.0000
  H   H5693     1.0  0.81368  0.81176  0.38659  1.0000
  H   H5694     1.0  0.84683  0.81505  0.36783  1.0000
  H   H5695     1.0  0.84016  0.83565  0.36318  1.0000
  C   C3583     1.0  0.77204  0.86734  0.42129  1.0000
  C   C3584     1.0  0.76787  0.85889  0.41957  1.0000
  C   C3585     1.0  0.75777  0.85624  0.42631  1.0000
  C   C3586     1.0  0.75155  0.86242  0.43438  1.0000
  C   C3587     1.0  0.75563  0.87101  0.43592  1.0000
  C   C3588     1.0  0.76598  0.87330  0.42956  1.0000
  H   H5696     1.0  0.77258  0.85422  0.41322  1.0000
  H   H5697     1.0  0.75475  0.84948  0.42519  1.0000
  H   H5698     1.0  0.75092  0.87578  0.44214  1.0000
  H   H5699     1.0  0.76922  0.87978  0.43097  1.0000
  C   C3589     1.0  0.77851  0.90950  0.36854  1.0000
  C   C3590     1.0  0.78444  0.90818  0.37684  1.0000
  C   C3591     1.0  0.78310  0.91706  0.38204  1.0000
  C   C3592     1.0  0.77557  0.92713  0.37922  1.0000
  C   C3593     1.0  0.76963  0.92844  0.37094  1.0000
  C   C3594     1.0  0.77125  0.91969  0.36549  1.0000
  H   H5700     1.0  0.79016  0.90037  0.37914  1.0000
  H   H5701     1.0  0.78775  0.91605  0.38840  1.0000
  H   H5702     1.0  0.76387  0.93623  0.36865  1.0000
  H   H5703     1.0  0.76678  0.92082  0.35897  1.0000
  C   C3595     1.0  0.70455  0.93178  0.36757  1.0000
  C   C3596     1.0  0.70903  0.93606  0.35644  1.0000
  C   C3597     1.0  0.71751  0.94222  0.35377  1.0000
  C   C3598     1.0  0.72162  0.94411  0.36219  1.0000
  C   C3599     1.0  0.71721  0.93975  0.37334  1.0000
  C   C3600     1.0  0.70864  0.93367  0.37602  1.0000
  H   H5704     1.0  0.70572  0.93492  0.34988  1.0000
  H   H5705     1.0  0.72076  0.94570  0.34513  1.0000
  H   H5706     1.0  0.72025  0.94123  0.37990  1.0000
  H   H5707     1.0  0.70507  0.93059  0.38466  1.0000
  C   C3601     1.0  0.69562  0.88200  0.40867  1.0000
  S   S1470     1.0  0.90259  0.66769  0.34662  1.0000
  H   H5708     1.0  0.77218  0.84039  0.35962  1.0000
  C   C3602     1.0  0.69713  0.89242  0.42511  1.0000
  C   C3603     1.0  0.70174  0.89623  0.41385  1.0000
  C   C3604     1.0  0.70095  0.89106  0.40565  1.0000
  H   H5709     1.0  0.87959  0.70241  0.34385  1.0000
  C   C3605     1.0  0.89962  0.74603  0.37203  1.0000
  H   H5710     1.0  0.70561  0.90340  0.41145  1.0000
  H   H5711     1.0  0.70428  0.89424  0.39700  1.0000
  C   C3606     1.0  0.73877  0.87585  0.35863  1.0000
  C   C3607     1.0  0.75025  0.87601  0.35605  1.0000
  C   C3608     1.0  0.75733  0.86907  0.36310  1.0000
  C   C3609     1.0  0.75311  0.86150  0.37245  1.0000
  C   C3610     1.0  0.74169  0.86111  0.37488  1.0000
  C   C3611     1.0  0.73446  0.86847  0.36814  1.0000
  H   H5712     1.0  0.75367  0.88158  0.34864  1.0000
  H   H5713     1.0  0.76611  0.86945  0.36111  1.0000
  H   H5714     1.0  0.73840  0.85514  0.38197  1.0000
  H   H5715     1.0  0.72562  0.86822  0.37010  1.0000
  H   H5716     1.0  0.85549  0.71156  0.41612  1.0000
  H   H5717     1.0  0.75350  0.91037  0.33621  1.0000
  C   C3612     1.0  0.69218  0.88312  0.42817  1.0000
  H   H5718     1.0  0.71075  0.97389  0.42292  1.0000
  H   H5719     1.0  0.73035  0.97118  0.41266  1.0000
  H   H5720     1.0  0.86658  0.66304  0.34119  1.0000
  C   C3613     1.0  0.89387  0.66284  0.34067  1.0000
  H   H5721     1.0  0.87183  0.70746  0.43110  1.0000
  H   H5722     1.0  0.68852  0.88018  0.43683  1.0000
  H   H5723     1.0  0.84377  0.72539  0.42757  1.0000
  H   H5724     1.0  0.87021  0.71141  0.41102  1.0000
  H   H5725     1.0  0.85993  0.72329  0.40612  1.0000
  H   H5726     1.0  0.85037  0.73370  0.43221  1.0000
  N   N355      1.0  0.67314  0.91726  0.40250  1.0000
  H   H5727     1.0  0.68509  0.92800  0.39629  1.0000
  C   C3614     1.0  0.89371  0.74553  0.48301  1.0000
  C   C3615     1.0  0.90360  0.75336  0.35222  1.0000
  N   N356      1.0  0.83800  0.81088  0.40847  1.0000
  C   C3616     1.0  0.82800  0.80698  0.40826  1.0000
  C   C3617     1.0  0.84621  0.80131  0.41319  1.0000
  C   C3618     1.0  0.83457  0.81938  0.41540  1.0000
  C   C3619     1.0  0.84322  0.81582  0.39700  1.0000
  H   H5728     1.0  0.82174  0.81394  0.40451  1.0000
  H   H5729     1.0  0.82376  0.80331  0.41678  1.0000
  H   H5730     1.0  0.83033  0.80044  0.40322  1.0000
  H   H5731     1.0  0.84263  0.79732  0.42186  1.0000
  H   H5732     1.0  0.84891  0.79474  0.40816  1.0000
  H   H5733     1.0  0.85395  0.80385  0.41336  1.0000
  H   H5734     1.0  0.84193  0.82250  0.41571  1.0000
  H   H5735     1.0  0.83059  0.81594  0.42412  1.0000
  H   H5736     1.0  0.82839  0.82672  0.41201  1.0000
  H   H5737     1.0  0.85084  0.81879  0.39679  1.0000
  H   H5738     1.0  0.83726  0.82306  0.39313  1.0000
  H   H5739     1.0  0.84585  0.80962  0.39157  1.0000
  N   N357      1.0  0.96137  0.78926  0.37356  1.0000
  C   C3620     1.0  0.96293  0.80076  0.37188  1.0000
  C   C3621     1.0  0.95865  0.78445  0.38563  1.0000
  C   C3622     1.0  0.97187  0.78237  0.36831  1.0000
  C   C3623     1.0  0.95204  0.78945  0.36844  1.0000
  H   H5740     1.0  0.95515  0.80619  0.37571  1.0000
  H   H5741     1.0  0.96507  0.80462  0.36286  1.0000
  H   H5742     1.0  0.96987  0.80091  0.37572  1.0000
  H   H5743     1.0  0.95733  0.77581  0.38717  1.0000
  H   H5744     1.0  0.96550  0.78412  0.38979  1.0000
  H   H5745     1.0  0.95072  0.78936  0.38986  1.0000
  H   H5746     1.0  0.97119  0.77351  0.36980  1.0000
  H   H5747     1.0  0.97917  0.78236  0.37170  1.0000
  H   H5748     1.0  0.97398  0.78546  0.35913  1.0000
  H   H5749     1.0  0.95069  0.78090  0.36947  1.0000
  H   H5750     1.0  0.95369  0.79314  0.35936  1.0000
  H   H5751     1.0  0.94393  0.79433  0.37240  1.0000
  H   H5752     1.0  0.76013  0.90271  0.45827  1.0000
  N   N358      1.0  0.90721  0.75066  0.40850  1.0000
  C   C3624     1.0  0.91358  0.73923  0.41206  1.0000
  C   C3625     1.0  0.91110  0.75866  0.41245  1.0000
  C   C3626     1.0  0.89509  0.75121  0.41330  1.0000
  C   C3627     1.0  0.90906  0.75357  0.39622  1.0000
  H   H5753     1.0  0.91188  0.73657  0.42129  1.0000
  H   H5754     1.0  0.92282  0.73863  0.40914  1.0000
  H   H5755     1.0  0.91124  0.73301  0.40882  1.0000
  H   H5756     1.0  0.90647  0.76737  0.40988  1.0000
  H   H5757     1.0  0.90979  0.75672  0.42170  1.0000
  H   H5758     1.0  0.92023  0.75850  0.40900  1.0000
  H   H5759     1.0  0.89005  0.75980  0.41099  1.0000
  H   H5760     1.0  0.89346  0.74892  0.42257  1.0000
  H   H5761     1.0  0.89176  0.74544  0.41039  1.0000
  H   H5762     1.0  0.90396  0.76193  0.39332  1.0000
  H   H5763     1.0  0.90668  0.74746  0.39293  1.0000
  H   H5764     1.0  0.91804  0.75383  0.39235  1.0000
  H   H5765     1.0  0.74387  0.90115  0.34243  1.0000
  H   H5766     1.0  0.67857  0.90044  0.39982  1.0000
  C   C3628     1.0  0.74493  0.90983  0.34131  1.0000
  H   H5767     1.0  0.89502  0.75304  0.35165  1.0000
  H   H5768     1.0  0.89049  0.76348  0.46637  1.0000
  H   H5769     1.0  0.87919  0.67797  0.42217  1.0000
  H   H5770     1.0  0.74334  0.91667  0.46294  1.0000
  C   C3629     1.0  0.73180  0.91199  0.35862  1.0000
  H   H5771     1.0  0.68207  0.87060  0.34439  1.0000
  N   N359      1.0  0.92443  0.67554  0.40342  1.0000
  C   C3630     1.0  0.66851  0.92159  0.39229  1.0000
  H   H5772     1.0  0.72531  0.91724  0.35389  1.0000
  H   H5773     1.0  0.87856  0.66003  0.24624  1.0000
  C   C3631     1.0  0.73002  0.98023  0.41168  1.0000
  C   C3632     1.0  0.88000  0.69612  0.33900  1.0000
  H   H5774     1.0  0.88632  0.68214  0.43667  1.0000
  H   H5775     1.0  0.89398  0.75099  0.46103  1.0000
  C   C3633     1.0  0.90820  0.73347  0.35936  1.0000
  C   C3634     1.0  0.71477  0.98553  0.40190  1.0000
  H   H5776     1.0  0.91843  0.69257  0.40524  1.0000
  H   H5777     1.0  0.90805  0.67422  0.40246  1.0000
  H   H5778     1.0  0.87798  0.66977  0.35031  1.0000
  H   H5779     1.0  0.66938  0.87885  0.30027  1.0000
  N   N360      1.0  0.75756  0.90565  0.40718  1.0000
  C   C3635     1.0  0.75401  0.90835  0.39642  1.0000
  C   C3636     1.0  0.74897  0.90078  0.41614  1.0000
  C   C3637     1.0  0.75887  0.91593  0.40961  1.0000
  C   C3638     1.0  0.76840  0.89750  0.40655  1.0000
  H   H5780     1.0  0.74578  0.91439  0.39666  1.0000
  H   H5781     1.0  0.75322  0.90074  0.39418  1.0000
  H   H5782     1.0  0.76023  0.91223  0.38954  1.0000
  H   H5783     1.0  0.75159  0.89833  0.42431  1.0000
  H   H5784     1.0  0.74077  0.90685  0.41717  1.0000
  H   H5785     1.0  0.74759  0.89313  0.41448  1.0000
  H   H5786     1.0  0.76092  0.91432  0.41795  1.0000
  H   H5787     1.0  0.75104  0.92252  0.40948  1.0000
  H   H5788     1.0  0.76573  0.91949  0.40334  1.0000
  H   H5789     1.0  0.76767  0.88957  0.40493  1.0000
  H   H5790     1.0  0.77146  0.89540  0.41444  1.0000
  H   H5791     1.0  0.77508  0.90074  0.39977  1.0000
  N   N361      1.0  0.86183  0.72211  0.42268  1.0000
  C   C3639     1.0  0.87092  0.72843  0.41915  1.0000
  C   C3640     1.0  0.86188  0.71685  0.41359  1.0000
  C   C3641     1.0  0.85086  0.72981  0.42518  1.0000
  C   C3642     1.0  0.86363  0.71339  0.43273  1.0000
  H   H5792     1.0  0.86986  0.73503  0.41154  1.0000
  H   H5793     1.0  0.87933  0.72286  0.41729  1.0000
  H   H5794     1.0  0.87099  0.73265  0.42576  1.0000
  H   H5795     1.0  0.91125  0.72662  0.36607  1.0000
  N   N362      1.0  0.74326  0.91287  0.35217  1.0000
  H   H5796     1.0  0.79678  0.81644  0.36061  1.0000
  C   C3643     1.0  0.66764  0.88416  0.34405  1.0000
  H   H5797     1.0  0.89890  0.75439  0.37373  1.0000
  C   C3644     1.0  0.68472  0.91910  0.40009  1.0000
  C   C3645     1.0  0.75162  0.90518  0.35842  1.0000
  N   N363      1.0  0.72863  0.86212  0.41105  1.0000
  H   H5798     1.0  0.88414  0.71313  0.31340  1.0000
  H   H5799     1.0  0.71181  0.90713  0.47947  1.0000
  C   C3646     1.0  0.93125  0.67301  0.41196  1.0000
  H   H5800     1.0  0.76034  0.90519  0.35349  1.0000
  H   H5801     1.0  0.75105  0.90757  0.36639  1.0000
  H   H5802     1.0  0.73878  0.93046  0.34538  1.0000
  N   N364      1.0  0.88583  0.69927  0.32729  1.0000
  C   C3647     1.0  0.73981  0.91041  0.47003  1.0000
  C   C3648     1.0  0.74368  0.89283  0.48294  1.0000
  H   H5803     1.0  0.73870  0.91542  0.33641  1.0000
  H   H5804     1.0  0.76223  0.89972  0.48248  1.0000
  C   C3649     1.0  0.74476  0.92443  0.35029  1.0000
  C   C3650     1.0  0.99609  0.73165  0.40229  1.0000
  C   C3651     1.0  0.87996  0.71043  0.32224  1.0000
  C   C3652     1.0  0.89755  0.69959  0.32695  1.0000
  H   H5805     1.0  0.68204  0.89278  0.30731  1.0000
  C   C3653     1.0  0.90699  0.75757  0.47794  1.0000
  H   H5806     1.0  0.67853  0.88759  0.29094  1.0000
  H   H5807     1.0  0.75341  0.92531  0.34567  1.0000
  H   H5808     1.0  0.74331  0.92714  0.35830  1.0000
  H   H5809     1.0  0.89785  0.70575  0.33164  1.0000
  C   C3654     1.0  0.67317  0.89225  0.31138  1.0000
  H   H5810     1.0  0.90221  0.69128  0.33073  1.0000
  N   N365      1.0  0.90756  0.74458  0.36140  1.0000
  H   H5811     1.0  0.90225  0.70196  0.31825  1.0000
  H   H5812     1.0  0.78203  0.82053  0.36039  1.0000
  C   C3655     1.0  0.71080  0.98288  0.42193  1.0000
  H   H5813     1.0  0.91083  0.71156  0.48208  1.0000
  H   H5814     1.0  0.90931  0.75248  0.34403  1.0000
  C   C3656     1.0  0.91883  0.74548  0.36203  1.0000
  H   H5815     1.0  0.92494  0.74502  0.35396  1.0000
  H   H5816     1.0  0.89104  0.74544  0.37185  1.0000
  H   H5817     1.0  0.93948  0.67556  0.40833  1.0000
  C   C3657     1.0  0.67329  0.90517  0.40630  1.0000
  C   C3658     1.0  0.98821  0.76495  0.38841  1.0000
  C   C3659     1.0  0.67404  0.87381  0.34194  1.0000
  H   H5818     1.0  0.68815  0.91678  0.40779  1.0000
  C   C3660     1.0  0.99273  0.77069  0.39368  1.0000
  C   C3661     1.0  0.69152  0.87787  0.41998  1.0000
  C   C3662     1.0  0.88582  0.69095  0.32107  1.0000
  C   C3663     1.0  0.72455  0.87183  0.41646  1.0000
  H   H5819     1.0  0.75926  0.91285  0.47290  1.0000
  H   H5820     1.0  0.67679  0.90162  0.41398  1.0000
  H   H5821     1.0  0.76526  0.98358  0.38290  1.0000
  H   H5822     1.0  0.79226  0.82459  0.34809  1.0000
  C   C3664     1.0  0.87565  0.66126  0.33864  1.0000
  C   C3665     1.0  0.91355  0.67215  0.40861  1.0000
  H   H5823     1.0  0.88444  0.68791  0.34318  1.0000
  H   H5824     1.0  0.73318  0.98114  0.41869  1.0000
  H   H5825     1.0  0.72372  0.85525  0.39974  1.0000
  C   C3666     1.0  0.79017  0.82336  0.35734  1.0000
  H   H5826     1.0  0.91860  0.75350  0.36410  1.0000
  H   H5827     1.0  0.71226  0.86161  0.40935  1.0000
  H   H5828     1.0  0.75153  0.89276  0.46112  1.0000
  H   H5829     1.0  0.73417  0.90701  0.46695  1.0000
  H   H5830     1.0  0.71977  0.87017  0.39773  1.0000
  C   C3667     1.0  0.72078  0.86229  0.40416  1.0000
  H   H5831     1.0  0.71461  0.97666  0.40254  1.0000
  C   C3668     1.0  0.66972  0.88756  0.29557  1.0000
  H   H5832     1.0  0.73450  0.91496  0.47659  1.0000
  C   C3669     1.0  0.75537  0.90624  0.47919  1.0000
  H   H5833     1.0  0.91366  0.76109  0.47134  1.0000
  H   H5834     1.0  0.71608  0.87169  0.42197  1.0000
  H   H5835     1.0  0.72390  0.87984  0.41021  1.0000
  H   H5836     1.0  0.73967  0.87003  0.39692  1.0000
  S   S1471     1.0  0.69382  0.87568  0.39862  1.0000
  H   H5837     1.0  0.73219  0.84420  0.41596  1.0000
  H   H5838     1.0  0.91471  0.66303  0.41210  1.0000
  H   H5839     1.0  0.87712  0.69018  0.32145  1.0000
  C   C3670     1.0  0.93049  0.66938  0.39447  1.0000
  H   H5840     1.0  0.98734  0.77486  0.40019  1.0000
  H   H5841     1.0  0.73028  0.87191  0.42177  1.0000
  H   H5842     1.0  0.74350  0.85509  0.40016  1.0000
  C   C3671     1.0  0.72926  0.85172  0.41971  1.0000
  C   C3672     1.0  0.73992  0.86259  0.40391  1.0000
  H   H5843     1.0  0.87106  0.71049  0.32242  1.0000
  H   H5844     1.0  0.93041  0.69039  0.39418  1.0000
  H   H5845     1.0  0.73518  0.85125  0.42501  1.0000
  H   H5846     1.0  0.78624  0.83932  0.37619  1.0000
  H   H5847     1.0  0.89045  0.68251  0.32455  1.0000
  H   H5848     1.0  0.67367  0.91727  0.38549  1.0000
  H   H5849     1.0  0.80267  0.83914  0.34746  1.0000
  H   H5850     1.0  0.74595  0.86299  0.40872  1.0000
  H   H5851     1.0  0.72091  0.85122  0.42537  1.0000
  H   H5852     1.0  0.90888  0.67648  0.41554  1.0000
  N   N366      1.0  0.78949  0.83372  0.36093  1.0000
  C   C3673     1.0  0.89746  0.75641  0.46424  1.0000
  H   H5853     1.0  0.77982  0.85055  0.35904  1.0000
  H   H5854     1.0  0.77837  0.82934  0.37671  1.0000
  H   H5855     1.0  0.68744  0.87083  0.42241  1.0000
  H   H5856     1.0  0.91687  0.68998  0.39253  1.0000
  N   N367      1.0  0.71849  0.98686  0.41148  1.0000
  H   H5857     1.0  0.72050  0.98824  0.39387  1.0000
  H   H5858     1.0  0.89055  0.73928  0.48060  1.0000
  H   H5859     1.0  0.80741  0.83048  0.35968  1.0000
  H   H5860     1.0  0.79315  0.82492  0.37694  1.0000
  C   C3674     1.0  0.80045  0.83715  0.35672  1.0000
  H   H5861     1.0  0.78233  0.84442  0.34719  1.0000
  H   H5862     1.0  0.69051  0.91407  0.39409  1.0000
  H   H5863     1.0  0.87122  0.69543  0.33964  1.0000
  H   H5864     1.0  0.80044  0.84470  0.35962  1.0000
  H   H5865     1.0  0.73823  0.88935  0.47970  1.0000
  C   C3675     1.0  0.78060  0.84263  0.35646  1.0000
  C   C3676     1.0  0.78672  0.83169  0.37324  1.0000
  H   H5866     1.0  0.90386  0.75983  0.45720  1.0000
  N   N368      1.0  0.90244  0.75008  0.47396  1.0000
  H   H5867     1.0  0.92550  0.67111  0.38795  1.0000
  C   C3677     1.0  0.92242  0.68765  0.39865  1.0000
  C   C3678     1.0  0.91165  0.74083  0.47066  1.0000
  H   H5868     1.0  0.71337  0.98371  0.42935  1.0000
  H   H5869     1.0  0.76315  0.88959  0.46788  1.0000
  H   H5870     1.0  0.67516  0.85965  0.33495  1.0000
  S   S1472     1.0  0.67231  0.89273  0.35035  1.0000
  H   H5871     1.0  0.66934  0.92000  0.41918  1.0000
  H   H5872     1.0  0.66848  0.93064  0.38903  1.0000
  N   N369      1.0  0.74878  0.90146  0.47429  1.0000
  C   C3679     1.0  0.75626  0.89639  0.46502  1.0000
  H   H5873     1.0  0.92684  0.67753  0.41885  1.0000
  H   H5874     1.0  0.91804  0.74389  0.46337  1.0000
  H   H5875     1.0  0.70199  0.98764  0.42205  1.0000
  H   H5876     1.0  0.91609  0.73635  0.47754  1.0000
  H   H5877     1.0  0.73603  0.98285  0.40383  1.0000
  H   H5878     1.0  0.90844  0.73461  0.46825  1.0000
  C   C3680     1.0  0.67007  0.86760  0.33658  1.0000
  H   H5879     1.0  0.67023  0.89766  0.31765  1.0000
  H   H5880     1.0  0.67520  0.90749  0.29212  1.0000
  H   H5881     1.0  0.99001  0.73218  0.41037  1.0000
  H   H5882     1.0  0.99334  0.73925  0.39608  1.0000
  C   C3681     1.0  0.88211  0.66514  0.34381  1.0000
  H   H5883     1.0  0.67324  0.88351  0.31608  1.0000
  H   H5884     1.0  0.89292  0.65882  0.24685  1.0000
  H   H5885     1.0  0.93298  0.66393  0.41575  1.0000
  H   H5886     1.0  0.93228  0.66021  0.39774  1.0000
  Fe  Fe737     1.0  0.94878  0.77130  0.59232  1.0000
  S   S1473     1.0  0.93697  0.75983  0.60113  1.0000
  S   S1474     1.0  0.94351  0.78774  0.58096  1.0000
  Fe  Fe738     1.0  0.96875  0.75538  0.60121  1.0000
  S   S1475     1.0  0.95843  0.74242  0.61048  1.0000
  Fe  Fe739     1.0  0.95117  0.74655  0.59518  1.0000
  S   S1476     1.0  0.94806  0.73385  0.58745  1.0000
  Fe  Fe740     1.0  0.94521  0.75696  0.61543  1.0000
  S   S1477     1.0  0.93478  0.75704  0.63267  1.0000
  S   S1478     1.0  0.96264  0.75814  0.58541  1.0000
  S   S1479     1.0  0.95591  0.76970  0.60723  1.0000
  Fe  Fe741     1.0  0.90741  0.73368  0.52729  1.0000
  S   S1480     1.0  0.90322  0.75121  0.52998  1.0000
  S   S1481     1.0  0.91460  0.72943  0.51024  1.0000
  Fe  Fe742     1.0  0.90075  0.72390  0.55176  1.0000
  S   S1482     1.0  0.89581  0.74037  0.55678  1.0000
  S   S1483     1.0  0.89799  0.70816  0.56415  1.0000
  Fe  Fe743     1.0  0.88785  0.74651  0.54199  1.0000
  S   S1484     1.0  0.87110  0.75829  0.54207  1.0000
  Fe  Fe744     1.0  0.91150  0.74403  0.54468  1.0000
  S   S1485     1.0  0.91994  0.75492  0.54979  1.0000
  S   S1486     1.0  0.89121  0.72962  0.53801  1.0000
  S   S1487     1.0  0.91734  0.72683  0.54090  1.0000
  C   C3682     1.0  0.73825  0.92675  0.60892  1.0000
  Fe  Fe745     1.0  0.90442  0.70986  0.64253  1.0000
  S   S1488     1.0  0.91108  0.69311  0.63798  1.0000
  S   S1489     1.0  0.91237  0.71509  0.65361  1.0000
  Fe  Fe746     1.0  0.88489  0.71574  0.63090  1.0000
  S   S1490     1.0  0.88971  0.69944  0.62528  1.0000
  S   S1491     1.0  0.87024  0.72920  0.62623  1.0000
  Fe  Fe747     1.0  0.89297  0.69168  0.64256  1.0000
  S   S1492     1.0  0.88627  0.67652  0.65324  1.0000
  Fe  Fe748     1.0  0.90732  0.70220  0.62123  1.0000
  S   S1493     1.0  0.92012  0.70113  0.60527  1.0000
  S   S1494     1.0  0.88654  0.70785  0.64847  1.0000
  S   S1495     1.0  0.90225  0.71911  0.62542  1.0000
  Fe  Fe749     1.0  0.85956  0.81137  0.59408  1.0000
  S   S1496     1.0  0.85340  0.79586  0.60394  1.0000
  S   S1497     1.0  0.85047  0.82943  0.59286  1.0000
  Fe  Fe750     1.0  0.88101  0.79824  0.58166  1.0000
  S   S1498     1.0  0.87671  0.78161  0.59011  1.0000
  S   S1499     1.0  0.89599  0.80096  0.56789  1.0000
  Fe  Fe751     1.0  0.85922  0.78997  0.58780  1.0000
  S   S1500     1.0  0.84764  0.78333  0.58174  1.0000
  Fe  Fe752     1.0  0.87141  0.78879  0.60551  1.0000
  S   S1501     1.0  0.87744  0.77793  0.62071  1.0000
  S   S1502     1.0  0.86401  0.80595  0.57779  1.0000
  S   S1503     1.0  0.87714  0.80488  0.59718  1.0000
  Fe  Fe753     1.0  0.70113  0.90938  0.64035  1.0000
  S   S1504     1.0  0.68626  0.90224  0.64162  1.0000
  S   S1505     1.0  0.71597  0.89979  0.64788  1.0000
  Fe  Fe754     1.0  0.69249  0.93124  0.62576  1.0000
  H   H5887     1.0  0.70421  0.88407  0.68488  1.0000
  S   S1506     1.0  0.69644  0.94748  0.61555  1.0000
  H   H5888     1.0  0.99301  0.78532  0.60813  1.0000
  H   H5889     1.0  0.71046  0.93169  0.58596  1.0000
  Fe  Fe755     1.0  0.68848  0.90972  0.62323  1.0000
  S   S1507     1.0  0.68824  0.90022  0.61072  1.0000
  S   S1508     1.0  0.69095  0.92578  0.64417  1.0000
  S   S1509     1.0  0.70414  0.91550  0.62185  1.0000
  Fe  Fe756     1.0  0.78210  0.87723  0.58854  1.0000
  S   S1510     1.0  0.79492  0.87555  0.59858  1.0000
  S   S1511     1.0  0.78458  0.88367  0.57004  1.0000
  Fe  Fe757     1.0  0.76399  0.87154  0.60865  1.0000
  S   S1512     1.0  0.77502  0.86912  0.62066  1.0000
  S   S1513     1.0  0.74560  0.87118  0.61258  1.0000
  Fe  Fe758     1.0  0.78050  0.88454  0.60977  1.0000
  S   S1514     1.0  0.78116  0.89807  0.61774  1.0000
  Fe  Fe759     1.0  0.78860  0.86015  0.60865  1.0000
  S   S1515     1.0  0.79940  0.84403  0.61604  1.0000
  S   S1516     1.0  0.76833  0.88775  0.59878  1.0000
  S   S1517     1.0  0.77697  0.86103  0.59764  1.0000
  Fe  Fe760     1.0  0.76036  0.98121  0.58749  1.0000
  S   S1518     1.0  0.74282  0.97824  0.59357  1.0000
  Fe  Fe761     1.0  0.77013  0.95688  0.58651  1.0000
  S   S1519     1.0  0.75348  0.95190  0.59269  1.0000
  S   S1520     1.0  0.78472  0.94303  0.58214  1.0000
  Fe  Fe762     1.0  0.74719  0.96748  0.58103  1.0000
  S   S1521     1.0  0.73354  0.96671  0.57304  1.0000
  Fe  Fe763     1.0  0.75030  0.96291  0.60474  1.0000
  S   S1522     1.0  0.74057  0.95743  0.62201  1.0000
  S   S1523     1.0  0.76416  0.97179  0.57368  1.0000
  S   S1524     1.0  0.76766  0.96653  0.59980  1.0000
  Fe  Fe764     1.0  0.71322  0.91933  0.54951  1.0000
  S   S1525     1.0  0.72930  0.91469  0.55559  1.0000
  S   S1526     1.0  0.69578  0.92386  0.55972  1.0000
  Fe  Fe765     1.0  0.72484  0.91584  0.52604  1.0000
  S   S1527     1.0  0.74203  0.91075  0.53010  1.0000
  S   S1528     1.0  0.72140  0.91899  0.50872  1.0000
  Fe  Fe766     1.0  0.73370  0.90099  0.54617  1.0000
  S   S1529     1.0  0.74052  0.88386  0.55519  1.0000
  Fe  Fe767     1.0  0.73621  0.92492  0.53915  1.0000
  S   S1530     1.0  0.74828  0.93567  0.53793  1.0000
  S   S1531     1.0  0.71699  0.90476  0.54136  1.0000
  S   S1532     1.0  0.71967  0.93091  0.53383  1.0000
  H   H5890     1.0  0.69565  0.90848  0.66327  1.0000
  C   C3683     1.0  0.71862  0.90892  0.50313  1.0000
  C   C3684     1.0  0.71906  0.89783  0.50886  1.0000
  C   C3685     1.0  0.71679  0.89012  0.50400  1.0000
  H   H5891     1.0  0.93494  0.69645  0.62168  1.0000
  H   H5892     1.0  0.91948  0.65848  0.66966  1.0000
  S   S1533     1.0  0.98737  0.75088  0.60134  1.0000
  H   H5893     1.0  0.72121  0.89516  0.51699  1.0000
  H   H5894     1.0  0.71715  0.88153  0.50843  1.0000
  H   H5895     1.0  0.74033  0.97969  0.63758  1.0000
  C   C3686     1.0  0.73779  0.95837  0.56303  1.0000
  C   C3687     1.0  0.74906  0.95559  0.55774  1.0000
  C   C3688     1.0  0.75214  0.94895  0.54971  1.0000
  C   C3689     1.0  0.74405  0.94465  0.54737  1.0000
  C   C3690     1.0  0.73279  0.94735  0.55274  1.0000
  C   C3691     1.0  0.72966  0.95445  0.56033  1.0000
  H   H5896     1.0  0.75535  0.95877  0.55962  1.0000
  H   H5897     1.0  0.76081  0.94711  0.54535  1.0000
  H   H5898     1.0  0.72649  0.94421  0.55083  1.0000
  H   H5899     1.0  0.72095  0.95700  0.56413  1.0000
  C   C3692     1.0  0.90382  0.69138  0.52523  1.0000
  C   C3693     1.0  0.77285  0.88311  0.56536  1.0000
  C   C3694     1.0  0.76564  0.87603  0.57180  1.0000
  C   C3695     1.0  0.75602  0.87594  0.56834  1.0000
  C   C3696     1.0  0.75320  0.88336  0.55873  1.0000
  C   C3697     1.0  0.76039  0.89046  0.55224  1.0000
  C   C3698     1.0  0.77038  0.89009  0.55539  1.0000
  H   H5900     1.0  0.76753  0.87049  0.57937  1.0000
  H   H5901     1.0  0.75067  0.87024  0.57326  1.0000
  H   H5902     1.0  0.75836  0.89608  0.54470  1.0000
  H   H5903     1.0  0.77607  0.89537  0.55021  1.0000
  C   C3699     1.0  0.78261  0.91050  0.60791  1.0000
  C   C3700     1.0  0.78780  0.91026  0.59678  1.0000
  C   C3701     1.0  0.78884  0.92028  0.58901  1.0000
  C   C3702     1.0  0.78415  0.93057  0.59219  1.0000
  C   C3703     1.0  0.77885  0.93079  0.60330  1.0000
  C   C3704     1.0  0.77836  0.92076  0.61120  1.0000
  H   H5904     1.0  0.79121  0.90236  0.59421  1.0000
  H   H5905     1.0  0.79316  0.92009  0.58048  1.0000
  H   H5906     1.0  0.77536  0.93871  0.60583  1.0000
  H   H5907     1.0  0.77455  0.92095  0.61985  1.0000
  C   C3705     1.0  0.70854  0.95017  0.61770  1.0000
  C   C3706     1.0  0.71521  0.95615  0.60880  1.0000
  C   C3707     1.0  0.72503  0.95827  0.61017  1.0000
  C   C3708     1.0  0.72808  0.95480  0.62054  1.0000
  C   C3709     1.0  0.72135  0.94887  0.62953  1.0000
  C   C3710     1.0  0.71166  0.94640  0.62806  1.0000
  H   H5908     1.0  0.71291  0.95905  0.60074  1.0000
  H   H5909     1.0  0.73017  0.96263  0.60311  1.0000
  H   H5910     1.0  0.72367  0.94612  0.63757  1.0000
  H   H5911     1.0  0.70647  0.94184  0.63500  1.0000
  C   C3711     1.0  0.69031  0.90782  0.59690  1.0000
  C   C3712     1.0  0.70106  0.90944  0.59103  1.0000
  C   C3713     1.0  0.70290  0.91415  0.57954  1.0000
  C   C3714     1.0  0.69391  0.91761  0.57401  1.0000
  C   C3715     1.0  0.68312  0.91639  0.58001  1.0000
  C   C3716     1.0  0.68137  0.91132  0.59136  1.0000
  H   H5912     1.0  0.70800  0.90670  0.59529  1.0000
  H   H5913     1.0  0.71122  0.91522  0.57501  1.0000
  H   H5914     1.0  0.67613  0.91910  0.57581  1.0000
  H   H5915     1.0  0.68052  0.94665  0.58875  1.0000
  C   C3717     1.0  0.72424  0.89109  0.63877  1.0000
  C   C3718     1.0  0.73589  0.88774  0.63796  1.0000
  C   C3719     1.0  0.74255  0.88170  0.62986  1.0000
  C   C3720     1.0  0.73752  0.87871  0.62280  1.0000
  C   C3721     1.0  0.72584  0.88186  0.62382  1.0000
  C   C3722     1.0  0.71924  0.88813  0.63168  1.0000
  H   H5916     1.0  0.73980  0.89001  0.64343  1.0000
  H   H5917     1.0  0.75155  0.87925  0.62918  1.0000
  H   H5918     1.0  0.72186  0.87956  0.61847  1.0000
  H   H5919     1.0  0.71025  0.89062  0.63227  1.0000
  C   C3723     1.0  0.83623  0.83319  0.59928  1.0000
  C   C3724     1.0  0.82968  0.84324  0.59458  1.0000
  C   C3725     1.0  0.81830  0.84654  0.59951  1.0000
  C   C3726     1.0  0.81349  0.83995  0.60937  1.0000
  C   C3727     1.0  0.82004  0.82991  0.61410  1.0000
  C   C3728     1.0  0.83137  0.82649  0.60902  1.0000
  H   H5920     1.0  0.83341  0.84844  0.58702  1.0000
  H   H5921     1.0  0.81327  0.85420  0.59571  1.0000
  H   H5922     1.0  0.81635  0.82478  0.62173  1.0000
  H   H5923     1.0  0.83641  0.81880  0.61277  1.0000
  C   C3729     1.0  0.87170  0.74274  0.62569  1.0000
  C   C3730     1.0  0.88023  0.74442  0.62984  1.0000
  C   C3731     1.0  0.88178  0.75527  0.62859  1.0000
  C   C3732     1.0  0.87497  0.76445  0.62295  1.0000
  C   C3733     1.0  0.86638  0.76278  0.61891  1.0000
  C   C3734     1.0  0.86459  0.75197  0.62050  1.0000
  H   H5924     1.0  0.88557  0.73738  0.63411  1.0000
  H   H5925     1.0  0.88835  0.75652  0.63185  1.0000
  H   H5926     1.0  0.86101  0.76984  0.61466  1.0000
  H   H5927     1.0  0.85786  0.75075  0.61745  1.0000
  H   H5928     1.0  0.71613  0.94414  0.58138  1.0000
  H   H5929     1.0  0.75193  0.97597  0.61952  1.0000
  H   H5930     1.0  0.68343  0.88560  0.69244  1.0000
  C   C3735     1.0  0.93498  0.71771  0.61109  1.0000
  N   N370      1.0  0.94412  0.70967  0.61600  1.0000
  H   H5931     1.0  0.73136  0.98142  0.62178  1.0000
  C   C3736     1.0  0.69376  0.90990  0.52850  1.0000
  H   H5932     1.0  0.72387  0.89308  0.58401  1.0000
  H   H5933     1.0  0.93503  0.70966  0.63290  1.0000
  H   H5934     1.0  0.70506  0.95116  0.56586  1.0000
  H   H5935     1.0  0.88434  0.69614  0.53991  1.0000
  C   C3737     1.0  0.94321  0.71116  0.62737  1.0000
  H   H5936     1.0  0.68266  0.89976  0.69316  1.0000
  N   N371      1.0  0.90220  0.69537  0.53558  1.0000
  H   H5937     1.0  0.73679  0.88301  0.58470  1.0000
  C   C3738     1.0  0.86471  0.76455  0.55363  1.0000
  C   C3739     1.0  0.87047  0.76384  0.56191  1.0000
  C   C3740     1.0  0.86535  0.76969  0.57054  1.0000
  C   C3741     1.0  0.85432  0.77592  0.57111  1.0000
  C   C3742     1.0  0.84845  0.77631  0.56305  1.0000
  C   C3743     1.0  0.85369  0.77078  0.55426  1.0000
  H   H5938     1.0  0.87891  0.75899  0.56157  1.0000
  H   H5939     1.0  0.86986  0.76930  0.57682  1.0000
  H   H5940     1.0  0.83990  0.78105  0.56349  1.0000
  H   H5941     1.0  0.84917  0.77131  0.54793  1.0000
  C   C3744     1.0  0.90437  0.70602  0.57545  1.0000
  C   C3745     1.0  0.91288  0.71157  0.57459  1.0000
  C   C3746     1.0  0.91785  0.70986  0.58373  1.0000
  C   C3747     1.0  0.91411  0.70285  0.59382  1.0000
  C   C3748     1.0  0.90550  0.69741  0.59472  1.0000
  C   C3749     1.0  0.90071  0.69891  0.58550  1.0000
  H   H5942     1.0  0.91574  0.71709  0.56687  1.0000
  H   H5943     1.0  0.92450  0.71409  0.58303  1.0000
  H   H5944     1.0  0.90261  0.69194  0.60248  1.0000
  H   H5945     1.0  0.89410  0.69464  0.58621  1.0000
  C   C3750     1.0  0.90715  0.72313  0.50453  1.0000
  C   C3751     1.0  0.89588  0.72257  0.50916  1.0000
  C   C3752     1.0  0.89008  0.71785  0.50415  1.0000
  N   N372      1.0  0.68766  0.92147  0.52506  1.0000
  H   H5946     1.0  0.70543  0.88675  0.59129  1.0000
  C   C3753     1.0  0.89047  0.70154  0.53845  1.0000
  H   H5947     1.0  0.89155  0.72595  0.51646  1.0000
  H   H5948     1.0  0.88138  0.71739  0.50778  1.0000
  N   N373      1.0  0.81321  0.86961  0.62389  1.0000
  C   C3754     1.0  0.92838  0.74551  0.63826  1.0000
  C   C3755     1.0  0.92586  0.74002  0.63132  1.0000
  C   C3756     1.0  0.92059  0.73089  0.63599  1.0000
  C   C3757     1.0  0.91819  0.72701  0.64756  1.0000
  C   C3758     1.0  0.92079  0.73249  0.65446  1.0000
  C   C3759     1.0  0.92570  0.74183  0.64983  1.0000
  H   H5949     1.0  0.92786  0.74287  0.62237  1.0000
  H   H5950     1.0  0.91862  0.72672  0.63064  1.0000
  H   H5951     1.0  0.91895  0.72955  0.66341  1.0000
  H   H5952     1.0  0.92764  0.74607  0.65521  1.0000
  C   C3760     1.0  0.93002  0.79126  0.57790  1.0000
  C   C3761     1.0  0.92719  0.80116  0.57025  1.0000
  C   C3762     1.0  0.91672  0.80405  0.56723  1.0000
  C   C3763     1.0  0.90884  0.79728  0.57215  1.0000
  C   C3764     1.0  0.91157  0.78743  0.57991  1.0000
  C   C3765     1.0  0.92223  0.78434  0.58263  1.0000
  H   H5953     1.0  0.93314  0.80657  0.56657  1.0000
  H   H5954     1.0  0.91463  0.81167  0.56122  1.0000
  H   H5955     1.0  0.90556  0.78207  0.58360  1.0000
  H   H5956     1.0  0.92440  0.77659  0.58831  1.0000
  C   C3766     1.0  0.93898  0.73927  0.57798  1.0000
  C   C3767     1.0  0.93796  0.73258  0.57126  1.0000
  C   C3768     1.0  0.93157  0.73714  0.56296  1.0000
  C   C3769     1.0  0.92624  0.74843  0.56133  1.0000
  C   C3770     1.0  0.92674  0.75493  0.56845  1.0000
  C   C3771     1.0  0.93307  0.75036  0.57675  1.0000
  H   H5957     1.0  0.94240  0.72395  0.57225  1.0000
  H   H5958     1.0  0.93118  0.73204  0.55753  1.0000
  H   H5959     1.0  0.92238  0.76359  0.56745  1.0000
  H   H5960     1.0  0.93360  0.75552  0.58201  1.0000
  H   H5961     1.0  0.88841  0.70881  0.53166  1.0000
  N   N374      1.0  0.82259  0.81094  0.58758  1.0000
  C   C3772     1.0  0.81385  0.82097  0.58966  1.0000
  C   C3773     1.0  0.83309  0.81438  0.58084  1.0000
  C   C3774     1.0  0.81875  0.80472  0.58148  1.0000
  C   C3775     1.0  0.82470  0.80370  0.59832  1.0000
  H   H5962     1.0  0.80587  0.81872  0.59496  1.0000
  H   H5963     1.0  0.81192  0.82657  0.58174  1.0000
  H   H5964     1.0  0.81663  0.82594  0.59403  1.0000
  H   H5965     1.0  0.83646  0.81879  0.58532  1.0000
  H   H5966     1.0  0.83976  0.80705  0.57887  1.0000
  H   H5967     1.0  0.83177  0.82012  0.57280  1.0000
  H   H5968     1.0  0.82516  0.79706  0.57986  1.0000
  H   H5969     1.0  0.81719  0.80988  0.57327  1.0000
  H   H5970     1.0  0.81082  0.80201  0.58631  1.0000
  H   H5971     1.0  0.83121  0.79602  0.59705  1.0000
  H   H5972     1.0  0.81695  0.80100  0.60368  1.0000
  H   H5973     1.0  0.82776  0.80807  0.60309  1.0000
  N   N375      1.0  0.77092  0.91968  0.56511  1.0000
  C   C3776     1.0  0.77006  0.93089  0.56702  1.0000
  C   C3777     1.0  0.78273  0.91503  0.56027  1.0000
  C   C3778     1.0  0.76373  0.92056  0.55731  1.0000
  C   C3779     1.0  0.76716  0.91225  0.57579  1.0000
  H   H5974     1.0  0.76125  0.93475  0.57053  1.0000
  H   H5975     1.0  0.77301  0.93668  0.55916  1.0000
  H   H5976     1.0  0.77528  0.93055  0.57294  1.0000
  H   H5977     1.0  0.78590  0.92051  0.55226  1.0000
  H   H5978     1.0  0.78838  0.91404  0.56602  1.0000
  H   H5979     1.0  0.78365  0.90665  0.55858  1.0000
  H   H5980     1.0  0.76380  0.91228  0.55593  1.0000
  H   H5981     1.0  0.76661  0.92576  0.54901  1.0000
  H   H5982     1.0  0.75482  0.92440  0.56047  1.0000
  H   H5983     1.0  0.76766  0.90374  0.57459  1.0000
  H   H5984     1.0  0.75830  0.91552  0.57967  1.0000
  H   H5985     1.0  0.77250  0.91129  0.58183  1.0000
  N   N376      1.0  0.91057  0.78223  0.61792  1.0000
  C   C3780     1.0  0.90990  0.77165  0.61558  1.0000
  C   C3781     1.0  0.92219  0.78407  0.61376  1.0000
  C   C3782     1.0  0.90733  0.78156  0.63009  1.0000
  C   C3783     1.0  0.90283  0.79160  0.61229  1.0000
  H   H5986     1.0  0.90127  0.76996  0.61878  1.0000
  H   H5987     1.0  0.91570  0.76442  0.61966  1.0000
  H   H5988     1.0  0.91206  0.77183  0.60650  1.0000
  H   H5989     1.0  0.92493  0.78465  0.60460  1.0000
  H   H5990     1.0  0.92300  0.79193  0.61549  1.0000
  H   H5991     1.0  0.92828  0.77717  0.61779  1.0000
  H   H5992     1.0  0.91303  0.77453  0.63455  1.0000
  H   H5993     1.0  0.89860  0.78012  0.63347  1.0000
  H   H5994     1.0  0.90770  0.78937  0.63225  1.0000
  H   H5995     1.0  0.89395  0.79062  0.61537  1.0000
  H   H5996     1.0  0.90488  0.79216  0.60312  1.0000
  H   H5997     1.0  0.90323  0.79973  0.61375  1.0000
  N   N377      1.0  0.89274  0.78500  0.54534  1.0000
  C   C3784     1.0  0.89418  0.77311  0.54522  1.0000
  C   C3785     1.0  0.88332  0.78805  0.55452  1.0000
  C   C3786     1.0  0.89024  0.79193  0.53461  1.0000
  C   C3787     1.0  0.90324  0.78685  0.54696  1.0000
  H   H5998     1.0  0.88667  0.77144  0.54345  1.0000
  H   H5999     1.0  0.89568  0.76765  0.55334  1.0000
  H   H6000     1.0  0.90154  0.77046  0.53872  1.0000
  H   H6001     1.0  0.88494  0.78305  0.56277  1.0000
  H   H6002     1.0  0.88200  0.79700  0.55484  1.0000
  H   H6003     1.0  0.87528  0.78667  0.55358  1.0000
  H   H6004     1.0  0.89716  0.78983  0.52749  1.0000
  H   H6005     1.0  0.88907  0.80098  0.53443  1.0000
  H   H6006     1.0  0.88237  0.79064  0.53315  1.0000
  H   H6007     1.0  0.90506  0.78211  0.55523  1.0000
  H   H6008     1.0  0.90267  0.79583  0.54660  1.0000
  H   H6009     1.0  0.91060  0.78410  0.54049  1.0000
  N   N378      1.0  0.94954  0.77454  0.55066  1.0000
  C   C3788     1.0  0.96144  0.77211  0.54482  1.0000
  C   C3789     1.0  0.94537  0.78675  0.54933  1.0000
  C   C3790     1.0  0.94867  0.76943  0.56262  1.0000
  C   C3791     1.0  0.94270  0.76987  0.54595  1.0000
  H   H6010     1.0  0.96482  0.76295  0.54579  1.0000
  H   H6011     1.0  0.96681  0.77553  0.54822  1.0000
  H   H6012     1.0  0.96247  0.77582  0.53575  1.0000
  H   H6013     1.0  0.94628  0.79102  0.54040  1.0000
  H   H6014     1.0  0.93631  0.78881  0.55338  1.0000
  H   H6015     1.0  0.94998  0.79046  0.55333  1.0000
  H   H6016     1.0  0.93988  0.77143  0.56740  1.0000
  H   H6017     1.0  0.95394  0.77262  0.56633  1.0000
  H   H6018     1.0  0.95147  0.76018  0.56408  1.0000
  H   H6019     1.0  0.94348  0.77321  0.53683  1.0000
  H   H6020     1.0  0.93362  0.77189  0.54991  1.0000
  H   H6021     1.0  0.94524  0.76059  0.54730  1.0000
  H   H6022     1.0  0.72801  0.88696  0.59721  1.0000
  H   H6023     1.0  0.94369  0.69685  0.60806  1.0000
  H   H6024     1.0  0.80613  0.85497  0.63118  1.0000
  H   H6025     1.0  0.87724  0.73772  0.57715  1.0000
  H   H6026     1.0  0.69561  0.95916  0.59334  1.0000
  C   C3792     1.0  0.91002  0.70282  0.53387  1.0000
  H   H6027     1.0  0.91328  0.68096  0.54302  1.0000
  H   H6028     1.0  0.74664  0.90455  0.61292  1.0000
  H   H6029     1.0  0.95603  0.72026  0.60836  1.0000
  N   N379      1.0  0.88924  0.68990  0.68119  1.0000
  C   C3793     1.0  0.88581  0.67901  0.68469  1.0000
  C   C3794     1.0  0.89852  0.68979  0.67127  1.0000
  C   C3795     1.0  0.89308  0.69200  0.69032  1.0000
  C   C3796     1.0  0.87955  0.69883  0.67842  1.0000
  H   H6030     1.0  0.87920  0.67857  0.69247  1.0000
  H   H6031     1.0  0.89306  0.67195  0.68618  1.0000
  H   H6032     1.0  0.88231  0.67749  0.67819  1.0000
  H   H6033     1.0  0.90129  0.69789  0.66836  1.0000
  H   H6034     1.0  0.90598  0.68313  0.67299  1.0000
  H   H6035     1.0  0.89590  0.68825  0.66422  1.0000
  H   H6036     1.0  0.89584  0.70011  0.68785  1.0000
  H   H6037     1.0  0.70083  0.93809  0.57048  1.0000
  C   C3797     1.0  0.67576  0.92263  0.53098  1.0000
  H   H6038     1.0  0.88191  0.70715  0.67540  1.0000
  H   H6039     1.0  0.87244  0.69934  0.68576  1.0000
  H   H6040     1.0  0.87633  0.69732  0.67170  1.0000
  H   H6041     1.0  0.79871  0.86533  0.62166  1.0000
  H   H6042     1.0  0.90229  0.69847  0.51809  1.0000
  H   H6043     1.0  0.93550  0.71691  0.60243  1.0000
  C   C3798     1.0  0.80347  0.86415  0.62823  1.0000
  C   C3799     1.0  0.72788  0.88522  0.58912  1.0000
  H   H6044     1.0  0.68881  0.91327  0.67593  1.0000
  H   H6045     1.0  0.71876  0.88166  0.57417  1.0000
  H   H6046     1.0  0.72360  0.85871  0.59862  1.0000
  C   C3800     1.0  0.94318  0.69818  0.61651  1.0000
  C   C3801     1.0  0.69282  0.92926  0.52790  1.0000
  S   S1534     1.0  0.67691  0.92610  0.62549  1.0000
  H   H6047     1.0  0.67500  0.92081  0.54018  1.0000
  N   N380      1.0  0.72190  0.87614  0.59081  1.0000
  C   C3802     1.0  0.72217  0.87393  0.57988  1.0000
  C   C3803     1.0  0.72748  0.86591  0.59766  1.0000
  H   H6048     1.0  0.71719  0.86760  0.58076  1.0000
  H   H6049     1.0  0.73660  0.86355  0.59390  1.0000
  C   C3804     1.0  0.82073  0.86485  0.61444  1.0000
  H   H6050     1.0  0.70910  0.89351  0.67234  1.0000
  H   H6051     1.0  0.82685  0.87166  0.62983  1.0000
  C   C3805     1.0  0.99375  0.75872  0.60655  1.0000
  H   H6052     1.0  0.94379  0.71979  0.62729  1.0000
  H   H6053     1.0  0.90839  0.71030  0.52715  1.0000
  H   H6054     1.0  0.82369  0.85565  0.61695  1.0000
  H   H6055     1.0  0.89796  0.68585  0.52615  1.0000
  C   C3806     1.0  0.69863  0.94677  0.57178  1.0000
  N   N381      1.0  0.69815  0.94699  0.58346  1.0000
  H   H6056     1.0  0.73092  0.87074  0.57562  1.0000
  H   H6057     1.0  0.70950  0.88193  0.60450  1.0000
  H   H6058     1.0  0.91894  0.69853  0.53147  1.0000
  H   H6059     1.0  0.81631  0.88620  0.61682  1.0000
  C   C3807     1.0  0.71008  0.87948  0.59654  1.0000
  C   C3808     1.0  0.68835  0.92407  0.51289  1.0000
  C   C3809     1.0  0.70885  0.94054  0.58669  1.0000
  H   H6060     1.0  0.81634  0.86630  0.60750  1.0000
  H   H6061     1.0  0.79748  0.86761  0.63526  1.0000
  C   C3810     1.0  0.95510  0.71163  0.60900  1.0000
  H   H6062     1.0  0.69723  0.92350  0.50822  1.0000
  H   H6063     1.0  0.95003  0.70529  0.63131  1.0000
  H   H6064     1.0  0.70547  0.87261  0.59857  1.0000
  H   H6065     1.0  0.88898  0.70477  0.54618  1.0000
  H   H6066     1.0  0.94995  0.69185  0.62012  1.0000
  H   H6067     1.0  0.72695  0.86707  0.60616  1.0000
  H   H6068     1.0  0.67308  0.91000  0.59584  1.0000
  C   C3811     1.0  0.70233  0.89278  0.68003  1.0000
  H   H6069     1.0  0.91256  0.68661  0.52285  1.0000
  H   H6070     1.0  0.89874  0.67994  0.54637  1.0000
  H   H6071     1.0  0.80454  0.88354  0.61329  1.0000
  H   H6072     1.0  0.68854  0.96386  0.58191  1.0000
  H   H6073     1.0  0.69041  0.95079  0.56933  1.0000
  C   C3812     1.0  0.91252  0.71902  0.49483  1.0000
  H   H6074     1.0  0.90034  0.68533  0.69262  1.0000
  H   H6075     1.0  0.75443  0.90437  0.62290  1.0000
  C   C3813     1.0  0.90447  0.68576  0.54482  1.0000
  H   H6076     1.0  0.90325  0.68858  0.55274  1.0000
  C   C3814     1.0  0.80921  0.88175  0.62008  1.0000
  H   H6077     1.0  0.93532  0.72649  0.61067  1.0000
  C   C3815     1.0  0.91102  0.65814  0.66958  1.0000
  H   H6078     1.0  0.95598  0.71068  0.60032  1.0000
  H   H6079     1.0  0.67380  0.89686  0.68585  1.0000
  H   H6080     1.0  0.70872  0.94053  0.59547  1.0000
  S   S1535     1.0  0.88802  0.70799  0.48822  1.0000
  C   C3816     1.0  0.89539  0.71402  0.49427  1.0000
  H   H6081     1.0  0.67165  0.91678  0.52910  1.0000
  H   H6082     1.0  0.92659  0.71629  0.61597  1.0000
  H   H6083     1.0  0.90917  0.70581  0.54158  1.0000
  H   H6084     1.0  0.75802  0.91189  0.60888  1.0000
  H   H6085     1.0  0.80332  0.88560  0.62693  1.0000
  C   C3817     1.0  0.75081  0.90975  0.61569  1.0000
  C   C3818     1.0  0.68875  0.94194  0.59082  1.0000
  C   C3819     1.0  0.98973  0.77018  0.60608  1.0000
  C   C3820     1.0  0.68897  0.90723  0.67092  1.0000
  C   C3821     1.0  0.73351  0.91665  0.62783  1.0000
  H   H6086     1.0  0.89020  0.72778  0.60689  1.0000
  H   H6087     1.0  0.73660  0.91155  0.63542  1.0000
  H   H6088     1.0  0.75995  0.98599  0.61891  1.0000
  H   H6089     1.0  0.89380  0.71832  0.59763  1.0000
  C   C3822     1.0  0.90531  0.66602  0.66179  1.0000
  H   H6090     1.0  0.73230  0.93451  0.61093  1.0000
  H   H6091     1.0  0.68486  0.91815  0.51037  1.0000
  H   H6092     1.0  0.87935  0.74699  0.60155  1.0000
  H   H6093     1.0  0.74283  0.93361  0.62562  1.0000
  C   C3823     1.0  0.99601  0.77641  0.60880  1.0000
  C   C3824     1.0  0.88714  0.72511  0.60078  1.0000
  H   H6094     1.0  0.87304  0.75062  0.58963  1.0000
  H   H6095     1.0  0.96223  0.70574  0.61241  1.0000
  H   H6096     1.0  0.87969  0.72145  0.60546  1.0000
  Fe  Fe768     1.0  0.67613  0.91926  0.64383  1.0000
  C   C3825     1.0  0.87588  0.74358  0.59628  1.0000
  N   N382      1.0  0.88433  0.73455  0.59161  1.0000
  H   H6097     1.0  0.88587  0.72401  0.58031  1.0000
  C   C3826     1.0  0.87967  0.73076  0.58407  1.0000
  H   H6098     1.0  0.86830  0.74050  0.60163  1.0000
  H   H6099     1.0  0.89854  0.74121  0.59101  1.0000
  H   H6100     1.0  0.92128  0.71928  0.49129  1.0000
  C   C3827     1.0  0.89460  0.73874  0.58540  1.0000
  H   H6101     1.0  0.87202  0.72739  0.58861  1.0000
  H   H6102     1.0  0.90104  0.73224  0.58146  1.0000
  H   H6103     1.0  0.89273  0.74618  0.57871  1.0000
  H   H6104     1.0  0.75311  0.92126  0.62917  1.0000
  H   H6105     1.0  0.75514  0.92994  0.61541  1.0000
  C   C3828     1.0  0.74875  0.92643  0.62239  1.0000
  H   H6106     1.0  0.72724  0.92407  0.63025  1.0000
  H   H6107     1.0  0.73358  0.92213  0.60602  1.0000
  H   H6108     1.0  0.81397  0.87112  0.64009  1.0000
  H   H6109     1.0  0.82255  0.85857  0.63586  1.0000
  H   H6110     1.0  0.98199  0.77432  0.60326  1.0000
  H   H6111     1.0  0.82829  0.86862  0.61102  1.0000
  N   N383      1.0  0.74284  0.91989  0.61870  1.0000
  H   H6112     1.0  0.72892  0.91162  0.62536  1.0000
  H   H6113     1.0  0.74504  0.92934  0.60183  1.0000
  C   C3829     1.0  0.81942  0.86766  0.63282  1.0000
  H   H6114     1.0  0.68836  0.93808  0.52560  1.0000
  H   H6115     1.0  0.69272  0.92738  0.53699  1.0000
  C   C3830     1.0  0.90662  0.71467  0.48959  1.0000
  H   H6116     1.0  0.69720  0.88875  0.66247  1.0000
  H   H6117     1.0  0.68977  0.93317  0.59010  1.0000
  C   C3831     1.0  0.74090  0.98864  0.63451  1.0000
  H   H6118     1.0  0.74829  0.98975  0.63704  1.0000
  C   C3832     1.0  0.71584  0.91224  0.49261  1.0000
  C   C3833     1.0  0.71434  0.89339  0.49330  1.0000
  H   H6119     1.0  0.69238  0.87910  0.67488  1.0000
  H   H6120     1.0  0.70300  0.89848  0.68504  1.0000
  N   N384      1.0  0.69110  0.89558  0.67726  1.0000
  H   H6121     1.0  0.90940  0.67233  0.65590  1.0000
  H   H6122     1.0  0.70282  0.90884  0.52442  1.0000
  H   H6123     1.0  0.68370  0.93268  0.51001  1.0000
  C   C3834     1.0  0.69075  0.88797  0.67040  1.0000
  H   H6124     1.0  0.88627  0.69226  0.69793  1.0000
  C   C3835     1.0  0.68240  0.89438  0.68764  1.0000
  H   H6125     1.0  0.70353  0.96259  0.57944  1.0000
  C   C3836     1.0  0.89427  0.66583  0.66179  1.0000
  C   C3837     1.0  0.69637  0.95867  0.58456  1.0000
  H   H6126     1.0  0.68241  0.88983  0.66814  1.0000
  H   H6127     1.0  0.68819  0.94180  0.59973  1.0000
  C   C3838     1.0  0.71386  0.90449  0.48763  1.0000
  H   H6128     1.0  0.68076  0.90954  0.66828  1.0000
  H   H6129     1.0  0.69324  0.90757  0.53767  1.0000
  H   H6130     1.0  0.71530  0.92085  0.48820  1.0000
  S   S1536     1.0  0.71193  0.88350  0.48721  1.0000
  H   H6131     1.0  0.69037  0.90377  0.52618  1.0000
  H   H6132     1.0  0.75334  0.98729  0.60765  1.0000
  H   H6133     1.0  0.73832  0.89630  0.49021  1.0000
  C   C3839     1.0  0.75226  0.98499  0.61687  1.0000
  H   H6134     1.0  0.70176  0.92873  0.52342  1.0000
  H   H6135     1.0  0.89705  0.74125  0.49065  1.0000
  H   H6136     1.0  0.67088  0.93126  0.52855  1.0000
  C   C3840     1.0  0.88916  0.65742  0.66935  1.0000
  H   H6137     1.0  0.77701  0.99011  0.59925  1.0000
  H   H6138     1.0  0.75019  0.88573  0.48608  1.0000
  H   H6139     1.0  0.74995  0.91010  0.48625  1.0000
  H   H6140     1.0  0.88063  0.65720  0.66937  1.0000
  H   H6141     1.0  0.88635  0.75220  0.48533  1.0000
  H   H6142     1.0  0.91078  0.75302  0.48531  1.0000
  H   H6143     1.0  0.69290  0.66188  0.90220  1.0000
  H   H6144     1.0  0.69875  0.66259  0.91337  1.0000
