data_image0
_chemical_formula_structural       FeS2FeS2FeSFeS3FeS2FeS2FeSFeS3FeS2FeS2FeSFeS3FeS2FeS2FeSFeS3FeS2FeS2FeSFeS3FeS2FeS2FeSFeS3FeS2FeS2FeSFeS3FeS2FeS2FeSFeS3FeS2FeS2FeSFeS3FeS2FeS2FeSFeS3FeS2FeS2FeSFeS3FeS2FeS2FeSFeS3FeS2FeS2FeSFeS3FeS2FeS2FeSFeS3FeS2FeS2FeSFeS3FeS2FeS2FeSFeS3FeS2FeS2FeSFeS3FeS2FeS2FeSFeS3FeS2FeS2FeSFeS3FeS2FeS2FeSFeS3FeS2FeS2FeSFeS3FeS2FeS2FeSFeS3FeS2FeS2FeSFeS3FeS2FeS2FeSFeS3C6H4C6H4C6H4C6H4C6H4C6H4C6H4C6H4C6H4C6H4C6H4C6H4C6H4C6H4C6H4C6H4C6H4C6H4C6H4C6H4C6H4C6H4C6H4C6H4C6H4C6H4C6H4C6H4C6H4C6H4C6H4C6H4C6H4C6H4C6H4C6H4C6H4C6H4C6H4C6H4C6H4C6H4C6H4C6H4C6H4C6H4C6H4C6H4NC4H12NC4H12NC4H12NC4H12NC4H12NC4H12NC4H12NC4H12NC4H12NC4H12NC4H12NC4H12NC4H12NC4H12NC4H12NC4H12NC4H12NC4H12NC4H12NC4H12NC4H12NC4H12NC4H12NC4H12NC4H12NC4H12NC4H12NC4H12NC4H12NC4H12NC4H12NC4H12NC4H12NC4H12NC4H12NC4H12NC4H12NC4H12NC4H12NC4H12NC4H12NC4H12NC4H12NC4H12NC4H12NC4H12NC4H12NC4H12
_chemical_formula_sum              "Fe96 S192 C480 H768 N48"
_cell_length_a       40.88075098634162
_cell_length_b       41.11517186871452
_cell_length_c       54.06214994205658
_cell_angle_alpha    88.09649169661367
_cell_angle_beta     88.38499570385228
_cell_angle_gamma    84.07948281540732

_space_group_name_H-M_alt    "P 1"
_space_group_IT_number       1

loop_
  _space_group_symop_operation_xyz
  'x, y, z'

loop_
  _atom_site_type_symbol
  _atom_site_label
  _atom_site_symmetry_multiplicity
  _atom_site_fract_x
  _atom_site_fract_y
  _atom_site_fract_z
  _atom_site_occupancy
  Fe  Fe1       1.0  0.5139270966376144  0.2168741475121349  0.6820638161929933  1.0000
  S   S1        1.0  0.48714253603242624  0.17929665401732126  0.6639504916087622  1.0000
  S   S2        1.0  0.5353368822980948  0.26059581747088  0.6650399065004235  1.0000
  Fe  Fe2       1.0  0.5152755537931586  0.18211596529521995  0.7320263047881328  1.0000
  S   S3        1.0  0.48927585797193834  0.1408438474863338  0.7190704857634505  1.0000
  S   S4        1.0  0.529731310098717  0.18580854445066822  0.771477807932248  1.0000
  Fe  Fe3       1.0  0.5214645814122243  0.14320673945284323  0.6850861648935844  1.0000
  S   S5        1.0  0.5457588304777686  0.09678488509656973  0.6698337569329171  1.0000
  Fe  Fe4       1.0  0.4567477939839384  0.17995407849730252  0.6993291864599578  1.0000
  S   S6        1.0  0.40277888386052135  0.17426502998318263  0.702528257664263  1.0000
  S   S7        1.0  0.5510721542590137  0.18041869803670135  0.7000081846707827  1.0000
  S   S8        1.0  0.48002453268885964  0.22145730672646396  0.7152540867321633  1.0000
  Fe  Fe5       1.0  0.2774241849145179  0.09316719371328333  0.8493285066495835  1.0000
  S   S9        1.0  0.2911089169375624  0.03914132121925699  0.8452692560730964  1.0000
  S   S10       1.0  0.23376980626710442  0.11677928235727363  0.8706078955499161  1.0000
  Fe  Fe6       1.0  0.341480074412258  0.11149449934020052  0.8251981677554894  1.0000
  S   S11       1.0  0.3601389062053629  0.05927348940800244  0.8188264350314371  1.0000
  S   S12       1.0  0.37609984334549984  0.14969781981647784  0.8167591331719914  1.0000
  Fe  Fe7       1.0  0.3089270197960751  0.0541760993440277  0.8072865343296713  1.0000
  S   S13       1.0  0.30393151099326177  0.027965331082639544  0.7721329028379655  1.0000
  Fe  Fe8       1.0  0.34084260051766574  0.04971014123100847  0.8573072644488731  1.0000
  S   S14       1.0  0.3722227157543044  0.02104401567833225  0.885632285524505  1.0000
  S   S15       1.0  0.2914999268565059  0.10760150839479056  0.810280786532079  1.0000
  S   S16       1.0  0.325761352358671  0.10236053489568604  0.8645654961821978  1.0000
  Fe  Fe9       1.0  0.576524134720833  0.9835954333628946  0.8526446914463286  1.0000
  S   S17       1.0  0.5591722796922647  0.030518607640992235  0.8328224763702268  1.0000
  S   S18       1.0  0.5588810373332123  0.9366874703053303  0.8409582863963494  1.0000
  Fe  Fe10      1.0  0.6136276202816965  0.01701497871145108  0.8901859849762901  1.0000
  S   S19       1.0  0.6003164548825276  0.06714859453635769  0.8735881330229488  1.0000
  S   S20       1.0  0.6395259424801673  0.009252759071899153  0.9263430325722007  1.0000
  Fe  Fe11      1.0  0.5501060919082841  0.050741657826394615  0.8705488289382546  1.0000
  S   S21       1.0  0.5054759794478663  0.08605417493968659  0.8770179975193108  1.0000
  Fe  Fe12      1.0  0.6106454909277768  0.04306677793854896  0.8371627047018654  1.0000
  S   S22       1.0  0.6322284730126082  0.06750136805234014  0.8035824507083965  1.0000
  S   S23       1.0  0.5621378709434449  0.002563922684726494  0.8902034136445492  1.0000
  S   S24       1.0  0.6292060761788342  0.9940045382705717  0.8539552328555423  1.0000
  Fe  Fe13      1.0  0.515010923348448  0.9200699892045733  0.7117252711131419  1.0000
  S   S25       1.0  0.4888999801029402  0.8759269333973098  0.7217820872534089  1.0000
  S   S26       1.0  0.5648894446828916  0.9291150255241426  0.7246592223698267  1.0000
  Fe  Fe14      1.0  0.457329132223478  0.9536043528331856  0.683738145187826  1.0000
  S   S27       1.0  0.4259026767269824  0.9128571101135456  0.6916859396150112  1.0000
  S   S28       1.0  0.43721688712241613  0.9995420530535448  0.6636065576260256  1.0000
  Fe  Fe15      1.0  0.44564297675832787  0.9125375492167594  0.7299280008190487  1.0000
  S   S29       1.0  0.4165119736230046  0.9112873246983186  0.765699619861778  1.0000
  Fe  Fe16      1.0  0.47191615886108257  0.8803015777541935  0.6824849655438089  1.0000
  S   S30       1.0  0.4675268956758015  0.8365333289709889  0.6591156054094972  1.0000
  S   S31       1.0  0.47303258899320055  0.956362133055384  0.7227840345287959  1.0000
  S   S32       1.0  0.502018918305348  0.921382871209477  0.6716123285808319  1.0000
  Fe  Fe17      1.0  0.11747984651743269  0.5242468264838899  0.6535851821813411  1.0000
  S   S33       1.0  0.06932047359770581  0.5560667691844068  0.654282921375734  1.0000
  S   S34       1.0  0.14672966852292366  0.5105689714975425  0.6188520409492506  1.0000
  Fe  Fe18      1.0  0.11399305749899354  0.5071435159600625  0.7085397202616306  1.0000
  S   S35       1.0  0.06601593607090095  0.5377476452022045  0.7142152370535854  1.0000
  S   S36       1.0  0.13762011765026022  0.4771185721256415  0.7400526799446486  1.0000
  Fe  Fe19      1.0  0.051504777094224304  0.5163893388708285  0.6791341547941879  1.0000
  S   S37       1.0  0.0028656297765286  0.4955049528637663  0.6793881249072624  1.0000
  Fe  Fe20      1.0  0.0881480505669609  0.5745258998130897  0.6893032770123837  1.0000
  S   S38       1.0  0.08003101245850655  0.6266292386315291  0.7007198377688761  1.0000
  S   S39       1.0  0.09785811580110344  0.4827691074347241  0.6752338007685105  1.0000
  S   S40       1.0  0.1378259372248556  0.5459564586564838  0.6867454483844995  1.0000
  Fe  Fe21      1.0  0.014242237843002048  0.40668955673734153  0.8278637881940448  1.0000
  S   S41       1.0  0.972929019935255  0.3817769898981284  0.8454568199855794  1.0000
  S   S42       1.0  0.02148208937026097  0.4035970283925116  0.7867437986823218  1.0000
  Fe  Fe22      1.0  0.02758399481445095  0.4397011842717592  0.875083616336086  1.0000
  S   S43       1.0  0.9872040820156842  0.4179948274476295  0.8966826047649193  1.0000
  S   S44       1.0  0.0567914411698176  0.4763769253204498  0.8915037615123235  1.0000
  Fe  Fe23      1.0  0.006106956615380632  0.3718968262093971  0.8776348815091363  1.0000
  S   S45       1.0  0.005141037658276115  0.3222563666996731  0.8961769446632037  1.0000
  Fe  Fe24      1.0  0.957940214191275  0.4299349938009052  0.8625562003557714  1.0000
  S   S46       1.0  0.9061241789284791  0.4540208254509912  0.8630727856144886  1.0000
  S   S47       1.0  0.04935868210899952  0.3925595334756468  0.8585291158876266  1.0000
  S   S48       1.0  0.9966881364499286  0.45580217211703894  0.8425505784566085  1.0000
  Fe  Fe25      1.0  0.043630366330469794  0.6498114442629941  0.8359380237275771  1.0000
  S   S49       1.0  0.029625807533193882  0.703363847103237  0.8287776343538757  1.0000
  S   S50       1.0  0.08432366826267892  0.6179670950653239  0.817278899128208  1.0000
  Fe  Fe26      1.0  0.9885525291279526  0.6436272717070985  0.8741372089831727  1.0000
  S   S51       1.0  0.9687910208011582  0.6963533659206623  0.8700718679689501  1.0000
  S   S52       1.0  0.965070558797601  0.6082158450030888  0.8997369382491421  1.0000
  Fe  Fe27      1.0  0.9779944995286537  0.6892405933987286  0.8294626084892736  1.0000
  S   S53       1.0  0.9423648741813981  0.705651133838093  0.7997878851163424  1.0000
  Fe  Fe28      1.0  0.0219502316058533  0.7058427170551071  0.8700687389739001  1.0000
  S   S54       1.0  0.04340970707720859  0.7418991377463993  0.8938240639481616  1.0000
  S   S55       1.0  0.9926183824748187  0.6353941720145985  0.8334374929620552  1.0000
  S   S56       1.0  0.04098720240010122  0.6533269812903887  0.8772032031943363  1.0000
  Fe  Fe29      1.0  0.8387947813969642  0.5254840033029018  0.7453882163138625  1.0000
  S   S57       1.0  0.7957411951215251  0.5494744523152897  0.766884927750985  1.0000
  S   S58       1.0  0.8624942826195758  0.47433944836220626  0.7519149270111996  1.0000
  Fe  Fe30      1.0  0.8517391211396023  0.5871885685713698  0.7169204314236592  1.0000
  S   S59       1.0  0.8108091370065642  0.6176571009465148  0.7359469870272439  1.0000
  S   S60       1.0  0.88593734928181  0.6072097518591248  0.6885576471965819  1.0000
  Fe  Fe31      1.0  0.8273672359201935  0.5901786752510666  0.7704895187588233  1.0000
  S   S61       1.0  0.829182890690595  0.6131133175149225  0.8072464097580864  1.0000
  Fe  Fe32      1.0  0.7818886898279054  0.5751069140582501  0.7309033860513648  1.0000
  S   S62       1.0  0.7296038468182576  0.5904835737329074  0.7211286156268313  1.0000
  S   S63       1.0  0.8717961554178986  0.564239876528984  0.7522189345236399  1.0000
  S   S64       1.0  0.8214819764482202  0.5466692697568697  0.7085024361309044  1.0000
  Fe  Fe33      1.0  0.46631910045463976  0.8142758190349174  0.5258727763775054  1.0000
  S   S65       1.0  0.4163250179717656  0.7967158519616897  0.5254668800279221  1.0000
  S   S66       1.0  0.4741558084617357  0.8615965353854399  0.5430756257883077  1.0000
  Fe  Fe34      1.0  0.4999358886445104  0.751824343510541  0.5044563401238245  1.0000
  S   S67       1.0  0.45274983592681406  0.7289137058265901  0.5022803541271555  1.0000
  S   S68       1.0  0.5467330022603177  0.7207038588778242  0.49567243515769677  1.0000
  Fe  Fe35      1.0  0.4324645739632794  0.7783113410432569  0.4880488559494082  1.0000
  S   S69       1.0  0.39748164876556497  0.7839678702516548  0.4566888579087479  1.0000
  Fe  Fe36      1.0  0.4417323038127596  0.7492902701877903  0.5398523045079958  1.0000
  S   S70       1.0  0.4206520853787991  0.7211699963012057  0.5716591146597103  1.0000
  S   S71       1.0  0.4807345703834719  0.8001115016350627  0.4870146055683542  1.0000
  S   S72       1.0  0.49049711611950586  0.7682266843840176  0.5431527085565359  1.0000
  Fe  Fe37      1.0  0.6715150780037881  0.543937962704613  0.6001822198624547  1.0000
  S   S73       1.0  0.6896672094973769  0.532844496000361  0.5615542114969048  1.0000
  S   S74       1.0  0.6930285186259312  0.5103774426814874  0.6303678695957724  1.0000
  Fe  Fe38      1.0  0.6296249962547423  0.6052960938226462  0.5842295377770074  1.0000
  S   S75       1.0  0.6444821929301998  0.5998595672515812  0.5443194338856239  1.0000
  S   S76       1.0  0.5963669817763356  0.6497697660984196  0.5949046142292018  1.0000
  Fe  Fe39      1.0  0.6374141903848696  0.5471194624498612  0.5512469673723392  1.0000
  S   S77       1.0  0.6129907419736804  0.5214339612113854  0.5219862429817416  1.0000
  Fe  Fe40      1.0  0.6951582050167432  0.5862857537736662  0.5581745404127728  1.0000
  S   S78       1.0  0.7404792804320394  0.6032449385295451  0.5398712173789988  1.0000
  S   S79       1.0  0.6182382304275804  0.5533087431446616  0.5902924784721304  1.0000
  S   S80       1.0  0.6813525625918377  0.5965957247376826  0.5976229100760847  1.0000
  Fe  Fe41      1.0  0.31071666695362854  0.5479240985576194  0.5711358960418763  1.0000
  S   S81       1.0  0.28241103643009696  0.5305504783142245  0.5401163861271541  1.0000
  S   S82       1.0  0.2920411732760566  0.5491082392772112  0.6106158171247628  1.0000
  Fe  Fe42      1.0  0.36762966753094134  0.5643361814741292  0.5376440866842116  1.0000
  S   S83       1.0  0.34411582086093284  0.5493398162726285  0.5034384458704781  1.0000
  S   S84       1.0  0.41913712776863377  0.578796898378636  0.5342977269359894  1.0000
  Fe  Fe43      1.0  0.2976285834336621  0.5748604807919343  0.5192248315283142  1.0000
  S   S85       1.0  0.26229097175840216  0.6068858083607942  0.49554911364061593  1.0000
  Fe  Fe44      1.0  0.33136368106815917  0.5064289112609651  0.5270988509428217  1.0000
  S   S86       1.0  0.3392751460553445  0.45438429521847773  0.5152212306761351  1.0000
  S   S87       1.0  0.32218604172697013  0.5944635593822477  0.5513067655877197  1.0000
  S   S88       1.0  0.35834905546562956  0.5195163306516277  0.5602059850150928  1.0000
  Fe  Fe45      1.0  0.4922386649224379  0.3344440136443122  0.5451327641603417  1.0000
  S   S89       1.0  0.5424487999101032  0.3072372977694781  0.5432800501704773  1.0000
  S   S90       1.0  0.4550644814219539  0.3216877968477784  0.5742794278173501  1.0000
  Fe  Fe46      1.0  0.505161056356026  0.3761370446403602  0.49944376670761825  1.0000
  S   S91       1.0  0.556360143928341  0.3518367134016441  0.4931037506736733  1.0000
  S   S92       1.0  0.48569114358296755  0.421581529590576  0.4783552409708945  1.0000
  Fe  Fe47      1.0  0.5336975413796261  0.30531206284210405  0.5026606732211653  1.0000
  S   S93       1.0  0.5453718418810332  0.255707638975747  0.48640700227397804  1.0000
  Fe  Fe48      1.0  0.5601246638744367  0.35600755723909777  0.5341439030126273  1.0000
  S   S94       1.0  0.6027888738647946  0.3736273400260715  0.5530117206169172  1.0000
  S   S95       1.0  0.4819225595056058  0.32915310281333887  0.5051411589966265  1.0000
  S   S96       1.0  0.5105497393530304  0.383622836830642  0.5398880528432951  1.0000
  Fe  Fe49      1.0  0.34052941673204057  0.04995520429623419  0.19762558091154583  1.0000
  S   S97       1.0  0.33622869922814186  0.10331897446792807  0.1874795495942259  1.0000
  S   S98       1.0  0.3071367975133297  0.02883949902459349  0.22592444296008773  1.0000
  Fe  Fe50      1.0  0.3957935635401404  0.03336208651812189  0.16045400632674575  1.0000
  S   S99       1.0  0.39681927300066017  0.08550123304749213  0.14694436489523016  1.0000
  S   S100      1.0  0.4307267346523842  0.9908305895018376  0.1485460335843866  1.0000
  Fe  Fe51      1.0  0.3912712635321384  0.09707818283000919  0.18716208047799673  1.0000
  S   S101      1.0  0.42261343316031086  0.13133278003422902  0.20441956525276572  1.0000
  Fe  Fe52      1.0  0.3417532144969323  0.08674170292698292  0.14831597636969718  1.0000
  S   S102      1.0  0.3075813731419443  0.11348644769563447  0.12087991198512983  1.0000
  S   S103      1.0  0.3952385679804532  0.044828404966355644  0.2006702128242194  1.0000
  S   S104      1.0  0.3411859837851131  0.033479003353467984  0.15855779996965985  1.0000
  Fe  Fe53      1.0  0.4593313220604064  0.8737745883239392  0.34660463764435445  1.0000
  S   S105      1.0  0.4054108708780612  0.8896119669879414  0.3440523394774074  1.0000
  S   S106      1.0  0.48074990976317666  0.8259564133898121  0.3636345706256041  1.0000
  Fe  Fe54      1.0  0.47887191292770254  0.9388018629391637  0.325036474105751  1.0000
  S   S107      1.0  0.4264583370666091  0.9603146303873484  0.3215789341354115  1.0000
  S   S108      1.0  0.5182563801521614  0.9719923785781093  0.315168830982909  1.0000
  Fe  Fe55      1.0  0.41865036248026427  0.9364508921553678  0.35888389052610686  1.0000
  S   S109      1.0  0.39131774207080544  0.9591466312856162  0.39146318537987135  1.0000
  Fe  Fe56      1.0  0.4186597755750096  0.9114743870818267  0.30700336972068154  1.0000
  S   S110      1.0  0.3897617209438319  0.9056729344964689  0.2730829897663989  1.0000
  S   S111      1.0  0.4718070720060028  0.9195735850408411  0.36388107490103494  1.0000
  S   S112      1.0  0.47158684084799535  0.8910932384936472  0.30799967272328205  1.0000
  Fe  Fe57      1.0  0.5911735255449501  0.003802513206376812  0.18889060501909088  1.0000
  S   S113      1.0  0.5534945816115442  0.04415812733289476  0.17748002344052125  1.0000
  S   S114      1.0  0.5718478797605097  0.95843782018901  0.20524848765526038  1.0000
  Fe  Fe58      1.0  0.6472441253946211  0.03982729875278604  0.16840892726695847  1.0000
  S   S115      1.0  0.6142576013091098  0.08369979842956149  0.1551991254690755  1.0000
  S   S116      1.0  0.7018766357567525  0.03223870670168538  0.1613292489838719  1.0000
  Fe  Fe59      1.0  0.5876138247793948  0.07778545922565316  0.19169724392114837  1.0000
  S   S117      1.0  0.5604920269463946  0.12122297068526115  0.2100941158164093  1.0000
  Fe  Fe60      1.0  0.5828083190198137  0.04671043455502367  0.14214481741505564  1.0000
  S   S118      1.0  0.5546686247629832  0.05370997044875895  0.10711754480620973  1.0000
  S   S119      1.0  0.6234944929552001  0.037017688765043445  0.20640558749084514  1.0000
  S   S120      1.0  0.617718765107982  0.0031529602396678236  0.1520224788599564  1.0000
  Fe  Fe61      1.0  0.4729701327291061  0.18587355833691788  0.3739151475089187  1.0000
  S   S121      1.0  0.4294621085195976  0.15769445940953286  0.3815483068374408  1.0000
  S   S122      1.0  0.47466592832237803  0.2375320791548504  0.38599766267425495  1.0000
  Fe  Fe62      1.0  0.5094986642147731  0.1320345260826842  0.3439395441607825  1.0000
  S   S123      1.0  0.46917377886583084  0.09947579121794994  0.348635642738428  1.0000
  S   S124      1.0  0.5574814625885823  0.11164319603208937  0.3268368433871811  1.0000
  Fe  Fe63      1.0  0.43534025711794455  0.14486003038122966  0.3415694722154411  1.0000
  S   S125      1.0  0.3912595420722547  0.13858717575804924  0.31907883726885733  1.0000
  Fe  Fe64      1.0  0.4671224133532841  0.11491094718379616  0.38798750153420564  1.0000
  S   S126      1.0  0.4638417422713195  0.07969923538867808  0.4202375824623748  1.0000
  S   S127      1.0  0.47600627493707093  0.17657631913475072  0.33309564337092656  1.0000
  S   S128      1.0  0.5102871701761873  0.1440044652339095  0.38389901223934997  1.0000
  Fe  Fe65      1.0  0.9855341956183469  0.3691401865432772  0.22535725749150143  1.0000
  S   S129      1.0  0.006706812832387721  0.4139289439596697  0.20986429842043516  1.0000
  S   S130      1.0  0.994808375411404  0.32320616843694433  0.2037242385972543  1.0000
  Fe  Fe66      1.0  0.9593015730747153  0.40227845420766545  0.27219016389587697  1.0000
  S   S131      1.0  0.9778271786260433  0.4499308174706708  0.2605458185899061  1.0000
  S   S132      1.0  0.9367515136979393  0.3996309998270676  0.3105608127797309  1.0000
  Fe  Fe67      1.0  0.9591915683325195  0.4402905228528576  0.22332528940507257  1.0000
  S   S133      1.0  0.9328021143399796  0.4826113618774802  0.20231230675662423  1.0000
  Fe  Fe68      1.0  0.02354589845908328  0.4193645911002091  0.2484455439842194  1.0000
  S   S134      1.0  0.07207412838810434  0.4363371651110911  0.25774337675665304  1.0000
  S   S135      1.0  0.9361416305874004  0.39505719628007113  0.23575391531767484  1.0000
  S   S136      1.0  0.0066946515855486055  0.3720590120288136  0.2629308277036274  1.0000
  Fe  Fe69      1.0  0.7933505582242923  0.5561689900056935  0.40728386808143274  1.0000
  S   S137      1.0  0.8198422328604368  0.5083665512021489  0.39563868622637505  1.0000
  S   S138      1.0  0.7463591288134693  0.5550669829344386  0.4300956131313174  1.0000
  Fe  Fe70      1.0  0.8390140593094834  0.5962845540871131  0.3772596339632318  1.0000
  S   S139      1.0  0.869782841541324  0.5522817651451357  0.36313984510967734  1.0000
  S   S140      1.0  0.8532895409875957  0.6460645068780154  0.36592635313671174  1.0000
  Fe  Fe71      1.0  0.8217284462304355  0.5321717801406223  0.3578760272787407  1.0000
  S   S141      1.0  0.8153544876172434  0.5060574740579827  0.3227732162709765  1.0000
  Fe  Fe72      1.0  0.865698558177821  0.5321244110866179  0.401936880106021  1.0000
  S   S142      1.0  0.9100215010809903  0.5021133236298977  0.41721442732417935  1.0000
  S   S143      1.0  0.7909742526086453  0.578075681067276  0.36862538146549945  1.0000
  S   S144      1.0  0.8393794452345291  0.5781561617078882  0.4169542423236927  1.0000
  Fe  Fe73      1.0  0.9929679597667713  0.6407609428314108  0.22566764221769914  1.0000
  S   S145      1.0  0.01769972292229882  0.6846730144261075  0.23485140154032236  1.0000
  S   S146      1.0  0.023303361924863042  0.5958175180826808  0.2129446295515313  1.0000
  Fe  Fe74      1.0  0.9261445191565171  0.6698480040126988  0.24332309845555306  1.0000
  S   S147      1.0  0.9446171125527772  0.7166856297674711  0.25417149865694344  1.0000
  S   S148      1.0  0.875070992156163  0.6558490430117715  0.2502375003783384  1.0000
  Fe  Fe75      1.0  0.9735377695871141  0.7131898091795377  0.21825761343287886  1.0000
  S   S149      1.0  0.9810883219169235  0.7598546529502899  0.19680810836923876  1.0000
  Fe  Fe76      1.0  0.9870660223789293  0.6844142977172688  0.2697311466700782  1.0000
  S   S150      1.0  0.005977820480989047  0.6921700284159783  0.3073981446208254  1.0000
  S   S151      1.0  0.9511639351103984  0.6689714892228668  0.2057971535640879  1.0000
  S   S152      1.0  0.9661407457564929  0.6378394136564943  0.26213834600047925  1.0000
  Fe  Fe77      1.0  0.13904863185295627  0.5311699291180391  0.4134743796856099  1.0000
  S   S153      1.0  0.11928805615258334  0.5833605424620836  0.40546518184815467  1.0000
  S   S154      1.0  0.18490139498027125  0.5133610352890348  0.4338677505011244  1.0000
  Fe  Fe78      1.0  0.08717199707555574  0.5033195544384275  0.38339773769262603  1.0000
  S   S155      1.0  0.06393177344170432  0.5529875769161731  0.3720130383162277  1.0000
  S   S156      1.0  0.06275204811971147  0.4597674961635841  0.37238127196650284  1.0000
  Fe  Fe79      1.0  0.11534723646151479  0.5662407844318708  0.3668170496653736  1.0000
  S   S157      1.0  0.1301050170164134  0.593778808673165  0.3325956034237626  1.0000
  Fe  Fe80      1.0  0.06972672830481633  0.5648072549991418  0.4117342712857367  1.0000
  S   S158      1.0  0.02579452077840827  0.5893103316331376  0.4321471995116135  1.0000
  S   S159      1.0  0.13829670768774302  0.515212751808047  0.3741999064282008  1.0000
  S   S160      1.0  0.08996279092554037  0.5141230152595119  0.4235492720074635  1.0000
  Fe  Fe81      1.0  0.8442716487795333  0.06310253535782397  0.014499241174465105  1.0000
  S   S161      1.0  0.8192627662821725  0.038542045636494666  0.04633396433439496  1.0000
  S   S162      1.0  0.8956543904134325  0.07629919890677168  0.01990441077328864  1.0000
  Fe  Fe82      1.0  0.7858905578788926  0.06195398330201833  0.9809140729339474  1.0000
  S   S163      1.0  0.7560074162496646  0.03716442371566542  0.009881312386514685  1.0000
  S   S164      1.0  0.7688884978641725  0.0743097198642022  0.9422345637524615  1.0000
  Fe  Fe83      1.0  0.774753540861853  0.07206339374512481  0.035722206429091054  1.0000
  S   S165      1.0  0.7415186747516213  0.10292143763703247  0.061404946807528345  1.0000
  Fe  Fe84      1.0  0.8029541653893945  0.006027470017433867  0.01745694704527856  1.0000
  S   S166      1.0  0.8035514141759214  0.951389509239968  0.018613564477730105  1.0000
  S   S167      1.0  0.8010405655388605  0.09947652657509327  0.006152020711067907  1.0000
  S   S168      1.0  0.8317618850315014  0.027864972303076392  0.9864394034913119  1.0000
  Fe  Fe85      1.0  0.03112950639029588  0.8473279066606878  0.03256155421183471  1.0000
  S   S169      1.0  0.01062012743154872  0.8415579445208066  0.07112650100786555  1.0000
  S   S170      1.0  0.08029415561945641  0.8660221826554245  0.02530666531315595  1.0000
  Fe  Fe86      1.0  0.9733070161698464  0.822002807006924  0.00882904381117311  1.0000
  S   S171      1.0  0.9473791442991936  0.8138069418300405  0.045221862744879715  1.0000
  S   S172      1.0  0.9479105176867665  0.8115177805044668  0.9740921037031117  1.0000
  Fe  Fe87      1.0  0.962948698543749  0.862260138507923  0.05474513648789525  1.0000
  S   S173      1.0  0.9301199243615118  0.898836633372093  0.07630537281580296  1.0000
  Fe  Fe88      1.0  0.9968348045460059  0.7934556598595601  0.05865350498624772  1.0000
  S   S174      1.0  0.9993628485337672  0.7462464896543045  0.08110931597739272  1.0000
  S   S175      1.0  0.9845732819575992  0.8727214761544418  0.01711859494214174  1.0000
  S   S176      1.0  0.02168082505939828  0.7970908140957575  0.021275397893363523  1.0000
  Fe  Fe89      1.0  0.9405371148179787  0.2899437326556465  0.07691646602578807  1.0000
  S   S177      1.0  0.9953648896659267  0.27930483885863083  0.07385081848893131  1.0000
  S   S178      1.0  0.9138204481877856  0.3202703720044686  0.10654181093235698  1.0000
  Fe  Fe90      1.0  0.9293796508574611  0.24899431387076884  0.03283845010342294  1.0000
  S   S179      1.0  0.9831405462404452  0.23521010979538495  0.02563021874158311  1.0000
  S   S180      1.0  0.8924588080787078  0.22969222189353847  0.008836059615163094  1.0000
  Fe  Fe91      1.0  0.9850097729663098  0.2281496900130828  0.06682617787816017  1.0000
  S   S181      1.0  0.013326954793459578  0.1840263043985928  0.08386076059641702  1.0000
  Fe  Fe92      1.0  0.9881577716131574  0.2877533127408578  0.033074438885217994  1.0000
  S   S182      1.0  0.021531273290724906  0.31913180855892676  0.011752286569099768  1.0000
  S   S183      1.0  0.9307038697117418  0.2375925908040556  0.07360082279222338  1.0000
  S   S184      1.0  0.933940452868876  0.3025041958102297  0.03653790365985569  1.0000
  Fe  Fe93      1.0  0.1648629808937756  0.040073808735703945  0.9810554693990027  1.0000
  S   S185      1.0  0.17324731808920077  0.004791114275734642  0.01302903294715052  1.0000
  S   S186      1.0  0.16789950944133378  0.01867032249311285  0.9434341876261058  1.0000
  Fe  Fe94      1.0  0.15284239267621755  0.0984526627642102  0.014014534529753542  1.0000
  S   S187      1.0  0.16085805513567122  0.06800686084273261  0.049049355350996866  1.0000
  S   S188      1.0  0.1364218395390473  0.15243678210965544  0.013091700598568012  1.0000
  Fe  Fe95      1.0  0.20323190327620141  0.04223089256908  0.027728214705555976  1.0000
  S   S189      1.0  0.2530606909235764  0.02415281550321491  0.04213992831087085  1.0000
  Fe  Fe96      1.0  0.13010521249205217  0.03369681416502356  0.03104405656895981  1.0000
  S   S190      1.0  0.0853447865188804  0.014425514303546771  0.049038233955176036  1.0000
  S   S191      1.0  0.19814316268589155  0.07563980492840007  0.9941192838423031  1.0000
  S   S192      1.0  0.11911297748628945  0.06595971127080581  0.9975337916975602  1.0000
  C   C1        1.0  0.05028452339432388  0.1766299226429735  0.06695853203284369  1.0000
  C   C2        1.0  0.06116549752997624  0.20100099445821185  0.051026673191651994  1.0000
  C   C3        1.0  0.08851600665378505  0.19378722635380166  0.035208438511060924  1.0000
  C   C4        1.0  0.10468728286381324  0.16210657089111583  0.03497856455159566  1.0000
  C   C5        1.0  0.09431244438281822  0.13807314508224544  0.05144758204458564  1.0000
  C   C6        1.0  0.06734275320960131  0.14537535959808917  0.0676151037648221  1.0000
  H   H1        1.0  0.04837405010487661  0.22537036814741745  0.05070934168271912  1.0000
  H   H2        1.0  0.09682501333136527  0.21264380409076625  0.02296001291865779  1.0000
  H   H3        1.0  0.10652184825896642  0.11360540095485813  0.051412864209824  1.0000
  H   H4        1.0  0.05891993114413302  0.12641445107278204  0.07984102656864557  1.0000
  C   C7        1.0  0.08162814202152491  0.9062558923038091  0.03464730425610241  1.0000
  C   C8        1.0  0.052794830201065394  0.9258664454628981  0.04099669491973579  1.0000
  C   C9        1.0  0.054175191948024205  0.9589149939863197  0.04628020451655135  1.0000
  C   C10       1.0  0.08433087454556688  0.9723479263752021  0.0450446786440708  1.0000
  C   C11       1.0  0.11324762614253177  0.9522808509648695  0.03985835771167175  1.0000
  C   C12       1.0  0.11190395611144877  0.9192851186697468  0.03469708206869343  1.0000
  H   H5        1.0  0.029521953319359796  0.9155573004294126  0.04168469705861266  1.0000
  H   H6        1.0  0.03192809706283972  0.9741487109886173  0.05110094546863597  1.0000
  H   H7        1.0  0.1367133702209712  0.9619917318610303  0.04022063071071025  1.0000
  H   H8        1.0  0.13434463450647469  0.9037940786123657  0.030755066074902828  1.0000
  C   C13       1.0  0.8966744757969479  0.11860189549777546  0.0154064912642915  1.0000
  C   C14       1.0  0.876315685576081  0.13604667310302615  0.9981525091522508  1.0000
  C   C15       1.0  0.8757282129037899  0.17015265303865967  0.9957314203442854  1.0000
  C   C16       1.0  0.8957214059567122  0.1868529248726992  0.010396265193750365  1.0000
  C   C17       1.0  0.9166214740688312  0.16932746476281588  0.027320780291612223  1.0000
  C   C18       1.0  0.9169480990623051  0.13524258246112858  0.029915676826859566  1.0000
  H   H9        1.0  0.8611108831487749  0.12328238078256203  0.9865126689861224  1.0000
  H   H10       1.0  0.8596083495967456  0.1836279483867292  0.9825710682895032  1.0000
  H   H11       1.0  0.9318952650205579  0.18211464206868247  0.03887288361637791  1.0000
  H   H12       1.0  0.932097278431544  0.12195350798368831  0.043737248020456025  1.0000
  C   C19       1.0  0.8357408596355378  0.9337744457890953  0.03688884128661285  1.0000
  C   C20       1.0  0.8447066431705407  0.9497866948280022  0.057666458745494475  1.0000
  C   C21       1.0  0.872648285200191  0.937584170587244  0.07072625054750081  1.0000
  C   C22       1.0  0.892127298687825  0.9098258343998876  0.0626380646050484  1.0000
  C   C23       1.0  0.8823393726381222  0.8928364953400428  0.04256693033125813  1.0000
  C   C24       1.0  0.8539538164043085  0.9047172016532227  0.02978598905640648  1.0000
  H   H13       1.0  0.8301265323652922  0.9716271988463714  0.06368601095197501  1.0000
  H   H14       1.0  0.879918366049791  0.950504367094043  0.08647093059553623  1.0000
  H   H15       1.0  0.8972686072384533  0.8713293200361649  0.03622300259419512  1.0000
  H   H16       1.0  0.8470059926163125  0.8921952270888897  0.013743821704883972  1.0000
  C   C25       1.0  0.041800724484150814  0.6665564198091593  0.31413771494273635  1.0000
  C   C26       1.0  0.04922331691330462  0.6585347089263567  0.3388371209724358  1.0000
  C   C27       1.0  0.07651706400427619  0.6363177868984887  0.3445416520104879  1.0000
  C   C28       1.0  0.09741704621790383  0.6233881641200474  0.32558597104074094  1.0000
  C   C29       1.0  0.09083176255813873  0.6325331006818479  0.30090661765084653  1.0000
  C   C30       1.0  0.0626403623641145  0.6535618896187982  0.2951564118568661  1.0000
  H   H17       1.0  0.033445130456273287  0.6689050244783655  0.3535913869015096  1.0000
  H   H18       1.0  0.08156844541301304  0.6294604485774815  0.36366016620837055  1.0000
  H   H19       1.0  0.10701945166683689  0.6226785602995746  0.28620044331094346  1.0000
  H   H20       1.0  0.057255631002478706  0.6598469589258342  0.2760639747435186  1.0000
  C   C31       1.0  0.9890011525063647  0.7549543865937798  0.16498882449590507  1.0000
  C   C32       1.0  0.9970186085941746  0.7817885985314965  0.15027315520344528  1.0000
  C   C33       1.0  0.0011375302011096267  0.7790968214712731  0.12453695116255381  1.0000
  C   C34       1.0  0.997479009739493  0.7494775106919592  0.11345099265829377  1.0000
  C   C35       1.0  0.9906060975774045  0.7223291579027377  0.12830091519316172  1.0000
  C   C36       1.0  0.9863442439561704  0.7250582717886952  0.15402970656822584  1.0000
  H   H21       1.0  0.9996925474570262  0.804811561953158  0.15873112223711916  1.0000
  H   H22       1.0  0.007101783905033576  0.7999249132672811  0.11332859947774267  1.0000
  H   H23       1.0  0.9879723300273765  0.6992774451042644  0.11984137358450753  1.0000
  H   H24       1.0  0.9806049784835744  0.7040974169300692  0.1652435260693177  1.0000
  C   C37       1.0  0.9419077337608909  0.5259572333385134  0.42316796089761405  1.0000
  C   C38       1.0  0.9365472360562855  0.5540920040395957  0.43725701250568316  1.0000
  C   C39       1.0  0.9626921843888896  0.5730030309636247  0.4411159525512809  1.0000
  C   C40       1.0  0.9938610301889279  0.5640334738570926  0.4304724497354782  1.0000
  C   C41       1.0  0.999065221302903  0.5355280888438797  0.41697121621143735  1.0000
  C   C42       1.0  0.9732626333005674  0.5166510900120443  0.41334132825551323  1.0000
  H   H25       1.0  0.9123348947449917  0.5612618075690187  0.4451080205660001  1.0000
  H   H26       1.0  0.9585725951182958  0.5949017111653521  0.45180415270868535  1.0000
  H   H27       1.0  0.022933335014003964  0.5279469378215526  0.40902495332564526  1.0000
  H   H28       1.0  0.9776242732005479  0.49525849591672655  0.40235512586235334  1.0000
  C   C43       1.0  0.8558062098417152  0.6515266082889647  0.33362812352580834  1.0000
  C   C44       1.0  0.838887748543525  0.6327881039417854  0.31814661373227343  1.0000
  C   C45       1.0  0.843127039321324  0.6359300841039139  0.2923360825856569  1.0000
  C   C46       1.0  0.8657904618098812  0.6561933757956401  0.2821032909758333  1.0000
  C   C47       1.0  0.8825720208681714  0.6749564605225691  0.2976013380005339  1.0000
  C   C48       1.0  0.8768480023956616  0.673349166376671  0.3232496166837617  1.0000
  H   H29       1.0  0.8222508476550763  0.6162003344187655  0.32603400036121977  1.0000
  H   H30       1.0  0.8294497290522783  0.622105441402038  0.28031509578800196  1.0000
  H   H31       1.0  0.899683319344572  0.6910445906274816  0.2898437362326036  1.0000
  H   H32       1.0  0.8893461291467958  0.6885071507889569  0.3350364842843141  1.0000
  C   C49       1.0  0.9578908413874765  0.5146644397718696  0.20227349816505102  1.0000
  C   C50       1.0  0.9438223878687482  0.5471038414578746  0.20332394002373128  1.0000
  C   C51       1.0  0.9638630446025317  0.5723044654272244  0.20642773117632654  1.0000
  C   C52       1.0  0.9980498208926736  0.5652016402420434  0.20722900209848363  1.0000
  C   C53       1.0  0.012143590359720235  0.533029706388793  0.20470617421155712  1.0000
  C   C54       1.0  0.9920578532657022  0.5076948575705305  0.2028884342472435  1.0000
  H   H33       1.0  0.9174332692214028  0.5527097039297839  0.20251002417787273  1.0000
  H   H34       1.0  0.9528363283218947  0.5971824762998708  0.20812680384339047  1.0000
  H   H35       1.0  0.03860651656922731  0.5275365475113094  0.20487406288625262  1.0000
  H   H36       1.0  0.003181811029662862  0.48281448459792736  0.2019187660340948  1.0000
  C   C55       1.0  0.07232764170660722  0.4398389631495837  0.2899345068087258  1.0000
  C   C56       1.0  0.09684132632513309  0.455244621606985  0.3011833012618248  1.0000
  C   C57       1.0  0.09437898814646573  0.4613514571595203  0.3266687079175758  1.0000
  C   C58       1.0  0.06793294438924202  0.4511448385838269  0.340895070109833  1.0000
  C   C59       1.0  0.044393158329658844  0.43461435737601145  0.32969694660783455  1.0000
  C   C60       1.0  0.04632291876577965  0.42938097993530167  0.30432154472712075  1.0000
  H   H37       1.0  0.11719966696789386  0.4631185572465149  0.2901112112946976  1.0000
  H   H38       1.0  0.11294007428909529  0.47372994377155836  0.33528519317835104  1.0000
  H   H39       1.0  0.024079500081291005  0.4264161588515475  0.3403677596786098  1.0000
  H   H40       1.0  0.027344478154641916  0.41745788910115517  0.2959400475188772  1.0000
  C   C61       1.0  0.9012343815156095  0.4271450738753538  0.313879449330074  1.0000
  C   C62       1.0  0.8925900721478658  0.4396650026846154  0.33716222259573897  1.0000
  C   C63       1.0  0.8658707665454314  0.46347900954653715  0.33998062072383095  1.0000
  C   C64       1.0  0.8466117575548889  0.47382198323826763  0.3197235091018638  1.0000
  C   C65       1.0  0.8541455579489987  0.46014064522868536  0.29658681441977036  1.0000
  C   C66       1.0  0.8819468143009813  0.4373599573282491  0.29352739850492676  1.0000
  H   H41       1.0  0.9068197038763524  0.4315128385196864  0.3530139218337939  1.0000
  H   H42       1.0  0.8602172682503856  0.47380602206270095  0.3578889146796324  1.0000
  H   H43       1.0  0.8390451738584165  0.4678087656425182  0.280912410594032  1.0000
  H   H44       1.0  0.888203537546858  0.42741603673454176  0.2755412572338141  1.0000
  C   C67       1.0  0.971967212141538  0.3246184064233743  0.17680734453081526  1.0000
  C   C68       1.0  0.9376253417219285  0.32666570722023186  0.17812115363882774  1.0000
  C   C69       1.0  0.9198044451783337  0.32562105274355346  0.1563956545753964  1.0000
  C   C70       1.0  0.9363330359391664  0.3223503391049008  0.1334311563151977  1.0000
  C   C71       1.0  0.9706302656746704  0.3211328041674453  0.13213825452419453  1.0000
  C   C72       1.0  0.9884247434221358  0.3222395804546216  0.1538039002576133  1.0000
  H   H45       1.0  0.9248595318364798  0.32849845056842547  0.1959224697654151  1.0000
  H   H46       1.0  0.893225591670513  0.3268070886203982  0.15743954976956304  1.0000
  H   H47       1.0  0.9834334992266053  0.3199334482429412  0.11443214391969056  1.0000
  H   H48       1.0  0.0149829840315574  0.32133691568728856  0.15279045438737585  1.0000
  C   C73       1.0  0.5604053328978891  0.11891000319863741  0.2425248534856733  1.0000
  C   C74       1.0  0.5370952775126843  0.13910629109845613  0.25593341399256936  1.0000
  C   C75       1.0  0.5359545177766757  0.13689950251484123  0.28187389673911184  1.0000
  C   C76       1.0  0.5585607081072007  0.11491906642624246  0.29444893343066386  1.0000
  C   C77       1.0  0.5820935659250375  0.09498440605094316  0.2810638082483043  1.0000
  C   C78       1.0  0.5828238862561899  0.09676926981468587  0.25510928609040523  1.0000
  H   H49       1.0  0.519699836908588  0.15627666584454203  0.2462410152667801  1.0000
  H   H50       1.0  0.5177276678188358  0.15236760363526558  0.29204527191520424  1.0000
  H   H51       1.0  0.5996798988415385  0.07798736956465677  0.2907213067581405  1.0000
  H   H52       1.0  0.601094085162494  0.08138525770921327  0.24490432081269256  1.0000
  C   C79       1.0  0.71509280274999  0.05305593390106804  0.1346979443899695  1.0000
  C   C80       1.0  0.7379643116358371  0.03689874295314843  0.1183398461292026  1.0000
  C   C81       1.0  0.7466003721813035  0.05223332148433991  0.09587272634172024  1.0000
  C   C82       1.0  0.7328392408044133  0.0839946565704337  0.09000124359862632  1.0000
  C   C83       1.0  0.7108880458129834  0.10059998208542514  0.10675103544586675  1.0000
  C   C84       1.0  0.7017672066163592  0.08503477316214443  0.1289905369280257  1.0000
  H   H53       1.0  0.7483243320336121  0.012163177976920903  0.12277810173925763  1.0000
  H   H54       1.0  0.7635444724570634  0.03927167213580596  0.08303594008313646  1.0000
  H   H55       1.0  0.7002936927818556  0.1252347597643785  0.1022899673281837  1.0000
  H   H56       1.0  0.6844170704274675  0.09771987846711937  0.1417323622104228  1.0000
  C   C85       1.0  0.41122506372753115  0.9926753691095632  0.39958182243633505  1.0000
  C   C86       1.0  0.43429321961648326  0.004945222711608244  0.38317189514459743  1.0000
  C   C87       1.0  0.44997479191106693  0.03207261699200714  0.3893914046198701  1.0000
  C   C88       1.0  0.44346655983923416  0.04634883173766118  0.41231680710034885  1.0000
  C   C89       1.0  0.42089371339856774  0.033659387551280284  0.4289924509604294  1.0000
  C   C90       1.0  0.4042997897797398  0.00713634236504479  0.4224353258167925  1.0000
  H   H57       1.0  0.4400295183659323  0.9936742066765707  0.3656346443673007  1.0000
  H   H58       1.0  0.4676666869962373  0.04147415470684767  0.3766954762724861  1.0000
  H   H59       1.0  0.4158125630057517  0.044759390162818026  0.4467545056108688  1.0000
  H   H60       1.0  0.3863747350936803  0.997721042334035  0.4351362884731648  1.0000
  C   C91       1.0  0.5366518346657001  0.9658209012036522  0.28570578713088235  1.0000
  C   C92       1.0  0.5286623723807189  0.9403666838216466  0.2712865409492107  1.0000
  C   C93       1.0  0.541232591140686  0.9372355012398972  0.24705783348479726  1.0000
  C   C94       1.0  0.5609183488639286  0.9602718425813356  0.23676024089864603  1.0000
  C   C95       1.0  0.5697414692791251  0.9853442715049736  0.25131426659769385  1.0000
  C   C96       1.0  0.5580634952544133  0.9877500641571865  0.2759356999101453  1.0000
  H   H61       1.0  0.5128822781932673  0.922972793880363  0.2786971826086194  1.0000
  H   H62       1.0  0.5351659566003225  0.9172534271980439  0.23611105336296953  1.0000
  H   H63       1.0  0.585338198012819  0.002965232378731697  0.2435892948638106  1.0000
  H   H64       1.0  0.5649115743136406  0.007187722616577297  0.2871035620806724  1.0000
  C   C97       1.0  0.46486523358074494  0.005058288245668675  0.13302684537013612  1.0000
  C   C98       1.0  0.4611426499493121  0.03276486139689894  0.1171951459233552  1.0000
  C   C99       1.0  0.4889781357357244  0.04620151279953859  0.10716955752468209  1.0000
  C   C100      1.0  0.5203926641821187  0.03253460064381497  0.11374632618290875  1.0000
  C   C101      1.0  0.5240646194949462  0.004062314797655065  0.1286885023596256  1.0000
  C   C102      1.0  0.49633290599264496  0.9899384174260446  0.13789483955816792  1.0000
  H   H65       1.0  0.4368128856296089  0.043822401389457484  0.11270250564945405  1.0000
  H   H66       1.0  0.48609743670661415  0.06792907892055135  0.0953013571877331  1.0000
  H   H67       1.0  0.5483191163208685  0.9932694310819973  0.13370457595226326  1.0000
  H   H68       1.0  0.49947171112435934  0.9681187748583571  0.14961916896664057  1.0000
  C   C103      1.0  0.41267100906274734  0.13530490307072748  0.23597412529208353  1.0000
  C   C104      1.0  0.38552279573113707  0.12132782035100717  0.24640253262573822  1.0000
  C   C105      1.0  0.3785876609268485  0.12326642908680012  0.27187017281793696  1.0000
  C   C106      1.0  0.3992639046606431  0.1384310204689896  0.2870749780068546  1.0000
  C   C107      1.0  0.42655320728044716  0.15222218426646103  0.27667452835769163  1.0000
  C   C108      1.0  0.43296817035079704  0.15108736588688332  0.2510729058991066  1.0000
  H   H69       1.0  0.3697313066297641  0.10914172149225898  0.23486410238470112  1.0000
  H   H70       1.0  0.35731174893472795  0.11278574302325318  0.27974916040533193  1.0000
  H   H71       1.0  0.4424198897165749  0.1642095260736516  0.28825187502059835  1.0000
  H   H72       1.0  0.45391191432488087  0.16206226933500503  0.2430406392620791  1.0000
  C   C109      1.0  0.3290343826408393  0.9954758363743454  0.24105124889656765  1.0000
  C   C110      1.0  0.3176527343417167  0.9646328547337166  0.2404599445921723  1.0000
  C   C111      1.0  0.3361910424842407  0.9372858288182653  0.25084141015977324  1.0000
  C   C112      1.0  0.3655178537855866  0.9408484451005155  0.26269125430908913  1.0000
  C   C113      1.0  0.37640152146971134  0.9719372968013646  0.2640955233687032  1.0000
  C   C114      1.0  0.35846785245303103  0.9991878197658326  0.252824791147109  1.0000
  H   H73       1.0  0.29503313064201864  0.9616732296963928  0.23125665274049217  1.0000
  H   H74       1.0  0.32785698525453194  0.9132570788340154  0.2495823680060514  1.0000
  H   H75       1.0  0.39944009902456784  0.9746797317015543  0.2726777734174826  1.0000
  H   H76       1.0  0.36737586084734397  0.02304025144783095  0.25311331766762313  1.0000
  C   C115      1.0  0.2944619657737776  0.08986402242853839  0.09731668112195216  1.0000
  C   C116      1.0  0.3114761333223966  0.05963354697634506  0.09169900400711384  1.0000
  C   C117      1.0  0.29883349362266315  0.03978417582575294  0.07441873214647197  1.0000
  C   C118      1.0  0.26922856887483754  0.050117477104094976  0.06271513708706541  1.0000
  C   C119      1.0  0.25259391988750324  0.08064644929757069  0.06795088702255962  1.0000
  C   C120      1.0  0.26531688610158194  0.10056525749153192  0.08513153229037665  1.0000
  H   H77       1.0  0.3341361058887965  0.0513588108686409  0.100894237650358  1.0000
  H   H78       1.0  0.3118413608373347  0.01623415688879737  0.07029597088820555  1.0000
  H   H79       1.0  0.22994382499974103  0.08891768205461592  0.05876719472967149  1.0000
  H   H80       1.0  0.2522431095845813  0.12406223338674108  0.0893074755321286  1.0000
  C   C121      1.0  0.5245465149005462  0.250872306231854  0.4590210264315504  1.0000
  C   C122      1.0  0.5226371159547316  0.21938037773970032  0.45041307713393436  1.0000
  C   C123      1.0  0.5063093980666192  0.21502388158380825  0.4284655439164223  1.0000
  C   C124      1.0  0.4925111407714256  0.24219558458427712  0.414730003785925  1.0000
  C   C125      1.0  0.4944430299452487  0.27369849996329737  0.42334262810819134  1.0000
  C   C126      1.0  0.5101849228093948  0.2780438090908033  0.4455790634235441  1.0000
  H   H81       1.0  0.533537122940993  0.19830953332150214  0.46086246750954196  1.0000
  H   H82       1.0  0.5044586221767406  0.19065232583437902  0.4222458525496437  1.0000
  H   H83       1.0  0.4837410749637584  0.2948098160772968  0.412822580383191  1.0000
  H   H84       1.0  0.5115952801520897  0.3024339372159499  0.45212682015331734  1.0000
  C   C127      1.0  0.2417991197348193  0.58199616448498  0.47669682516912953  1.0000
  C   C128      1.0  0.21322885530790495  0.5946536523412264  0.464458147874353  1.0000
  C   C129      1.0  0.19518284009325293  0.5738238739696618  0.45135075956271103  1.0000
  C   C130      1.0  0.2061114579128165  0.5404829422276317  0.4501423129624244  1.0000
  C   C131      1.0  0.2349855260227526  0.5281290106051025  0.4619537006844479  1.0000
  C   C132      1.0  0.2527177520876525  0.5487640498284713  0.4752444831941365  1.0000
  H   H85       1.0  0.20457518626078616  0.6203362052602134  0.46570127314801363  1.0000
  H   H86       1.0  0.1728096126832353  0.5835016616405279  0.4423750853517874  1.0000
  H   H87       1.0  0.24357264554967983  0.502367306065386  0.4610432255755658  1.0000
  H   H88       1.0  0.2747768993339338  0.5387636884499976  0.48450974510670247  1.0000
  C   C133      1.0  0.4435751337709858  0.43037382731985996  0.4847781856691956  1.0000
  C   C134      1.0  0.42375991416031744  0.40529051387979886  0.49058389479059894  1.0000
  C   C135      1.0  0.39078848775394465  0.41285041556665164  0.49801614386666426  1.0000
  C   C136      1.0  0.37805154126979484  0.4454703213251635  0.5007957767969755  1.0000
  C   C137      1.0  0.39772964892952056  0.4705001540402461  0.49438265354804384  1.0000
  C   C138      1.0  0.43015611379572105  0.46295522261441296  0.4857539415151091  1.0000
  H   H89       1.0  0.4336966479523363  0.3800656499809543  0.48908879075382666  1.0000
  H   H90       1.0  0.37552011472762314  0.3933538453654143  0.5024044146597002  1.0000
  H   H91       1.0  0.3882428834126816  0.4956653907983766  0.49630657703983605  1.0000
  H   H92       1.0  0.44519394100885945  0.4823534898018076  0.4806036641176362  1.0000
  C   C139      1.0  0.7425579089669975  0.5908677943346696  0.5091023752622282  1.0000
  C   C140      1.0  0.7153888613803421  0.5786274310259791  0.4990225048662688  1.0000
  C   C141      1.0  0.7164848772696664  0.5692996533861614  0.4743556910887303  1.0000
  C   C142      1.0  0.7453138611990201  0.5704723061856353  0.45997571262414444  1.0000
  C   C143      1.0  0.7726201177341633  0.5826410915497545  0.46999655650088573  1.0000
  C   C144      1.0  0.7710875590020672  0.5932584589417365  0.4944949515768534  1.0000
  H   H93       1.0  0.6934694024784421  0.5762773601201843  0.5101759812131041  1.0000
  H   H94       1.0  0.6951254193312075  0.5606475666691083  0.4664526420008792  1.0000
  H   H95       1.0  0.7949382115468204  0.583714630840204  0.4589995612499889  1.0000
  H   H96       1.0  0.7922088015946172  0.6027096247245677  0.5022155703239491  1.0000
  C   C145      1.0  0.6116609590528798  0.4800621659821975  0.5302361851626045  1.0000
  C   C146      1.0  0.6246864697904205  0.46726520425807055  0.5525754401371992  1.0000
  C   C147      1.0  0.6226457015125886  0.4342662470295065  0.5592720115239672  1.0000
  C   C148      1.0  0.606779081803624  0.41434430234932823  0.5439796144178684  1.0000
  C   C149      1.0  0.5938131576355085  0.4272153191692667  0.5216336902810801  1.0000
  C   C150      1.0  0.596801053014197  0.45987027489358784  0.5145567424004285  1.0000
  H   H97       1.0  0.6361557479787983  0.4827376896256626  0.5648242329555769  1.0000
  H   H98       1.0  0.6326227824035958  0.42436133807843507  0.5766056548079649  1.0000
  H   H99       1.0  0.5817476888288524  0.4118921027892264  0.5096713206758157  1.0000
  H   H100      1.0  0.5873228028004921  0.4694197462873835  0.49701646943379085  1.0000
  C   C151      1.0  0.4194301759717106  0.7905421640234772  0.428946654837444  1.0000
  C   C152      1.0  0.4530587804985062  0.7801647362146776  0.42691032509320365  1.0000
  C   C153      1.0  0.47149460974722673  0.7897902885827458  0.4061301825133345  1.0000
  C   C154      1.0  0.45643309201486576  0.8101734365586847  0.3875606265022346  1.0000
  C   C155      1.0  0.42249289743544827  0.8190687954186573  0.3890622578038148  1.0000
  C   C156      1.0  0.40392658719561136  0.8088976576644252  0.4095630085452047  1.0000
  H   H101      1.0  0.4650667384039996  0.7653142828287437  0.44156714358555954  1.0000
  H   H102      1.0  0.4976759398940939  0.7824582535585197  0.4049034493858827  1.0000
  H   H103      1.0  0.41047626679186855  0.8337186022021577  0.3744385997966605  1.0000
  H   H104      1.0  0.37781079178691246  0.8164968473753486  0.41087391817229385  1.0000
  C   C157      1.0  0.4228144143244739  0.6160790479959319  0.5481387439713746  1.0000
  C   C158      1.0  0.4479716271979819  0.6348318859530078  0.5400994995945085  1.0000
  C   C159      1.0  0.44839461861417246  0.6667094675829134  0.5483701356724432  1.0000
  C   C160      1.0  0.42384103484183844  0.6796842937103015  0.5648259181636893  1.0000
  C   C161      1.0  0.4000765329647562  0.6601224535130461  0.5742200267777222  1.0000
  C   C162      1.0  0.3994111092259168  0.6283692550359281  0.5657159693196996  1.0000
  H   H105      1.0  0.46632505057245277  0.6253439477930585  0.5266659688963317  1.0000
  H   H106      1.0  0.4674968059712842  0.681372446180622  0.5417223384173722  1.0000
  H   H107      1.0  0.3812762665403805  0.6700023658309436  0.5871951166697745  1.0000
  H   H108      1.0  0.38055493799034057  0.6135923587298  0.5725691452353597  1.0000
  C   C163      1.0  0.5593911719783098  0.7010328647816092  0.523525807838223  1.0000
  C   C164      1.0  0.5654879370105619  0.7193906813158031  0.5439284849886511  1.0000
  C   C165      1.0  0.5761098329814242  0.7035781433134781  0.5660929204515184  1.0000
  C   C166      1.0  0.5807410177276394  0.6694008369211919  0.5678273893589982  1.0000
  C   C167      1.0  0.5739151877305068  0.6510627391034086  0.5475967953500098  1.0000
  C   C168      1.0  0.5634190920721056  0.6668704902260825  0.5254111723686838  1.0000
  H   H109      1.0  0.5627292148402441  0.7458327859239927  0.5424279710347389  1.0000
  H   H110      1.0  0.5816790663284116  0.7178432940535119  0.5816024729724586  1.0000
  H   H111      1.0  0.5762862379489235  0.6246506613835672  0.5491653488330588  1.0000
  H   H112      1.0  0.5579269475442913  0.6526528558777263  0.509845335471428  1.0000
  C   C169      1.0  0.7172509766742416  0.566866474859182  0.6973846697559456  1.0000
  C   C170      1.0  0.7333287244055533  0.5357393764356357  0.6932937983421474  1.0000
  C   C171      1.0  0.7248285251245473  0.5179141914270718  0.6731874909826432  1.0000
  C   C172      1.0  0.7007689705951166  0.531473473476998  0.6568640941660382  1.0000
  C   C173      1.0  0.684347179446777  0.5623910209060353  0.6611763034559778  1.0000
  C   C174      1.0  0.6923789084610228  0.5799591774845859  0.6815750647134898  1.0000
  H   H113      1.0  0.7522433715779836  0.5253395933810069  0.7056573797946452  1.0000
  H   H114      1.0  0.7373628351279011  0.49387538895000377  0.6699876822582861  1.0000
  H   H115      1.0  0.6653143066437787  0.572697919006928  0.6488805351373027  1.0000
  H   H116      1.0  0.6798245528883005  0.6039890166813686  0.6847507924451055  1.0000
  C   C175      1.0  0.9084950790410311  0.6829523703989528  0.8025109581461055  1.0000
  C   C176      1.0  0.8915461612756485  0.6768162276079112  0.7813247716746377  1.0000
  C   C177      1.0  0.8668824328122682  0.655553747766436  0.7827911502228069  1.0000
  C   C178      1.0  0.8580567590270987  0.6416786318468307  0.8056608246430481  1.0000
  C   C179      1.0  0.8737588013284576  0.6491833726121916  0.8270875714631066  1.0000
  C   C180      1.0  0.8994688975372062  0.6693138549462508  0.8254355215062195  1.0000
  H   H117      1.0  0.8980515425443373  0.6878371348940997  0.7636712780980306  1.0000
  H   H118      1.0  0.8547472201482541  0.6499906310792358  0.7662051200831032  1.0000
  H   H119      1.0  0.8669539215242801  0.6384883623367683  0.8448149767279975  1.0000
  H   H120      1.0  0.9123425961843448  0.6742170295101514  0.8418898808523123  1.0000
  C   C181      1.0  0.01653504274286144  0.7643521837734841  0.9143941737273874  1.0000
  C   C182      1.0  0.029586601047086002  0.7790653263673099  0.9343960705389124  1.0000
  C   C183      1.0  0.008627332642548335  0.7942823816582817  0.9525197265905039  1.0000
  C   C184      1.0  0.974522248531141  0.795003725201633  0.9506128408172716  1.0000
  C   C185      1.0  0.9614482683702533  0.7815310808958563  0.9300622134972261  1.0000
  C   C186      1.0  0.9824297514047331  0.766259360717751  0.9119503498202853  1.0000
  H   H121      1.0  0.05597667984124983  0.7780013843612857  0.9361945541723452  1.0000
  H   H122      1.0  0.01890524441176367  0.8053364491888884  0.9679714954882044  1.0000
  H   H123      1.0  0.9350582652251811  0.7825203177160108  0.9283154803459583  1.0000
  H   H124      1.0  0.9721819552447841  0.7558568610721951  0.8962006314776819  1.0000
  C   C187      1.0  0.8921528182163838  0.45824274544583743  0.8325919223117738  1.0000
  C   C188      1.0  0.9090553754236567  0.4403788571907749  0.8138206821045881  1.0000
  C   C189      1.0  0.899074587022204  0.44470799591309157  0.7893022875071809  1.0000
  C   C190      1.0  0.8728390747791651  0.4677769704840806  0.7831412749677173  1.0000
  C   C191      1.0  0.8559951844933946  0.48598367414920424  0.8018565505037104  1.0000
  C   C192      1.0  0.8653095339375559  0.4808397618073248  0.8266296008413595  1.0000
  H   H125      1.0  0.9299331369907008  0.42318694401273016  0.8180450300251529  1.0000
  H   H126      1.0  0.9121570891007791  0.43050172188316793  0.7751208503355107  1.0000
  H   H127      1.0  0.8355434617927718  0.5037011672300431  0.797349825661195  1.0000
  H   H128      1.0  0.8521061779589079  0.49480172779228526  0.8410503599977524  1.0000
  C   C193      1.0  0.030876141083827413  0.5120020945861619  0.8979515352162499  1.0000
  C   C194      1.0  0.04452407153559501  0.5411203867394774  0.9021211990102661  1.0000
  C   C195      1.0  0.024289759451256776  0.5707320211291188  0.9031693604229528  1.0000
  C   C196      1.0  0.9902024202239379  0.5710411881870032  0.9014070662620658  1.0000
  C   C197      1.0  0.9763142454293781  0.5415745946490602  0.8993442038989301  1.0000
  C   C198      1.0  0.9966835203274181  0.5121697466123848  0.8969905113025557  1.0000
  H   H129      1.0  0.07090305818242748  0.5410360320755507  0.903394484813527  1.0000
  H   H130      1.0  0.03515696529035006  0.5932729855973908  0.905284893401036  1.0000
  H   H131      1.0  0.9499038319787649  0.5416745724849114  0.8982876123878797  1.0000
  H   H132      1.0  0.9858707961702685  0.4897704673108875  0.8941119349747257  1.0000
  C   C199      1.0  0.008530325710270459  0.3224157331152485  0.9283188966336461  1.0000
  C   C200      1.0  0.9962953990237261  0.2974176380660345  0.9429404605337464  1.0000
  C   C201      1.0  0.9991289047973451  0.2969658546908514  0.9687411087390062  1.0000
  C   C202      1.0  0.01503942482933529  0.3210052208608106  0.9798446946113093  1.0000
  C   C203      1.0  0.02735555057666761  0.34593277253160704  0.9651960300224899  1.0000
  C   C204      1.0  0.023719378632578225  0.34690452748518996  0.9394584562064652  1.0000
  H   H133      1.0  0.9845045510481092  0.2784606907667159  0.9343092150339426  1.0000
  H   H134      1.0  0.9895768546484099  0.27767249203017  0.979956812872972  1.0000
  H   H135      1.0  0.03973031496977053  0.3645356425708459  0.9737686441996981  1.0000
  H   H136      1.0  0.0333875760523481  0.36615064038487405  0.9281984562592827  1.0000
  C   C205      1.0  0.9700005260784151  0.5264319055487389  0.6799200868530173  1.0000
  C   C206      1.0  0.940062423609028  0.5197459659799384  0.6910187110075948  1.0000
  C   C207      1.0  0.9141156150369145  0.5444463429780259  0.6930745218726292  1.0000
  C   C208      1.0  0.9175223584908673  0.5758432942433179  0.6833856105552185  1.0000
  C   C209      1.0  0.9469218650439463  0.5823444761686933  0.6711927520276267  1.0000
  C   C210      1.0  0.9734367893117993  0.557767130378849  0.6698888462995732  1.0000
  H   H137      1.0  0.9369819857682743  0.4957413779031839  0.6986429057423086  1.0000
  H   H138      1.0  0.8915411227881215  0.539018755216978  0.7023310599669258  1.0000
  H   H139      1.0  0.9495014016953723  0.6064225208142117  0.6631951837461793  1.0000
  H   H140      1.0  0.9963498532357352  0.5629531582760035  0.6609040183334187  1.0000
  C   C211      1.0  0.1067297478750806  0.4546799190135374  0.7529727838526923  1.0000
  C   C212      1.0  0.07662212144769964  0.456134606688385  0.741277921786873  1.0000
  C   C213      1.0  0.05081952024207448  0.44047988823899514  0.7519476512379911  1.0000
  C   C214      1.0  0.0546372074675161  0.4233150274300827  0.7745337236753728  1.0000
  C   C215      1.0  0.08478081792407277  0.42161369306046953  0.7864691834282156  1.0000
  C   C216      1.0  0.1110668429568058  0.4369584641902563  0.7754505771303718  1.0000
  H   H141      1.0  0.07295630591104361  0.46928511306257975  0.7238767985216592  1.0000
  H   H142      1.0  0.02771054849721688  0.4422854760412943  0.7427490465556054  1.0000
  H   H143      1.0  0.08802206003341961  0.4078568921591994  0.8037910051585794  1.0000
  H   H144      1.0  0.1345658956716944  0.4352847226634519  0.7843440607889721  1.0000
  C   C217      1.0  0.08383790708255097  0.6264661095990619  0.7329471263854522  1.0000
  C   C218      1.0  0.06653149192999185  0.6509880994254588  0.7469098029421605  1.0000
  C   C219      1.0  0.06646917207690246  0.6486030681904414  0.7728978063641577  1.0000
  C   C220      1.0  0.08495061540711067  0.622449320545454  0.7848656474854521  1.0000
  C   C221      1.0  0.10361555024742997  0.5989304661714052  0.7707960971720391  1.0000
  C   C222      1.0  0.10250258690502827  0.600547514628329  0.744932074042145  1.0000
  H   H145      1.0  0.052703028422029  0.6714356364564318  0.737643360630662  1.0000
  H   H146      1.0  0.05244476712039852  0.667151966478513  0.783628361836271  1.0000
  H   H147      1.0  0.11868964259572136  0.5791609169130877  0.7797858490287009  1.0000
  H   H148      1.0  0.11636428592111464  0.5818344452653649  0.734250561447077  1.0000
  C   C223      1.0  0.18754054542130216  0.5201224373407833  0.6180509765183391  1.0000
  C   C224      1.0  0.19716222457219645  0.5450450693523224  0.6323342359044068  1.0000
  C   C225      1.0  0.2295747498107248  0.5534052834590298  0.6304038429624921  1.0000
  C   C226      1.0  0.2521356974606401  0.537391601305873  0.6137590764059258  1.0000
  C   C227      1.0  0.24263372783258502  0.5121248839374221  0.5997709060523098  1.0000
  C   C228      1.0  0.21045645585108938  0.5033024566860131  0.6021108793406377  1.0000
  H   H149      1.0  0.17943937889947795  0.5586495330947958  0.644244961892196  1.0000
  H   H150      1.0  0.23688258704992018  0.5730536765600602  0.6411832661083162  1.0000
  H   H151      1.0  0.2602109048152162  0.49913713535085247  0.5873528126305814  1.0000
  H   H152      1.0  0.2032714521781977  0.48352613866390287  0.5914317599894369  1.0000
  C   C229      1.0  0.47101340847678375  0.8432041207570639  0.6269190619070392  1.0000
  C   C230      1.0  0.4559674720833603  0.8230455665838522  0.61130402833913  1.0000
  C   C231      1.0  0.4571950118183712  0.8285642979639729  0.585587608777626  1.0000
  C   C232      1.0  0.47355996280482193  0.8542451929176008  0.5752834716902457  1.0000
  C   C233      1.0  0.4890028295753017  0.8741765931251221  0.5908330694278561  1.0000
  C   C234      1.0  0.48770849848827874  0.8686852466997624  0.6166379374117473  1.0000
  H   H153      1.0  0.4425284349970672  0.8036576821594783  0.6191096126410364  1.0000
  H   H154      1.0  0.44479658935745925  0.8133040685590001  0.5738049753160324  1.0000
  H   H155      1.0  0.5022143601695226  0.893674166185751  0.5829155795296836  1.0000
  H   H156      1.0  0.5000293633951918  0.8838692453726038  0.628479110356619  1.0000
  C   C235      1.0  0.5629404129302986  0.9319280910664789  0.8088710731387797  1.0000
  C   C236      1.0  0.5875202784419596  0.946081768177322  0.7950459134760504  1.0000
  C   C237      1.0  0.5895256331695227  0.9430401357733175  0.7692294313466795  1.0000
  C   C238      1.0  0.5657108349960694  0.927736245438404  0.7571122675395585  1.0000
  C   C239      1.0  0.5413158707199943  0.9134588507838366  0.7710002569531635  1.0000
  C   C240      1.0  0.5405964118728948  0.9146423094890294  0.7968727573013369  1.0000
  H   H157      1.0  0.6052468940747864  0.9589386153600316  0.8042915557432895  1.0000
  H   H158      1.0  0.6089736847503558  0.953346585499604  0.7586080029254821  1.0000
  H   H159      1.0  0.5231075175391546  0.9012463984937429  0.7618575595042317  1.0000
  H   H160      1.0  0.5221938833147228  0.9027323220441257  0.8074571712635096  1.0000
  C   C241      1.0  0.6714734610148481  0.03393899392864097  0.9294826358448008  1.0000
  C   C242      1.0  0.6915222983092332  0.04163641388290862  0.9091599928179924  1.0000
  C   C243      1.0  0.7207805263608688  0.05580040624170701  0.9129389970346456  1.0000
  C   C244      1.0  0.7295446050171205  0.062766929980838  0.9369311504176409  1.0000
  C   C245      1.0  0.70801745006407  0.05753719895760323  0.9568463278889453  1.0000
  C   C246      1.0  0.6792961741895901  0.042693839177804005  0.9532033975486258  1.0000
  H   H161      1.0  0.6854498440816742  0.03501778990934934  0.8907515628855396  1.0000
  H   H162      1.0  0.7371862801178711  0.06017933085103344  0.8973980074704938  1.0000
  H   H163      1.0  0.7135615628270845  0.06475861804023308  0.9750870566561435  1.0000
  H   H164      1.0  0.6634143481351761  0.037387360923834434  0.9688449163572573  1.0000
  C   C247      1.0  0.33340710924945755  0.993994349790696  0.7703987942595064  1.0000
  C   C248      1.0  0.34706813547803256  0.9793687395553858  0.7919680601245657  1.0000
  C   C249      1.0  0.3717463030792428  0.9531458224453618  0.7903749970791916  1.0000
  C   C250      1.0  0.3839309068095738  0.9425047191130597  0.7672325523305596  1.0000
  C   C251      1.0  0.37043345604310485  0.9572959643963339  0.7456467382531679  1.0000
  C   C252      1.0  0.3446387133433026  0.9825232141630243  0.7472509884522628  1.0000
  H   H165      1.0  0.33813850566813514  0.9878750487383051  0.8098888040245718  1.0000
  H   H166      1.0  0.38143353907359834  0.9412020050232934  0.8070843209188443  1.0000
  H   H167      1.0  0.37942500009610963  0.9488817921796658  0.7277492645733192  1.0000
  H   H168      1.0  0.3338364670142538  0.993604178454883  0.730559324339008  1.0000
  C   C253      1.0  0.409520143800195  0.03878965288956394  0.8847147836240282  1.0000
  C   C254      1.0  0.43679934910417617  0.025120166587805807  0.8980298927142221  1.0000
  C   C255      1.0  0.46683636714096766  0.039140460742734806  0.8956636946752561  1.0000
  C   C256      1.0  0.46923977585393667  0.0668527541588659  0.8801597374994571  1.0000
  C   C257      1.0  0.4419055689404702  0.08027548204744613  0.8671614793935408  1.0000
  C   C258      1.0  0.41227385391893845  0.06649432777283108  0.8695433378465396  1.0000
  H   H169      1.0  0.43483639878939356  0.003745586369663605  0.9099799626361332  1.0000
  H   H170      1.0  0.4879265427658517  0.02882813848680965  0.905997010920736  1.0000
  H   H171      1.0  0.44355253794665156  0.10110195464481857  0.8548168575880619  1.0000
  H   H172      1.0  0.39160154926151486  0.07769186009676601  0.8595108922187644  1.0000
  C   C259      1.0  0.2128275246128486  0.08972837565306704  0.8893311431286836  1.0000
  C   C260      1.0  0.19529910083931332  0.10142442581403202  0.9103889011332306  1.0000
  C   C261      1.0  0.18086702222657391  0.07968332680488045  0.9268489629653087  1.0000
  C   C262      1.0  0.1833172144657236  0.04633746677453527  0.9219336745664738  1.0000
  C   C263      1.0  0.1994342542791923  0.034856891255967255  0.9002762000250806  1.0000
  C   C264      1.0  0.21446399419822168  0.056518140517056996  0.8840928931315043  1.0000
  H   H173      1.0  0.19372902362619596  0.1271756270351519  0.914334836278658  1.0000
  H   H174      1.0  0.16795581024090056  0.0887425231245766  0.9433604945387493  1.0000
  H   H175      1.0  0.20099635729244597  0.009129825845540122  0.8962671955069513  1.0000
  H   H176      1.0  0.22696441217733465  0.047574940989977076  0.867439450683471  1.0000
  C   C265      1.0  0.5155722781376694  0.07034287857934364  0.6658042140248234  1.0000
  C   C266      1.0  0.5247747574476547  0.03695165833875754  0.6631077267092327  1.0000
  C   C267      1.0  0.5006758835356606  0.015169421941390928  0.6623280342739788  1.0000
  C   C268      1.0  0.46734068741101675  0.026937096148072385  0.6630690363361532  1.0000
  C   C269      1.0  0.4581189965425867  0.060555705959364214  0.6646103280709376  1.0000
  C   C270      1.0  0.4822203273796562  0.08218069585647286  0.6665360322420956  1.0000
  H   H177      1.0  0.5505547882988168  0.02782923165564877  0.6620804447970556  1.0000
  H   H178      1.0  0.5080168641714538  0.9893286112280048  0.6608162552725008  1.0000
  H   H179      1.0  0.43240323424095134  0.06989087723689336  0.6648398843846884  1.0000
  H   H180      1.0  0.4749379529669961  0.10802039823853365  0.6684098930313872  1.0000
  C   C271      1.0  0.5592416602954583  0.15371513446379007  0.7801772395604496  1.0000
  C   C272      1.0  0.5817663233340582  0.13924507032009578  0.7627994144767848  1.0000
  C   C273      1.0  0.6053582895261792  0.11380094302070798  0.770250663049555  1.0000
  C   C274      1.0  0.6054158223408179  0.10178333047084122  0.7948145559204177  1.0000
  C   C275      1.0  0.582634683774184  0.11606299904439883  0.8120103333966319  1.0000
  C   C276      1.0  0.5601462666406357  0.14242115133624234  0.8048349095580274  1.0000
  H   H181      1.0  0.581355839078653  0.14778956629709944  0.7437161795186211  1.0000
  H   H182      1.0  0.6230709561824063  0.10293373031759605  0.7568950471381086  1.0000
  H   H183      1.0  0.5824805749381857  0.10700548679013888  0.830966359482289  1.0000
  H   H184      1.0  0.5431322214177994  0.15351895120769024  0.8184086423693344  1.0000
  C   C277      1.0  0.38135285149617165  0.15847494860658315  0.784994501427439  1.0000
  C   C278      1.0  0.35783212272131915  0.1522341537154919  0.7678974648741387  1.0000
  C   C279      1.0  0.363532558021219  0.15844793616729547  0.7424497713878858  1.0000
  C   C280      1.0  0.3930019111596854  0.17029474301656297  0.7341965154740165  1.0000
  C   C281      1.0  0.4160710950615969  0.1768643514182244  0.7514021772587783  1.0000
  C   C282      1.0  0.4101367280480437  0.1713213056509638  0.7766368447107582  1.0000
  H   H185      1.0  0.3352476939663764  0.1427785836018233  0.774252177752728  1.0000
  H   H186      1.0  0.34546935904002213  0.15351071479845355  0.7291927774018705  1.0000
  H   H187      1.0  0.43874719631213127  0.18607953972254107  0.74535326572867  1.0000
  H   H188      1.0  0.4283656276527358  0.17648306772609934  0.7894779402786428  1.0000
  C   C283      1.0  0.5114402384656487  0.27975858079217975  0.6413315991267392  1.0000
  C   C284      1.0  0.47962803199730636  0.27150431553075327  0.637594430686087  1.0000
  C   C285      1.0  0.4615160200120322  0.2858460010550853  0.6176655952532972  1.0000
  C   C286      1.0  0.47552197352700565  0.3078430270087881  0.6012276849556194  1.0000
  C   C287      1.0  0.506958747909193  0.31672329060665233  0.6053697114096815  1.0000
  C   C288      1.0  0.5248450490028087  0.3027825334965861  0.6254791721192979  1.0000
  H   H189      1.0  0.46905235031467585  0.2539711350044168  0.6499748358170179  1.0000
  H   H190      1.0  0.4371176295708938  0.2790614313800249  0.6145443843743954  1.0000
  H   H191      1.0  0.5178143309523654  0.33391273257024984  0.5928444988326694  1.0000
  H   H192      1.0  0.5494333900646503  0.3092513996790532  0.628351841181795  1.0000
  N   N1        1.0  0.13654090633583965  0.9277071758280323  0.960197941089236  1.0000
  C   C289      1.0  0.1436103903432791  0.9310184711871328  0.9333065397166777  1.0000
  C   C290      1.0  0.16671057371980985  0.93122123196417  0.9739029628032985  1.0000
  C   C291      1.0  0.12536817883049636  0.8951629796676203  0.9660116189599656  1.0000
  C   C292      1.0  0.11050171356862182  0.9534873734464708  0.9675571610663325  1.0000
  H   H193      1.0  0.12144727823466936  0.9283140564326678  0.9223603538801686  1.0000
  H   H194      1.0  0.1634383246805077  0.9122083582326956  0.9271399012905538  1.0000
  H   H195      1.0  0.15184699376443922  0.9554461454547211  0.9282593412909401  1.0000
  H   H196      1.0  0.16208138784401138  0.9297431809447851  0.9942762843595606  1.0000
  H   H197      1.0  0.18671051400345104  0.9117903885280378  0.9692256626937896  1.0000
  H   H198      1.0  0.17618054648720688  0.9552569621803078  0.9695108562577566  1.0000
  H   H199      1.0  0.1204137014009678  0.8915747161188159  0.9862023171609792  1.0000
  H   H200      1.0  0.1441616282325306  0.8750588541935133  0.9603895820656436  1.0000
  H   H201      1.0  0.10219224048442926  0.8918567271806753  0.9564964253729359  1.0000
  H   H202      1.0  0.10422913000507898  0.9514643265962576  0.9876662555235529  1.0000
  H   H203      1.0  0.08753500827824187  0.9518898726454234  0.9573206566009739  1.0000
  H   H204      1.0  0.11841083237100244  0.9783535578520118  0.9638214439152152  1.0000
  N   N2        1.0  0.0009081885654458281  0.6766788605652788  0.9559460011087828  1.0000
  C   C293      1.0  0.9814102968207442  0.6885099980112264  0.9342813627006595  1.0000
  C   C294      1.0  0.9784735788819237  0.6682144187726325  0.9765326238397595  1.0000
  C   C295      1.0  0.020612098361318054  0.7026757172231876  0.9635715630046817  1.0000
  C   C296      1.0  0.02304957735129843  0.6474052132042937  0.9492233181964121  1.0000
  H   H205      1.0  0.9976890175338977  0.6958423177828357  0.9186853361185348  1.0000
  H   H206      1.0  0.9639244687078034  0.7102328310545271  0.9387039727898671  1.0000
  H   H207      1.0  0.9667963044664686  0.6693304234954476  0.9275243145146704  1.0000
  H   H208      1.0  0.9630956862561612  0.6488261479087143  0.9712301238283696  1.0000
  H   H209      1.0  0.9923558285492879  0.6591294777455389  0.9932297861124297  1.0000
  H   H210      1.0  0.961509516983065  0.6899199219159997  0.9819876578103329  1.0000
  H   H211      1.0  0.03541624905541308  0.69490171553558  0.980088186505358  1.0000
  H   H212      1.0  0.004624965043424464  0.7253714967308703  0.9682667471060508  1.0000
  H   H213      1.0  0.037973906349551216  0.7094683546096222  0.9484423759136424  1.0000
  H   H214      1.0  0.03797798609343173  0.6374738138452066  0.9651692648485042  1.0000
  H   H215      1.0  0.040433473893395126  0.6532099657020062  0.9338489204960004  1.0000
  H   H216      1.0  0.008912346966740259  0.6275749674584353  0.9428607987934807  1.0000
  N   N3        1.0  0.9560667831056732  0.6237454566056368  0.3682650624674863  1.0000
  C   C297      1.0  0.9418920772653393  0.6098350613420278  0.3466164486091139  1.0000
  C   C298      1.0  0.9545203518873435  0.659689868336913  0.3650245046717831  1.0000
  C   C299      1.0  0.9906586789838857  0.609850435143536  0.3706658034924559  1.0000
  C   C300      1.0  0.9371731263627474  0.6154891636085525  0.39087695523818844  1.0000
  H   H217      1.0  0.9154077890810218  0.6185965360523614  0.34505135611947857  1.0000
  H   H218      1.0  0.943661977992362  0.5826661264525278  0.34821769478639497  1.0000
  H   H219      1.0  0.9544632205563315  0.6170572756713378  0.32905001405187867  1.0000
  H   H220      1.0  0.9674970928619185  0.6669796218363305  0.3476690852541939  1.0000
  H   H221      1.0  0.9285938622479228  0.6708969662812979  0.3641675029571991  1.0000
  H   H222      1.0  0.9659810442552933  0.6707895753211858  0.38070682702303116  1.0000
  H   H223      1.0  0.002675974690901084  0.6209499019552092  0.38611157241532024  1.0000
  H   H224      1.0  0.005312599090719461  0.6140697176621408  0.3534545281082938  1.0000
  H   H225      1.0  0.992442239844541  0.5830268397070312  0.3747571685762631  1.0000
  H   H226      1.0  0.9112851884017624  0.6267563559381024  0.3903706256854574  1.0000
  H   H227      1.0  0.948160440534447  0.6243316949975432  0.40768786629066217  1.0000
  H   H228      1.0  0.9362871553855545  0.588630967307743  0.39317049821926997  1.0000
  N   N4        1.0  0.7335672204590302  0.6572283584146911  0.7826882240723226  1.0000
  C   C301      1.0  0.7241754103866731  0.6642824043237431  0.7566829414059871  1.0000
  C   C302      1.0  0.7636609177737789  0.6727856404129677  0.7877114038928948  1.0000
  C   C303      1.0  0.7399089811337567  0.6214778529387895  0.7869188586588914  1.0000
  C   C304      1.0  0.7065204718230812  0.6702257040559806  0.7994566530563596  1.0000
  H   H229      1.0  0.7441289047801964  0.6549530162701611  0.7435186127393816  1.0000
  H   H230      1.0  0.7187460039996171  0.6909993697597852  0.7527743249812736  1.0000
  H   H231      1.0  0.7020512462905283  0.6521487908513235  0.7520792137449344  1.0000
  H   H232      1.0  0.7846502092762975  0.6634038845183889  0.7754846095912761  1.0000
  H   H233      1.0  0.7599042736447378  0.6998041532187567  0.7847505074598886  1.0000
  H   H234      1.0  0.7716909696992204  0.6675772791065371  0.8071038279057005  1.0000
  H   H235      1.0  0.7478958351605495  0.6150556475387604  0.806156857694393  1.0000
  H   H236      1.0  0.7597647725322155  0.61102957419568  0.7742741128475242  1.0000
  H   H237      1.0  0.7177963650558424  0.6087755353713169  0.7833552788307381  1.0000
  H   H238      1.0  0.7010982426706424  0.6971987862116814  0.796811860355188  1.0000
  H   H239      1.0  0.7128186184817475  0.6651239858874167  0.8192162526306691  1.0000
  H   H240      1.0  0.6834590367049652  0.6589694811959991  0.7961109383352435  1.0000
  N   N5        1.0  0.43963778140810483  0.8916336173276478  0.4449122191369125  1.0000
  C   C305      1.0  0.4353575485416019  0.8863806730359084  0.47196991162103913  1.0000
  C   C306      1.0  0.46585489756947834  0.8674389375295583  0.43544781362156343  1.0000
  C   C307      1.0  0.4488593596294579  0.924994654152517  0.4394815878324512  1.0000
  C   C308      1.0  0.40846023501976964  0.887597241918111  0.4326966160720316  1.0000
  H   H241      1.0  0.45855387297306377  0.8886136137829916  0.48184814687256067  1.0000
  H   H242      1.0  0.42801723209217846  0.8614650639756837  0.47658491394746594  1.0000
  H   H243      1.0  0.4159522987575195  0.9043742852302704  0.4798122966933595  1.0000
  H   H244      1.0  0.4899379236785841  0.8700461294101182  0.44384603588828875  1.0000
  H   H245      1.0  0.4599306093298709  0.8421156065416673  0.4398253598468395  1.0000
  H   H246      1.0  0.4691233478527167  0.8697873779735545  0.41493927058201674  1.0000
  H   H247      1.0  0.4520802642918418  0.9296078644313702  0.41918767910104604  1.0000
  H   H248      1.0  0.47225753610968585  0.9289737109511336  0.44839126414878416  1.0000
  H   H249      1.0  0.42948385923932914  0.9439039466950078  0.44618778799941505  1.0000
  H   H250      1.0  0.41132477500895614  0.8893203006179903  0.4121390447023675  1.0000
  H   H251      1.0  0.38858692353468716  0.906798392217624  0.4381114431019288  1.0000
  H   H252      1.0  0.3997258646062027  0.8634043314272514  0.43763009489881416  1.0000
  N   N6        1.0  0.7027939611564913  0.47085065413205407  0.4864329897865399  1.0000
  C   C309      1.0  0.7331607585583877  0.48722035817329695  0.48826830814667294  1.0000
  C   C310      1.0  0.6757320834923107  0.4949565535015003  0.47805894512562996  1.0000
  C   C311      1.0  0.6939095022592381  0.4568104265189579  0.5109503569617109  1.0000
  C   C312      1.0  0.7082964585813858  0.44449152190770863  0.46838643963004867  1.0000
  H   H253      1.0  0.7543108782638975  0.4697210093654908  0.4941162951527252  1.0000
  H   H254      1.0  0.7300223078691774  0.5069795236003314  0.501999807173238  1.0000
  H   H255      1.0  0.7402012561904766  0.49866659073759995  0.4701472551579566  1.0000
  H   H256      1.0  0.6520866493681419  0.4838095525626854  0.47734631409919864  1.0000
  H   H257      1.0  0.6715785142502237  0.5156870324468903  0.4908936809095446  1.0000
  H   H258      1.0  0.6811519828810523  0.5053828303079729  0.45927989205603453  1.0000
  H   H259      1.0  0.7140869022097072  0.43920221985520047  0.5182752362562629  1.0000
  H   H260      1.0  0.671578693093305  0.44350261030079546  0.5100923378717753  1.0000
  H   H261      1.0  0.6883999744924854  0.47624529377189667  0.5247753835089961  1.0000
  H   H262      1.0  0.685695626660998  0.43191483499126454  0.46633889202336026  1.0000
  H   H263      1.0  0.7283594366841556  0.4256631750395968  0.4742235337591594  1.0000
  H   H264      1.0  0.7153395458531228  0.4543258332169126  0.44973810023823313  1.0000
  N   N7        1.0  0.4968327217482726  0.1368039028624297  0.14891855888065542  1.0000
  C   C313      1.0  0.4878039224129701  0.1638003377563934  0.1660100028824173  1.0000
  C   C314      1.0  0.5321412704226015  0.1359176017843021  0.14199600531973294  1.0000
  C   C315      1.0  0.47696003997051695  0.14195145583684138  0.12644274587349721  1.0000
  C   C316      1.0  0.49046336456043715  0.10541846078721082  0.1612759845809682  1.0000
  H   H265      1.0  0.4610857498544386  0.16587568975183165  0.1709833473778645  1.0000
  H   H266      1.0  0.49335159832288494  0.1877561808263101  0.15766657103722093  1.0000
  H   H267      1.0  0.5014326028574654  0.1598814627066999  0.18362460196935168  1.0000
  H   H268      1.0  0.5398526644053174  0.11574182045694513  0.12920474321323358  1.0000
  H   H269      1.0  0.5379498208594035  0.15918840619575111  0.13263315986947014  1.0000
  H   H270      1.0  0.5477621781938461  0.13192090507297857  0.15857073440759162  1.0000
  H   H271      1.0  0.4501736762056489  0.14230792985776944  0.13106235402890068  1.0000
  H   H272      1.0  0.48341454162581754  0.12201120566885046  0.11317838090783086  1.0000
  H   H273      1.0  0.4808870958980811  0.1655378652656592  0.1166978025543342  1.0000
  H   H274      1.0  0.4638500347760764  0.10458547178592864  0.16570987738663429  1.0000
  H   H275      1.0  0.503795928769825  0.10160566428963619  0.17894692771426243  1.0000
  H   H276      1.0  0.4984037742466576  0.08434581441237968  0.1493576979783951  1.0000
  N   N8        1.0  0.4552367864724581  0.9559531899982703  0.8413342415277067  1.0000
  C   C317      1.0  0.47045297776886785  0.9253663410344828  0.853177426387442  1.0000
  C   C318      1.0  0.45360252485434044  0.9517353795906346  0.814378998260425  1.0000
  C   C319      1.0  0.47516227250538123  0.9830512495323369  0.8460297000989578  1.0000
  C   C320      1.0  0.421630267203414  0.9634941382429072  0.8517891721458011  1.0000
  H   H277      1.0  0.4956218674718293  0.9185887015837038  0.8455301389106119  1.0000
  H   H278      1.0  0.4558921967794098  0.9044687398175493  0.8501952496390686  1.0000
  H   H279      1.0  0.47268733108867533  0.9278460959986184  0.8734821258332305  1.0000
  H   H280      1.0  0.4399063546988982  0.973260354942123  0.8050199123448464  1.0000
  H   H281      1.0  0.47852670669141856  0.9481853917268518  0.8055216460903911  1.0000
  H   H282      1.0  0.44108080936554306  0.9298265547666242  0.8103072634149261  1.0000
  H   H283      1.0  0.49988820301844017  0.9792755356439368  0.8368233260533362  1.0000
  H   H284      1.0  0.4793987418583695  0.9849759096781676  0.8661207862481393  1.0000
  H   H285      1.0  0.46303302239125466  0.0070408878859415935  0.8392404900357581  1.0000
  H   H286      1.0  0.4092899541502772  0.9865851527604912  0.8435251990000818  1.0000
  H   H287      1.0  0.4219295870104037  0.9665397241683823  0.872152685845139  1.0000
  H   H288      1.0  0.4058486002540799  0.9436885721631768  0.8484089522790491  1.0000
  N   N9        1.0  0.9028479298758939  0.8179422152612474  0.11969947843581755  1.0000
  C   C321      1.0  0.9154046797841916  0.7840205787663823  0.1136804724398596  1.0000
  C   C322      1.0  0.93081683128147  0.8374135622753633  0.1227727809201237  1.0000
  C   C323      1.0  0.8830343250918784  0.8176378765738583  0.14299200241417384  1.0000
  C   C324      1.0  0.8821905183427575  0.8327446147469693  0.0994280661843281  1.0000
  H   H289      1.0  0.895065581280923  0.768785201177216  0.11046767136585461  1.0000
  H   H290      1.0  0.9302704081631192  0.7718566500166876  0.12896105654641868  1.0000
  H   H291      1.0  0.9315530824214897  0.7832480246700553  0.0967073201883199  1.0000
  H   H292      1.0  0.922337846659794  0.8636033397290958  0.1258985343652624  1.0000
  H   H293      1.0  0.9459103708944576  0.8281148443949541  0.13875708171288836  1.0000
  H   H294      1.0  0.9473209201703394  0.8367115116100173  0.106009814363826  1.0000
  H   H295      1.0  0.8733618586451648  0.8428655560635134  0.1481932316025485  1.0000
  H   H296      1.0  0.8979608584948688  0.8064736804399094  0.1586425989676352  1.0000
  H   H297      1.0  0.8616590350312773  0.8031920715214541  0.14133410186261547  1.0000
  H   H298      1.0  0.8965411251765389  0.8336584476438661  0.08168759704917802  1.0000
  H   H299      1.0  0.8724679392251427  0.8584335843180433  0.10332167408397336  1.0000
  H   H300      1.0  0.8608948935430857  0.8186853649279218  0.0963884322137988  1.0000
  N   N10       1.0  0.48203077900322805  0.05348087958642951  0.2519002826316271  1.0000
  C   C325      1.0  0.5059970375201227  0.05579655378742879  0.271542127429355  1.0000
  C   C326      1.0  0.48685445468094346  0.020690476661596513  0.2412087117886317  1.0000
  C   C327      1.0  0.48698067190242245  0.07835260464710421  0.23219094025900436  1.0000
  C   C328      1.0  0.44834894683284576  0.05911264769937977  0.2625985944622838  1.0000
  H   H301      1.0  0.50245814009373  0.0800946597400148  0.2802473950960569  1.0000
  H   H302      1.0  0.5316897139669746  0.052609401827475206  0.2639858666295739  1.0000
  H   H303      1.0  0.5035870375584132  0.03689004400945506  0.2865175163387506  1.0000
  H   H304      1.0  0.4684397730790387  0.018070639660752175  0.22681532185754244  1.0000
  H   H305      1.0  0.5116572007293663  0.016168789731371813  0.23217277247165674  1.0000
  H   H306      1.0  0.4846649543336144  0.0010808204751189265  0.255686966701285  1.0000
  H   H307      1.0  0.46934827615759356  0.07734376947147027  0.2170147257676806  1.0000
  H   H308      1.0  0.5122723153071589  0.0747709601336233  0.2238989221522039  1.0000
  H   H309      1.0  0.48363999431937227  0.10349409987354984  0.23942483472872753  1.0000
  H   H310      1.0  0.4295170333017322  0.05923483676185639  0.2481169411456501  1.0000
  H   H311      1.0  0.44442613432887607  0.08314776564621293  0.27164533532392776  1.0000
  H   H312      1.0  0.4435397532327033  0.0399257393958871  0.27685523179990046  1.0000
  N   N11       1.0  0.9576353938926133  0.41629261751266583  0.719877873521386  1.0000
  C   C329      1.0  0.9364420445966247  0.393908894828648  0.7329587260522418  1.0000
  C   C330      1.0  0.9439718086701735  0.425917683364212  0.6953701217679812  1.0000
  C   C331      1.0  0.9912002973152767  0.3995981555081907  0.7165708952566034  1.0000
  C   C332      1.0  0.958911330184868  0.4457672089508913  0.7346258625469365  1.0000
  H   H313      1.0  0.945978392734339  0.38645203977428894  0.7516483782380496  1.0000
  H   H314      1.0  0.9351223223787447  0.37123493171438365  0.7225265921129213  1.0000
  H   H315      1.0  0.9108221059928778  0.40576694170132915  0.7355218205308998  1.0000
  H   H316      1.0  0.9597876636234834  0.44234860505622364  0.6848218057423128  1.0000
  H   H317      1.0  0.9421376459899219  0.40425636420810424  0.6838957846688983  1.0000
  H   H318      1.0  0.9188927966801452  0.43922537259675587  0.6972116830741752  1.0000
  H   H319      1.0  0.0022558050566898746  0.3919280481945386  0.7347424958683793  1.0000
  H   H320      1.0  0.007827751954883944  0.41597190726305444  0.7068029862047329  1.0000
  H   H321      1.0  0.9912337742333194  0.37729255206951107  0.705485386404705  1.0000
  H   H322      1.0  0.9340354171974868  0.45924952310476486  0.7371867560822086  1.0000
  H   H323      1.0  0.9750574568805368  0.46304254730384503  0.7254415550474815  1.0000
  H   H324      1.0  0.9687234091901729  0.43931281573851544  0.753379393147894  1.0000
  N   N12       1.0  0.9680113322149814  0.6475793746964936  0.724887379116552  1.0000
  C   C333      1.0  0.9973795601408055  0.6316836478310288  0.7119206163347733  1.0000
  C   C334      1.0  0.9462208093651526  0.6658512165929941  0.7067220652200549  1.0000
  C   C335      1.0  0.9783154499656749  0.6704905107911378  0.7429467752542723  1.0000
  C   C336      1.0  0.9502058402469404  0.6223413777573935  0.7379569249914847  1.0000
  H   H325      1.0  0.014467269557954188  0.6177870023130975  0.7250751222252599  1.0000
  H   H326      1.0  0.011446995506840363  0.6499632111704153  0.7017790710090067  1.0000
  H   H327      1.0  0.9907998960360852  0.6141191545912569  0.6981716438745992  1.0000
  H   H328      1.0  0.923546820416046  0.6777512642561674  0.7158653761977662  1.0000
  H   H329      1.0  0.9588496855334725  0.6852585432116107  0.6966728657562101  1.0000
  H   H330      1.0  0.9381855720239227  0.6494165253918035  0.6926661620093666  1.0000
  H   H331      1.0  0.9929785771539331  0.6891005625335634  0.7338732080737943  1.0000
  H   H332      1.0  0.9936219284387054  0.657549609654879  0.7576774563387322  1.0000
  H   H333      1.0  0.9567465208115563  0.6840346870321887  0.7522331092673231  1.0000
  H   H334      1.0  0.9660440233581664  0.6081877829369629  0.7517575155003697  1.0000
  H   H335      1.0  0.9421632345815538  0.6046665522432988  0.7248016793892652  1.0000
  H   H336      1.0  0.9277713201936115  0.6334265520920523  0.7478372839938023  1.0000
  N   N13       1.0  0.78311589302768  0.5776967552529533  0.6220833805261934  1.0000
  C   C337      1.0  0.817836039840365  0.5706859263505624  0.6292744882143976  1.0000
  C   C338      1.0  0.7697322142776597  0.5468033666926622  0.6163918521389185  1.0000
  C   C339      1.0  0.7810490259247338  0.5998750985802241  0.5999543098732374  1.0000
  C   C340      1.0  0.763757047374924  0.593395634161094  0.6427567657034812  1.0000
  H   H337      1.0  0.8286088734252693  0.5934109235293393  0.6340910411830276  1.0000
  H   H338      1.0  0.8333030469486027  0.55911922754212  0.6140390077195154  1.0000
  H   H339      1.0  0.8202082677595023  0.5537568170264012  0.6458065304358263  1.0000
  H   H340      1.0  0.7435775311136246  0.5512150303025715  0.6108728660953444  1.0000
  H   H341      1.0  0.7836827185012347  0.5341854950751865  0.6008931938874404  1.0000
  H   H342      1.0  0.7704577583985875  0.5295288993843912  0.6327175144107084  1.0000
  H   H343      1.0  0.7550961756829515  0.6060666162879312  0.5943166392510107  1.0000
  H   H344      1.0  0.7946189581047376  0.5885238925524997  0.5837291359531472  1.0000
  H   H345      1.0  0.7914045984102298  0.6232657690384608  0.6033388401699791  1.0000
  H   H346      1.0  0.7372151824212476  0.5981613762334225  0.638328666909831  1.0000
  H   H347      1.0  0.7726207545484446  0.6171449799411093  0.6472595105401105  1.0000
  H   H348      1.0  0.7654348706692894  0.5776023225228547  0.6598791641101907  1.0000
  N   N14       1.0  0.015485586832846066  0.10663784224943752  0.009384962317489531  1.0000
  C   C341      1.0  0.9859429465951762  0.09184551267439893  0.0019333694928984624  1.0000
  C   C342      1.0  0.005390016366296768  0.1377165502289446  0.021812903511805537  1.0000
  C   C343      1.0  0.036120529637322374  0.11324190211753307  0.9872404199507194  1.0000
  C   C344      1.0  0.03460023079608776  0.08372654718478863  0.026515683253404143  1.0000
  H   H349      1.0  0.9705283823342395  0.08548250944930165  0.018342863557939237  1.0000
  H   H350      1.0  0.99268347275145  0.06900466071411747  0.9916987083823888  1.0000
  H   H351      1.0  0.9701247215545507  0.10889609524587292  0.9897622326434932  1.0000
  H   H352      1.0  0.027021611115971567  0.15078695895072966  0.02577186514922669  1.0000
  H   H353      1.0  0.988803639793029  0.15466293961776065  0.010150536669236931  1.0000
  H   H354      1.0  0.9922426813187623  0.13364533673572515  0.039794261781002094  1.0000
  H   H355      1.0  0.022509051509859823  0.13047344261002514  0.9738954125464239  1.0000
  H   H356      1.0  0.04442290171601404  0.09035692602267864  0.9774141063891854  1.0000
  H   H357      1.0  0.05871494626151397  0.12432590114650066  0.9923400584152261  1.0000
  H   H358      1.0  0.04214067204479632  0.05979892652967429  0.017900646621388905  1.0000
  H   H359      1.0  0.020353272784190635  0.07873932401516481  0.043834693307882144  1.0000
  H   H360      1.0  0.05753813752602732  0.09353700300328618  0.0320461477229852  1.0000
  N   N15       1.0  0.35681625117937776  0.6835635543388197  0.49762031964258896  1.0000
  C   C345      1.0  0.38008698499122445  0.6535732049318626  0.4971944103387258  1.0000
  C   C346      1.0  0.3228690008261394  0.6746693665354818  0.495506294401172  1.0000
  C   C347      1.0  0.36466911481468994  0.7057661516853417  0.47668233032319257  1.0000
  C   C348      1.0  0.35971792521510626  0.7001762602750918  0.5211795645527497  1.0000
  H   H361      1.0  0.37446938015913495  0.6360639982691565  0.5125050216040893  1.0000
  H   H362      1.0  0.40591402832350154  0.6592101756936938  0.4993299650560823  1.0000
  H   H363      1.0  0.37903080049658255  0.6405775012154671  0.47955382097767074  1.0000
  H   H364      1.0  0.30457139283984325  0.696666028030316  0.49563411753190595  1.0000
  H   H365      1.0  0.31982811398701466  0.6616555215003301  0.47810390285745075  1.0000
  H   H366      1.0  0.3161135218102445  0.6580195901023167  0.5111029526779851  1.0000
  H   H367      1.0  0.3480735915178089  0.72902459697508  0.476651972794788  1.0000
  H   H368      1.0  0.36243140743980945  0.6942875198533054  0.45854175293474325  1.0000
  H   H369      1.0  0.39026031388462157  0.7126382766837779  0.47755714402440913  1.0000
  H   H370      1.0  0.3426694894028611  0.7230307913073465  0.5221859650050327  1.0000
  H   H371      1.0  0.3850787508000694  0.7070806892583212  0.5234461188516828  1.0000
  H   H372      1.0  0.3540450723415243  0.6841454599198473  0.5374079879573989  1.0000
  N   N16       1.0  0.2954607780787574  0.0545403490665517  0.9392990328639556  1.0000
  C   C349      1.0  0.2881802872890954  0.03385901041659678  0.9187052773749305  1.0000
  C   C350      1.0  0.32953213346125865  0.0633584457583436  0.9362482055814088  1.0000
  C   C351      1.0  0.29176789244450274  0.0363545274044621  0.9631235550275604  1.0000
  C   C352      1.0  0.272269654188112  0.08460063853607336  0.9390388868321197  1.0000
  H   H373      1.0  0.26306252083684994  0.02580675895773843  0.9208167404057576  1.0000
  H   H374      1.0  0.306109207610575  0.011612563467080728  0.9175567888564169  1.0000
  H   H375      1.0  0.2894519919137251  0.04737593929922901  0.9005687657967932  1.0000
  H   H376      1.0  0.33593220188691747  0.07915289231863842  0.9513299206679146  1.0000
  H   H377      1.0  0.34769011199613015  0.0411965574579658  0.936300562508238  1.0000
  H   H378      1.0  0.33318988683875816  0.0767436192345512  0.9182934751411456  1.0000
  H   H379      1.0  0.30887694453985115  0.013479522136460975  0.9639700735713234  1.0000
  H   H380      1.0  0.2662769444923444  0.029341350784178877  0.9659966307117882  1.0000
  H   H381      1.0  0.29690727913423065  0.051278866322801875  0.9791303683396617  1.0000
  H   H382      1.0  0.27343461068017777  0.0983980891086631  0.9209605878029319  1.0000
  H   H383      1.0  0.27748740955253626  0.10128775838203707  0.9538914235398774  1.0000
  H   H384      1.0  0.246481811212053  0.07870984791599511  0.9420128584318473  1.0000
  N   N17       1.0  0.7501594221946429  0.9541482846709313  0.9529734058674912  1.0000
  C   C353      1.0  0.7307704224507862  0.9558340221585414  0.9302018210476913  1.0000
  C   C354      1.0  0.728205427191262  0.9635039833645949  0.9743143678306887  1.0000
  C   C355      1.0  0.775876183633867  0.9768768154836324  0.9502640792672487  1.0000
  C   C356      1.0  0.765803886548701  0.9204516668068768  0.9571908693142547  1.0000
  H   H385      1.0  0.7463828671900132  0.9486209178098446  0.9136984606393161  1.0000
  H   H386      1.0  0.719146079642541  0.9810700032787328  0.9263557595314625  1.0000
  H   H387      1.0  0.7104812976771678  0.9397167697853566  0.9317466463540104  1.0000
  H   H388      1.0  0.7419768925730903  0.9621937299679117  0.9918588729612893  1.0000
  H   H389      1.0  0.7164698921478585  0.9889666111932863  0.971892819278718  1.0000
  H   H390      1.0  0.7080975612695587  0.9472847919779649  0.9766482661532219  1.0000
  H   H391      1.0  0.791090750404805  0.976036216339268  0.9670589071070961  1.0000
  H   H392      1.0  0.764940405685578  0.002594851232184281  0.9473920812088673  1.0000
  H   H393      1.0  0.7926629126874235  0.9709532606036552  0.9341275683125174  1.0000
  H   H394      1.0  0.7827354581495997  0.9126498638409398  0.9415197635317938  1.0000
  H   H395      1.0  0.7470984762567221  0.9026482254961237  0.9593097007309973  1.0000
  H   H396      1.0  0.780527987896574  0.9184439351890498  0.9743370929267321  1.0000
  N   N18       1.0  0.5590359677637214  0.021173351637350013  0.37032820471965794  1.0000
  C   C357      1.0  0.5346597538380895  0.9971009083528055  0.3736718698945179  1.0000
  C   C358      1.0  0.589538778999462  0.00878629773519779  0.3830709721891136  1.0000
  C   C359      1.0  0.5455531868851545  0.05259903746188943  0.38092481797178546  1.0000
  C   C360      1.0  0.5664312117477028  0.026189914552277704  0.3436177203663421  1.0000
  H   H397      1.0  0.5120754761002134  0.004821831363261975  0.3631053841968385  1.0000
  H   H398      1.0  0.5270868987198354  0.9938973654696788  0.3934659145510816  1.0000
  H   H399      1.0  0.5445099377966882  0.9727194494650162  0.3667122116907419  1.0000
  H   H400      1.0  0.6084022898996686  0.02645077542842955  0.3809590836383923  1.0000
  H   H401      1.0  0.5847700662396851  0.004592609051436325  0.40324664953491185  1.0000
  H   H402      1.0  0.6004585344095835  0.9851731568500599  0.37539035142610755  1.0000
  H   H403      1.0  0.5631123099123821  0.0715091371878891  0.37844264452629695  1.0000
  H   H404      1.0  0.5394269250502998  0.04991890325285242  0.4010588897916404  1.0000
  H   H405      1.0  0.5225759151729216  0.06250608423677306  0.3717554792915883  1.0000
  H   H406      1.0  0.5759937435349494  0.0028258443301352187  0.3348821709646576  1.0000
  H   H407      1.0  0.5850286640753959  0.043927835218753764  0.3403239607369034  1.0000
  H   H408      1.0  0.5440188941050652  0.03605615845271415  0.33348304138981744  1.0000
  N   N19       1.0  0.5602662327020915  0.03502208078972324  0.7413637198011334  1.0000
  C   C361      1.0  0.5838065155817083  0.03540839243599647  0.7615454944099296  1.0000
  C   C362      1.0  0.5765170460411134  0.017385244007506406  0.7202368069669669  1.0000
  C   C363      1.0  0.5490994108712206  0.068991334080575  0.7333923675644014  1.0000
  C   C364      1.0  0.5316283109125192  0.018365295679171556  0.7502964194659111  1.0000
  H   H409      1.0  0.5727728599641907  0.049401303861412726  0.777509754361664  1.0000
  H   H410      1.0  0.6063184783772715  0.04666841469914429  0.7552366796312378  1.0000
  H   H411      1.0  0.5920085781365931  0.010390321254156953  0.7687494096346698  1.0000
  H   H412      1.0  0.5872878098636197  0.9924287243283668  0.7259676785092872  1.0000
  H   H413      1.0  0.558830463197647  0.014345941497946768  0.7054679860886823  1.0000
  H   H414      1.0  0.5967631775980838  0.030535134220493143  0.71183106461036  1.0000
  H   H415      1.0  0.5699223441897826  0.08199504625801568  0.725731145971482  1.0000
  H   H416      1.0  0.5377779121231835  0.08343681993137886  0.7490630830818211  1.0000
  H   H417      1.0  0.5306510797630534  0.06958211456725505  0.7186062531667544  1.0000
  H   H418      1.0  0.5134162533093287  0.017596460882235876  0.7354543706253821  1.0000
  H   H419      1.0  0.5191099958552701  0.030806791205170825  0.7664530598818772  1.0000
  H   H420      1.0  0.5391966810574338  0.9925891697122342  0.7562075278387512  1.0000
  N   N20       1.0  0.8091841726624597  0.1713244426746697  0.0628772537597348  1.0000
  C   C365      1.0  0.8332242193393269  0.19566310214700053  0.06438698235022772  1.0000
  C   C366      1.0  0.7846205042359141  0.17583904496812794  0.08340019892628858  1.0000
  C   C367      1.0  0.8264734199474593  0.13795666270018006  0.06474152891634866  1.0000
  C   C368      1.0  0.7924012938846325  0.17581967418920635  0.038948229766709745  1.0000
  H   H421      1.0  0.8519263127782603  0.19308171637357072  0.04907464538495181  1.0000
  H   H422      1.0  0.8466349405761997  0.1929026628553444  0.08208098295816449  1.0000
  H   H423      1.0  0.8210931118951689  0.22114929052985963  0.06297126467371113  1.0000
  H   H424      1.0  0.7709982538893109  0.20070314926452734  0.08252835150651104  1.0000
  H   H425      1.0  0.7660788580278497  0.15784868962333132  0.08278920977284628  1.0000
  H   H426      1.0  0.796403841145169  0.1724335203543106  0.10173973944034197  1.0000
  H   H427      1.0  0.8089777915968229  0.11900305870393908  0.0638973223526578  1.0000
  H   H428      1.0  0.8397461223241445  0.1337068302558243  0.08242002196367412  1.0000
  H   H429      1.0  0.844829922456633  0.13352919183119197  0.0493361763597505  1.0000
  H   H430      1.0  0.7737684012575023  0.15808091042870373  0.037318724367459706  1.0000
  H   H431      1.0  0.810202695217207  0.172143747038881  0.02304778873095303  1.0000
  H   H432      1.0  0.7793964180672447  0.200834595288968  0.036720575493495354  1.0000
  N   N21       1.0  0.1682650572109242  0.5569588684272544  0.5428982179619344  1.0000
  C   C369      1.0  0.13322308043765846  0.568839879855531  0.5396859892232758  1.0000
  C   C370      1.0  0.18746584750631132  0.565449640634046  0.5204929760283189  1.0000
  C   C371      1.0  0.1716015878534643  0.5210405942002713  0.5468399743426701  1.0000
  C   C372      1.0  0.18082377590650334  0.5724398675795954  0.5645246161027481  1.0000
  H   H433      1.0  0.1297788080128278  0.5958918374301458  0.5367518930562194  1.0000
  H   H434      1.0  0.11805990177611918  0.5625444629782859  0.5562897097728167  1.0000
  H   H435      1.0  0.12303023516278858  0.5577745441232463  0.5234070693677717  1.0000
  H   H436      1.0  0.17894310838281122  0.5539521335435538  0.5037830146070301  1.0000
  H   H437      1.0  0.18563757691591867  0.5923664424800335  0.5167745978689009  1.0000
  H   H438      1.0  0.21404959678928134  0.5569702506855613  0.5224063640588557  1.0000
  H   H439      1.0  0.1978195574492846  0.5112432617316133  0.5490516854374986  1.0000
  H   H440      1.0  0.1621790071021502  0.508620862781325  0.5309014072792011  1.0000
  H   H441      1.0  0.15764086798240282  0.5136988688290951  0.5637738769830593  1.0000
  H   H442      1.0  0.2070463701592194  0.5634823629227671  0.5678304702841157  1.0000
  H   H443      1.0  0.1664173779027664  0.5670891290285914  0.5817062191802455  1.0000
  H   H444      1.0  0.17941297941072024  0.5995018784250178  0.5619054683965288  1.0000
  N   N22       1.0  0.3554312130410933  0.04960476592378882  0.33512179908019446  1.0000
  C   C373      1.0  0.33595718855812173  0.08152892098286024  0.33868018435905833  1.0000
  C   C374      1.0  0.3508544555396752  0.027918220726975473  0.3570140214275083  1.0000
  C   C375      1.0  0.3906529117442266  0.05450338421613843  0.3320215878260914  1.0000
  C   C376      1.0  0.3443252432127768  0.03441374113379614  0.3128286869774502  1.0000
  H   H445      1.0  0.33810047075304306  0.09821500827448393  0.322210511033523  1.0000
  H   H446      1.0  0.34461074514107937  0.09429374512837563  0.3547660345644437  1.0000
  H   H447      1.0  0.3093826573419339  0.07874737491193562  0.34188131969970037  1.0000
  H   H448      1.0  0.3644838272324775  0.003332747094605404  0.3545883417359615  1.0000
  H   H449      1.0  0.3599820192677162  0.03807367549008056  0.3740834528808676  1.0000
  H   H450      1.0  0.32452120014475644  0.024174692475349202  0.36040669415015125  1.0000
  H   H451      1.0  0.39523175693829127  0.06964075014905924  0.31509020965522355  1.0000
  H   H452      1.0  0.4062660348426681  0.030850892217972214  0.33053567750826746  1.0000
  H   H453      1.0  0.39942230033907095  0.06736593248246203  0.34802258494436267  1.0000
  H   H454      1.0  0.3585011110996115  0.010241473680058455  0.3096146782788661  1.0000
  H   H455      1.0  0.3473405781129233  0.05017026118346335  0.29592083264795677  1.0000
  H   H456      1.0  0.3178642588321921  0.030261293576679504  0.3145517593787753  1.0000
  N   N23       1.0  0.646432625589282  0.030271085131959863  0.07273471115414148  1.0000
  C   C377      1.0  0.6805782481630415  0.022622518349940224  0.06330166177342582  1.0000
  C   C378      1.0  0.6462331759646057  0.05339346870093942  0.09306088076745857  1.0000
  C   C379      1.0  0.6332571269870846  0.9999158155223764  0.08212904583265777  1.0000
  C   C380      1.0  0.6256639943272712  0.04529754578381229  0.05260735848596554  1.0000
  H   H457      1.0  0.6818290088168929  0.005325749025799853  0.047833061687709046  1.0000
  H   H458      1.0  0.6968142020032647  0.011324447225249834  0.07814494478147295  1.0000
  H   H459      1.0  0.691366754435188  0.04513476134012784  0.05634317081290082  1.0000
  H   H460      1.0  0.6208903718346416  0.06080214884777857  0.10006184052747542  1.0000
  H   H461      1.0  0.6603932430418773  0.04226612171888755  0.10902996664399271  1.0000
  H   H462      1.0  0.6570586297807429  0.0761274114893884  0.08690980479529234  1.0000
  H   H463      1.0  0.6328467094855443  0.9818745848985848  0.06728580546494756  1.0000
  H   H464      1.0  0.6075914696896572  0.004991939470433415  0.08958700766746848  1.0000
  H   H465      1.0  0.6483104300106454  0.9880289807808096  0.0974330322186898  1.0000
  H   H466      1.0  0.5997238665930249  0.051331901392459134  0.059253624570051504  1.0000
  H   H467      1.0  0.6252284277974125  0.028570478953057865  0.03687333449826822  1.0000
  H   H468      1.0  0.6348079426611737  0.06840767835915429  0.04524829762860786  1.0000
  N   N24       1.0  0.23395159714766822  0.04893152966576042  0.15330850993910608  1.0000
  C   C381      1.0  0.25706095563924974  0.030867576735058133  0.13589920727440016  1.0000
  C   C382      1.0  0.20417691306209113  0.0315918540301976  0.15681786350378688  1.0000
  C   C383      1.0  0.22475607412882673  0.08232286288445834  0.14308103704817002  1.0000
  C   C384      1.0  0.24995121293663905  0.05093172333168039  0.17734281603481813  1.0000
  H   H469      1.0  0.26429688125796763  0.005380917786582229  0.14272235369083675  1.0000
  H   H470      1.0  0.2799614158616075  0.04299750988548001  0.13337820203201978  1.0000
  H   H471      1.0  0.246410028511476  0.02972284329026409  0.1172246182814225  1.0000
  H   H472      1.0  0.19175354955472648  0.029566288415590947  0.13892391002958238  1.0000
  H   H473      1.0  0.21034888109407457  0.006327616985568829  0.16455257403333864  1.0000
  H   H474      1.0  0.1860969586884776  0.044578313571236095  0.16980283377967637  1.0000
  H   H475      1.0  0.2138079769224116  0.08181113429142339  0.12447198979877588  1.0000
  H   H476      1.0  0.24662110073405694  0.09630971152605627  0.1408154772609615  1.0000
  H   H477      1.0  0.20676484506966536  0.09652067871277037  0.15541835622882633  1.0000
  H   H478      1.0  0.23318534231959692  0.06390241594667279  0.1911930321001094  1.0000
  H   H479      1.0  0.2722020820458899  0.06444183416973326  0.1753735566214236  1.0000
  H   H480      1.0  0.25812909724583977  0.026211859831487994  0.18536605361076858  1.0000
  N   N25       1.0  0.011543552821697608  0.22211696069602524  0.15314971666380028  1.0000
  C   C385      1.0  0.97780670762992  0.22784178614466785  0.14362227676015848  1.0000
  C   C386      1.0  0.02212753884282459  0.1866240885344253  0.1540746357146623  1.0000
  C   C387      1.0  0.012047616594539783  0.23498368634621983  0.17834097932487092  1.0000
  C   C388      1.0  0.03422644499749294  0.2389696814216255  0.13657569736956043  1.0000
  H   H481      1.0  0.9600488428395194  0.21518393193930338  0.15546008106587306  1.0000
  H   H482      1.0  0.9766677634938202  0.21889273937511425  0.12447239748752192  1.0000
  H   H483      1.0  0.9688369156587445  0.2543340076571606  0.14302353809242274  1.0000
  H   H484      1.0  0.047597430479160714  0.18146962061096839  0.16095308653193063  1.0000
  H   H485      1.0  0.00559477054484426  0.1731467360386313  0.1664438072273524  1.0000
  H   H486      1.0  0.02190396923546279  0.17603734440471633  0.13539998057186398  1.0000
  H   H487      1.0  0.004458901233164182  0.2616978181405537  0.17836476829228087  1.0000
  H   H488      1.0  0.037083527556709614  0.2311540243275699  0.18617801665108447  1.0000
  H   H489      1.0  0.9949037759029079  0.22319515642674087  0.1913208704023015  1.0000
  H   H490      1.0  0.05982584171583105  0.2356872058303552  0.143377131824439  1.0000
  H   H491      1.0  0.026589657493603307  0.2656881354909105  0.13503689052191792  1.0000
  H   H492      1.0  0.03485510753465081  0.22947794508548022  0.11749761284513749  1.0000
  N   N26       1.0  0.498056989823741  0.7180339663719948  0.6237228686612559  1.0000
  C   C389      1.0  0.46724015425122967  0.7023027413057223  0.6270973497536918  1.0000
  C   C390      1.0  0.5265877303712242  0.6929391998111835  0.6255791690218592  1.0000
  C   C391      1.0  0.4997285620308805  0.7425373770301564  0.6429566750533274  1.0000
  C   C392      1.0  0.4985893677811601  0.7344020856163598  0.5990333079707105  1.0000
  H   H493      1.0  0.44522881477280957  0.720585383432224  0.625444629246604  1.0000
  H   H494      1.0  0.465775975504547  0.6896605554847697  0.6455382261326881  1.0000
  H   H495      1.0  0.46513024068942943  0.6839219552880856  0.612676515166009  1.0000
  H   H496      1.0  0.5270646689151325  0.6798195003935932  0.6439053124086347  1.0000
  H   H497      1.0  0.5262191073739462  0.6742704439097623  0.6111224762604343  1.0000
  H   H498      1.0  0.5502911641461641  0.7039075504975331  0.6229482280346904  1.0000
  H   H499      1.0  0.5223465254038167  0.7553990962821966  0.6406127316655107  1.0000
  H   H500      1.0  0.4997169556406868  0.7310755199794855  0.6618838348103909  1.0000
  H   H501      1.0  0.47839451507955744  0.761708419773371  0.6421884173755609  1.0000
  H   H502      1.0  0.4976292271209205  0.716553762144996  0.5840534253855643  1.0000
  H   H503      1.0  0.521234291812619  0.7469778212669745  0.5957647542998097  1.0000
  H   H504      1.0  0.477047489889716  0.7530963932176331  0.596818204067258  1.0000
  N   N27       1.0  0.5048924315054925  0.5150461921045449  0.5264816766219897  1.0000
  C   C393      1.0  0.5195164393488585  0.5061938316313301  0.5019928233471165  1.0000
  C   C394      1.0  0.4710993954131226  0.5053226858087552  0.5284159620606682  1.0000
  C   C395      1.0  0.5040132245300967  0.5507880832678966  0.529279463934758  1.0000
  C   C396      1.0  0.5249423965126065  0.4978708349252514  0.5461927657455424  1.0000
  H   H505      1.0  0.5447523725513546  0.513959281556328  0.4996851372505712  1.0000
  H   H506      1.0  0.5045053848518439  0.5180544040171406  0.48669042001578866  1.0000
  H   H507      1.0  0.5212101242979421  0.4792477204354303  0.49939992247328074  1.0000
  H   H508      1.0  0.4709488201787452  0.478555706210304  0.525962790348916  1.0000
  H   H509      1.0  0.45917598116408076  0.5117305758613927  0.5466103044112921  1.0000
  H   H510      1.0  0.45521377871250246  0.5182467249135755  0.5140057906430858  1.0000
  H   H511      1.0  0.4926164078984067  0.5584558921513216  0.5474016329411604  1.0000
  H   H512      1.0  0.48919173984493164  0.5644926326649413  0.5146111231008016  1.0000
  H   H513      1.0  0.5292068401100415  0.5589195720257001  0.5281158590917544  1.0000
  H   H514      1.0  0.5138601570207917  0.5028760768639475  0.5648780667303619  1.0000
  H   H515      1.0  0.5500898580959702  0.5059448898540311  0.5460278828316496  1.0000
  H   H516      1.0  0.5277598323856979  0.4708757603371728  0.5438692776106997  1.0000
  N   N28       1.0  0.5660559371528757  0.22787061747059598  0.3499979341904186  1.0000
  C   C397      1.0  0.5617671636641182  0.2198966428377094  0.37668132831718465  1.0000
  C   C398      1.0  0.594672265272227  0.24684739172301884  0.3462102872417911  1.0000
  C   C399      1.0  0.5361703614586194  0.24752893328044115  0.3409800800457794  1.0000
  C   C400      1.0  0.5715455031799553  0.19724919051792214  0.33617663696902333  1.0000
  H   H517      1.0  0.5838532582348769  0.20531982582974403  0.3842968845656833  1.0000
  H   H518      1.0  0.5405239181079641  0.20543219148808461  0.3801632643885365  1.0000
  H   H519      1.0  0.5567879830763754  0.242391540946294  0.3877091971869963  1.0000
  H   H520      1.0  0.5987311372483868  0.25325133176298525  0.3262659020080872  1.0000
  H   H521      1.0  0.5910969906391618  0.27012153480405354  0.3564020396544602  1.0000
  H   H522      1.0  0.6176214129732657  0.2327964310198122  0.35294013465928603  1.0000
  H   H523      1.0  0.529963360673769  0.2698344677784101  0.35204032322368883  1.0000
  H   H524      1.0  0.5143761183217597  0.23341080479262133  0.3425135937981243  1.0000
  H   H525      1.0  0.5389749885577888  0.25534218362702443  0.32120832558929874  1.0000
  H   H526      1.0  0.5746030224351636  0.2021877702879586  0.31591817534903255  1.0000
  H   H527      1.0  0.5504113948099147  0.18234084839339856  0.33880569532586  1.0000
  H   H528      1.0  0.5938087442637545  0.1816217446914103  0.34246478317964163  1.0000
  N   N29       1.0  0.050675193378047156  0.544844129077602  0.2828738919478544  1.0000
  C   C401      1.0  0.03364100583263574  0.5773221483568223  0.2763807850198367  1.0000
  C   C402      1.0  0.02842660783732387  0.5259914531389825  0.29832604075991076  1.0000
  C   C403      1.0  0.0804627481243394  0.5489382219708889  0.2968064741621519  1.0000
  C   C404      1.0  0.06012409743949432  0.5271898644858843  0.2599635317428756  1.0000
  H   H529      1.0  0.011391578267934577  0.5750154511407014  0.26542975165444754  1.0000
  H   H530      1.0  0.049779520496297636  0.5922670651466443  0.2647546810401346  1.0000
  H   H531      1.0  0.026071681741374197  0.5914794104902646  0.29314578266897284  1.0000
  H   H532      1.0  0.005629579019107878  0.5224911429088854  0.288407054670936  1.0000
  H   H533      1.0  0.04037138308837318  0.5012222756161111  0.3032088132729612  1.0000
  H   H534      1.0  0.02136268618239967  0.5382574021053894  0.3160047374533823  1.0000
  H   H535      1.0  0.09794424903671795  0.5628577908009739  0.2856674795373694  1.0000
  H   H536      1.0  0.09387808714860624  0.5249749927602104  0.3021986540566589  1.0000
  H   H537      1.0  0.07423618360769324  0.5622781083496802  0.31414026908269893  1.0000
  H   H538      1.0  0.07614094831463891  0.5041861680623538  0.26383532504084745  1.0000
  H   H539      1.0  0.07374421263850128  0.5422919243446905  0.24654040206442426  1.0000
  H   H540      1.0  0.038204886378071956  0.5202361345936722  0.25050425211988375  1.0000
  N   N30       1.0  0.90748853492793  0.3690613198828537  0.9257118926189534  1.0000
  C   C405      1.0  0.9323929567816704  0.36925057215076257  0.9450182038104831  1.0000
  C   C406      1.0  0.9222497835766685  0.3515094148009719  0.9040384813337097  1.0000
  C   C407      1.0  0.8959100078985974  0.4030914273269575  0.9180793140708727  1.0000
  C   C408      1.0  0.8794147766175355  0.3523179454799321  0.9356782949320606  1.0000
  H   H541      1.0  0.9545062350397919  0.38061630332873353  0.9378937498612618  1.0000
  H   H542      1.0  0.9409914605012862  0.3439919003770888  0.951686423572203  1.0000
  H   H543      1.0  0.9224776927182246  0.3831184764913188  0.9613839377665142  1.0000
  H   H544      1.0  0.9041665950214008  0.3505293002774926  0.8891422822987296  1.0000
  H   H545      1.0  0.9431846307558494  0.3637444687685368  0.8958449535173247  1.0000
  H   H546      1.0  0.9320485708488317  0.3259386467130845  0.9091285819776092  1.0000
  H   H547      1.0  0.8779573203114232  0.40396580614820693  0.9028762282997395  1.0000
  H   H548      1.0  0.9166077751611569  0.4166586622888722  0.9109969983067547  1.0000
  H   H549      1.0  0.8838768473492168  0.41698305329206986  0.9337544875342575  1.0000
  H   H550      1.0  0.8600590954710422  0.3519237936552421  0.9216344220460497  1.0000
  H   H551      1.0  0.8678609129817779  0.36469899274566814  0.9522273267921878  1.0000
  H   H552      1.0  0.8873457926437839  0.3264647666004994  0.9413852821446601  1.0000
  N   N31       1.0  0.09424209126093923  0.514609604534056  0.8238180255918885  1.0000
  C   C409      1.0  0.10007514974542189  0.4799371995562833  0.8321534518045844  1.0000
  C   C410      1.0  0.12506232399763859  0.5302289690351031  0.8255825603286502  1.0000
  C   C411      1.0  0.06853849589193343  0.531569329206927  0.839847829182272  1.0000
  C   C412      1.0  0.08336050210559666  0.5167377048986902  0.7979143219025367  1.0000
  H   H553      1.0  0.07754708995425903  0.46708232860506016  0.8307252548415723  1.0000
  H   H554      1.0  0.10735047513171155  0.47763374320760027  0.8518916265617086  1.0000
  H   H555      1.0  0.12001678705401536  0.4665818097430248  0.8209837043756767  1.0000
  H   H556      1.0  0.12129925503453695  0.5567264012805097  0.820476673677202  1.0000
  H   H557      1.0  0.13434231598126747  0.5282887079548426  0.8447909395418873  1.0000
  H   H558      1.0  0.14475836630807049  0.5188290731464644  0.8130620736858534  1.0000
  H   H559      1.0  0.07715639674254289  0.5322290821606944  0.8590732627329846  1.0000
  H   H560      1.0  0.045662621181645574  0.519042419951062  0.8405432205370182  1.0000
  H   H561      1.0  0.06216081120595109  0.5574042998941504  0.8335045606320796  1.0000
  H   H562      1.0  0.07628919736995773  0.5425501003073095  0.7917691785715243  1.0000
  H   H563      1.0  0.06180673324571241  0.5027753861177595  0.7954787909518822  1.0000
  H   H564      1.0  0.10328220308715308  0.5067705030321182  0.7850088718983994  1.0000
  N   N32       1.0  0.10407362882329121  0.25532344725892175  0.9642489364016712  1.0000
  C   C413      1.0  0.13368647421161214  0.27036174593689083  0.9552577319116772  1.0000
  C   C414      1.0  0.07850654149343814  0.2603459289574185  0.9453033840721485  1.0000
  C   C415      1.0  0.09147068050592086  0.27081678713018015  0.9874011226919309  1.0000
  C   C416      1.0  0.11265500642584993  0.21987990204400593  0.9690134757279768  1.0000
  H   H565      1.0  0.1438658301993943  0.259246008918546  0.9377917871605634  1.0000
  H   H566      1.0  0.1534706850114369  0.26710209846783545  0.9691417710415593  1.0000
  H   H567      1.0  0.12803426570933638  0.2971248673096009  0.9514388432500538  1.0000
  H   H568      1.0  0.05563726140480323  0.2496420407684981  0.9515544535870886  1.0000
  H   H569      1.0  0.07162552650116062  0.28685797277623876  0.9411894205088329  1.0000
  H   H570      1.0  0.08700288087241  0.24895633232187156  0.9275422701963364  1.0000
  H   H571      1.0  0.08522862151653679  0.29768349902320124  0.9845775595330836  1.0000
  H   H572      1.0  0.10984022793173348  0.26715202139777156  0.0023050039774836772  1.0000
  H   H573      1.0  0.06863380020927691  0.26067058523265846  0.9944872551905442  1.0000
  H   H574      1.0  0.1321559975527642  0.21515905966456625  0.9830692927322994  1.0000
  H   H575      1.0  0.12204396905642348  0.2072882820142007  0.9519260655616133  1.0000
  H   H576      1.0  0.09102624759098271  0.20773813698035495  0.976157947430029  1.0000
  N   N33       1.0  0.892340099252372  0.5439311517376766  0.27266284160614024  1.0000
  C   C417      1.0  0.9069617617059107  0.573725463971211  0.2637731791680217  1.0000
  C   C418      1.0  0.9065681767385091  0.5326354323272935  0.2966631883733314  1.0000
  C   C419      1.0  0.8996188180195173  0.5180307842909755  0.25445624154903795  1.0000
  C   C420      1.0  0.8562989665846888  0.5512628217672962  0.27569970809955074  1.0000
  H   H577      1.0  0.9023416387802082  0.5936406294484778  0.2772538008466861  1.0000
  H   H578      1.0  0.896285266243181  0.5834236621762012  0.2459255133425246  1.0000
  H   H579      1.0  0.9339939622811856  0.5689351215141465  0.26057420246285895  1.0000
  H   H580      1.0  0.8956977372638388  0.5104956425160115  0.3040451690646539  1.0000
  H   H581      1.0  0.9335931270025362  0.5261855340145853  0.2948935766743987  1.0000
  H   H582      1.0  0.9016612629354538  0.5516922499041943  0.31081321834600234  1.0000
  H   H583      1.0  0.9265539153851842  0.5123669375255306  0.2512309118719683  1.0000
  H   H584      1.0  0.8884295920112332  0.5252996337383513  0.23631481083975922  1.0000
  H   H585      1.0  0.8898406306981226  0.494829707670842  0.26076165605008705  1.0000
  H   H586      1.0  0.8495926148896935  0.5668161684924583  0.2918830787931801  1.0000
  H   H587      1.0  0.8439706941718054  0.528604078936532  0.27890175664224515  1.0000
  H   H588      1.0  0.8452448034667946  0.5640709167573866  0.2589999733143159  1.0000
  N   N34       1.0  0.9483124249779565  0.4284142737832685  0.1406616803369821  1.0000
  C   C421      1.0  0.9412742508660888  0.40809239229929173  0.162831228968409  1.0000
  C   C422      1.0  0.9777440786174252  0.4454472082473404  0.1448016653795379  1.0000
  C   C423      1.0  0.9197860547055778  0.4527682915190502  0.1360004238866071  1.0000
  C   C424      1.0  0.9544246391920226  0.40722428087420337  0.11909606600256352  1.0000
  H   H589      1.0  0.9198328545514768  0.3941066306210733  0.1601275637080419  1.0000
  H   H590      1.0  0.93541616715355  0.4231872028836418  0.1793228285824656  1.0000
  H   H591      1.0  0.9627571444280628  0.3903660477542291  0.16749348325840485  1.0000
  H   H592      1.0  0.9839030354771213  0.4609699070376776  0.12842628656853952  1.0000
  H   H593      1.0  0.9738926874899627  0.46170607058604496  0.16091316702028907  1.0000
  H   H594      1.0  0.9996400260772125  0.4277770362956163  0.14873091903840552  1.0000
  H   H595      1.0  0.9145509558923569  0.4690807444476465  0.15201417002728584  1.0000
  H   H596      1.0  0.8971452882548294  0.4406746973405935  0.1329633769171854  1.0000
  H   H597      1.0  0.9242011051374649  0.46864107499218466  0.11942679200301877  1.0000
  H   H598      1.0  0.9329581678426703  0.3933947593743177  0.11575750189298585  1.0000
  H   H599      1.0  0.9760478309420407  0.3888402955905086  0.12196918441434045  1.0000
  H   H600      1.0  0.9593337693664041  0.42168796673925313  0.10187869366574524  1.0000
  N   N35       1.0  0.21807681969490716  0.47052938579743553  0.6885040028740116  1.0000
  C   C425      1.0  0.24452312039630153  0.4684428147636548  0.6692203263447882  1.0000
  C   C426      1.0  0.21526550927395247  0.5032767736466202  0.6993413713319262  1.0000
  C   C427      1.0  0.22575426215553282  0.4452859180414416  0.7081795786169  1.0000
  C   C428      1.0  0.1865948890773484  0.46514909614101674  0.6773104363503637  1.0000
  H   H601      1.0  0.24743128400704  0.4440439505520698  0.6606501362506367  1.0000
  H   H602      1.0  0.2686083548526763  0.47283127223541516  0.6768907009619549  1.0000
  H   H603      1.0  0.2391330768466786  0.48704306897856287  0.6540413207981892  1.0000
  H   H604      1.0  0.20996918329921846  0.5229732508488323  0.6849343211983722  1.0000
  H   H605      1.0  0.1950574578424588  0.5059186330166303  0.7136509782396402  1.0000
  H   H606      1.0  0.2383931526945792  0.5079880921894575  0.7083293442941657  1.0000
  H   H607      1.0  0.249411127708458  0.44842364272427043  0.7170510163314617  1.0000
  H   H608      1.0  0.22761723194442796  0.42022504730532995  0.7007357803720998  1.0000
  H   H609      1.0  0.20615935466720237  0.4465330467280353  0.7230274494397045  1.0000
  H   H610      1.0  0.17921082029665147  0.48448445341353313  0.663127453237416  1.0000
  H   H611      1.0  0.16635639009344233  0.4653855583809261  0.6915061959651023  1.0000
  H   H612      1.0  0.18804670706962825  0.44122367107161914  0.6681075068474758  1.0000
  N   N36       1.0  0.04665011300270356  0.7770977793114626  0.25008652709067575  1.0000
  C   C429      1.0  0.07017205770555612  0.7827134891702365  0.2693882595261153  1.0000
  C   C430      1.0  0.01785940334117275  0.7632339072606629  0.2617975922709878  1.0000
  C   C431      1.0  0.06280966073298347  0.7539589271630557  0.2320527925019638  1.0000
  C   C432      1.0  0.03569352499929358  0.8083942741971121  0.2371285266835391  1.0000
  H   H613      1.0  0.07853702991271082  0.7594746000114617  0.2796156612708668  1.0000
  H   H614      1.0  0.058794860807731796  0.8001272201444812  0.28327596767943863  1.0000
  H   H615      1.0  0.09239090781875556  0.7929361441752245  0.2612545143071489  1.0000
  H   H616      1.0  0.025097436656334127  0.7393315395356856  0.27140139616678227  1.0000
  H   H617      1.0  0.005245623504317446  0.7797159102844776  0.27579702977061177  1.0000
  H   H618      1.0  0.9993642945978751  0.7591182444521388  0.24784162618231925  1.0000
  H   H619      1.0  0.045679075445174556  0.7490440339207319  0.21725665932094868  1.0000
  H   H620      1.0  0.07133150951723195  0.7299999369226469  0.24114601387226617  1.0000
  H   H621      1.0  0.08453017038099345  0.7636899089102768  0.22272244678619388  1.0000
  H   H622      1.0  0.05674602313177383  0.8196169257050397  0.2280399850748004  1.0000
  H   H623      1.0  0.02304861267946734  0.8263457457730656  0.25009216756684693  1.0000
  H   H624      1.0  0.01798312931674961  0.8047524834960481  0.22238869150691268  1.0000
  N   N37       1.0  0.5890423072892839  0.2601815463856604  0.7308256307570216  1.0000
  C   C433      1.0  0.5976997845006695  0.23031315539479558  0.7462645948676212  1.0000
  C   C434      1.0  0.6033081517533588  0.2556803843238959  0.70556752209076  1.0000
  C   C435      1.0  0.6021713191524565  0.28836378512926336  0.7419248976518494  1.0000
  C   C436      1.0  0.5528760682796307  0.26644177100374744  0.7295201909075302  1.0000
  H   H625      1.0  0.586811908846085  0.23257732086454316  0.765333259588079  1.0000
  H   H626      1.0  0.6247960936960826  0.2247789031795948  0.7478190956447848  1.0000
  H   H627      1.0  0.588200102191972  0.20858107004096882  0.7383949383192361  1.0000
  H   H628      1.0  0.5966141062725502  0.27751819756006324  0.6932687966571468  1.0000
  H   H629      1.0  0.6306016115020979  0.2511536102710125  0.7056847204063393  1.0000
  H   H630      1.0  0.5939508146242602  0.23459028779805915  0.6966109760356025  1.0000
  H   H631      1.0  0.5960257739851287  0.31126681027229125  0.7306731007656253  1.0000
  H   H632      1.0  0.6294399622644861  0.28447611453679794  0.7431999646536832  1.0000
  H   H633      1.0  0.5917892694984189  0.29249439577435915  0.7609584876299177  1.0000
  H   H634      1.0  0.5453067881402618  0.28869208466372215  0.7178994429300692  1.0000
  H   H635      1.0  0.5410319614099112  0.26942405681422144  0.7482100850155153  1.0000
  H   H636      1.0  0.5423805325102661  0.24582289072548028  0.7209608980388861  1.0000
  N   N38       1.0  0.9372112990736241  0.9766479870671358  0.013145811927982807  1.0000
  C   C437      1.0  0.9202331302686159  0.9887759277620733  0.036059839362564  1.0000
  C   C438      1.0  0.932400215668628  0.0019531085725403852  0.9931642635934705  1.0000
  C   C439      1.0  0.923487707853765  0.9466679444282021  0.005734091684012066  1.0000
  C   C440      1.0  0.9727075712098331  0.9690704338383573  0.017716577047121707  1.0000
  H   H637      1.0  0.9243322486857233  0.9706822531101538  0.0517368837555148  1.0000
  H   H638      1.0  0.893178704814226  0.9936711000149006  0.033628416754234676  1.0000
  H   H639      1.0  0.9291374696267487  0.012036666762758719  0.04173767881579215  1.0000
  H   H640      1.0  0.9445433850063634  0.9935360601066523  0.9754994542142267  1.0000
  H   H641      1.0  0.9057812150579652  0.008442507212906625  0.9896231004152601  1.0000
  H   H642      1.0  0.9425033695228319  0.02492116070673145  0.9981131640726999  1.0000
  H   H643      1.0  0.9281920948126764  0.9266871839589261  0.01991612526642439  1.0000
  H   H644      1.0  0.9348087685892359  0.9373855025359348  0.9880264694254691  1.0000
  H   H645      1.0  0.8963737708501915  0.9508961205959909  0.0033722745688011813  1.0000
  H   H646      1.0  0.986307156426229  0.9590476460786113  0.0010549256369307702  1.0000
  H   H647      1.0  0.9769028424328458  0.9503711816878926  0.03303413675161444  1.0000
  H   H648      1.0  0.9840438294780475  0.9911737693735384  0.023105340522133755  1.0000
  N   N39       1.0  0.932094516171171  0.5533939778751763  0.8227652590711534  1.0000
  C   C441      1.0  0.9022753442377629  0.5532379642395985  0.8388875322530882  1.0000
  C   C442      1.0  0.9305104472304058  0.5842566675796134  0.8078753611809424  1.0000
  C   C443      1.0  0.934126672975066  0.5254120534235116  0.8061289254449779  1.0000
  C   C444      1.0  0.9615036111133344  0.5507187525821511  0.8382589963490784  1.0000
  H   H649      1.0  0.9026980880716577  0.5302502807328301  0.8504573266494155  1.0000
  H   H650      1.0  0.8794962337158002  0.5553145260031832  0.8278316390750723  1.0000
  H   H651      1.0  0.8999998334077072  0.574107341815989  0.8516709235110235  1.0000
  H   H652      1.0  0.9523546065016061  0.5851035925815811  0.7952592943594402  1.0000
  H   H653      1.0  0.908067205832724  0.5875545083695365  0.7964974169683438  1.0000
  H   H654      1.0  0.9297496158124884  0.605692986311333  0.8199623040656567  1.0000
  H   H655      1.0  0.9558004649963813  0.5252221130879887  0.7932149599794968  1.0000
  H   H656      1.0  0.9117280332463972  0.5259738365253891  0.7947990861836226  1.0000
  H   H657      1.0  0.9364401061696008  0.5017596057273916  0.8168473308244655  1.0000
  H   H658      1.0  0.9844980875574721  0.5512130809282254  0.8268335354417847  1.0000
  H   H659      1.0  0.963511002215176  0.5275449698528087  0.8496154968942073  1.0000
  H   H660      1.0  0.9604978922873544  0.5712875965024482  0.8512762335641274  1.0000
  N   N40       1.0  0.40428546159787615  0.9371782684040754  0.6138096676190934  1.0000
  C   C445      1.0  0.4384164154422459  0.9455728306691881  0.6156323020029073  1.0000
  C   C446      1.0  0.3828941962256999  0.9559350458652575  0.6319646185975778  1.0000
  C   C447      1.0  0.40329764297482534  0.90176324977918  0.6190511167247069  1.0000
  C   C448      1.0  0.3925978478133123  0.9454587960620802  0.5885282565570104  1.0000
  H   H661      1.0  0.45497544817131874  0.9331390512560602  0.6014476647075816  1.0000
  H   H662      1.0  0.44861033293327673  0.9382756970763451  0.6340962224734416  1.0000
  H   H663      1.0  0.4398836297321191  0.9723746490227132  0.6130376015558916  1.0000
  H   H664      1.0  0.3910910403379958  0.9501685282862063  0.6512087208006183  1.0000
  H   H665      1.0  0.38350413118648263  0.982788548288355  0.6288329895104526  1.0000
  H   H666      1.0  0.3568800452565029  0.9504496247004772  0.6310890745089311  1.0000
  H   H667      1.0  0.3777573997943741  0.894719465137341  0.6189671632248878  1.0000
  H   H668      1.0  0.41362819607346757  0.8941730359326424  0.637469598352183  1.0000
  H   H669      1.0  0.4179256666178294  0.8869713434889079  0.6049818587258545  1.0000
  H   H670      1.0  0.40832052564381294  0.9316133524524064  0.5744188653186239  1.0000
  H   H671      1.0  0.39317482244388124  0.9720054806713201  0.5839556971269282  1.0000
  H   H672      1.0  0.3669189758231862  0.9394187710796565  0.5864461434002088  1.0000
  N   N41       1.0  0.4652107052055887  0.1785698904128474  0.8456657754960131  1.0000
  C   C449      1.0  0.4449742103538833  0.20644999898568445  0.8339456834589369  1.0000
  C   C450      1.0  0.4970165447084996  0.1890968969820074  0.8528405929298111  1.0000
  C   C451      1.0  0.4713132916084596  0.1518449405578889  0.827946111847488  1.0000
  C   C452      1.0  0.4475498236657437  0.16687948728875593  0.8679344415719131  1.0000
  H   H673      1.0  0.4568792411316087  0.21509395491268177  0.8164855223382186  1.0000
  H   H674      1.0  0.44083656837922214  0.22747251514301342  0.8464673394891892  1.0000
  H   H675      1.0  0.42028881483110614  0.19950364401744564  0.8292282425920849  1.0000
  H   H676      1.0  0.5130807950164762  0.16825016673980983  0.8612373392931363  1.0000
  H   H677      1.0  0.5105978361491865  0.1987228321635241  0.836483826680108  1.0000
  H   H678      1.0  0.49354697049882307  0.20866337308389016  0.8666669647016697  1.0000
  H   H679      1.0  0.48331571855735006  0.1602205480053537  0.8104588138310039  1.0000
  H   H680      1.0  0.44799511410270393  0.14220626323039826  0.8229571080782512  1.0000
  H   H681      1.0  0.4876850504225111  0.1309364387990709  0.8358045714698236  1.0000
  H   H682      1.0  0.4420209354045841  0.18656503094138024  0.8814885136783165  1.0000
  H   H683      1.0  0.4623673355261285  0.14624000995038194  0.8775648453029715  1.0000
  H   H684      1.0  0.4236966140310925  0.15807208234939413  0.8630576350841909  1.0000
  N   N42       1.0  0.4516891137951582  0.9237804201429396  0.20630132602879633  1.0000
  C   C453      1.0  0.44834312294424483  0.9056662074422038  0.18350203201703438  1.0000
  C   C454      1.0  0.42072648033562815  0.9445533364305284  0.21149477204148973  1.0000
  C   C455      1.0  0.4789467311641473  0.9446186538606508  0.20284587051241407  1.0000
  C   C456      1.0  0.4586296618000658  0.9004152884651412  0.22735894318869704  1.0000
  H   H685      1.0  0.47115170738303297  0.8894782171111109  0.17911211954224754  1.0000
  H   H686      1.0  0.4434973323918293  0.9227375975297221  0.1672477524217376  1.0000
  H   H687      1.0  0.4275956544169148  0.8901436028679451  0.18531103879305874  1.0000
  H   H688      1.0  0.3998454999542419  0.9295539158888938  0.2152888468895433  1.0000
  H   H689      1.0  0.42294848426554477  0.9596200038424311  0.22789779282644193  1.0000
  H   H690      1.0  0.41382925965640965  0.9615718200793134  0.1956133981115193  1.0000
  H   H691      1.0  0.4837128442279817  0.9568138379190996  0.22018747379622877  1.0000
  H   H692      1.0  0.473317999281281  0.9641220138427522  0.18840231902342933  1.0000
  H   H693      1.0  0.5023554964677573  0.9302049415722656  0.19708226795119185  1.0000
  H   H694      1.0  0.46053050489893177  0.9133191561231726  0.2449830887510091  1.0000
  H   H695      1.0  0.48211940761939287  0.8846498975565953  0.22433325710370625  1.0000
  H   H696      1.0  0.43860376951395674  0.8841416465945451  0.23039974823004478  1.0000
  N   N43       1.0  0.6602079439961485  0.6704686208194146  0.4867830302082074  1.0000
  C   C457      1.0  0.6698943572501455  0.6708058844591686  0.5129148139956399  1.0000
  C   C458      1.0  0.6900378973182946  0.6669184545372485  0.4705702180444474  1.0000
  C   C459      1.0  0.6401191789566848  0.7014303044617377  0.4803599313333969  1.0000
  C   C460      1.0  0.6406847105500164  0.6427090649130304  0.483322563896722  1.0000
  H   H697      1.0  0.6479535660736072  0.6728695992191386  0.5257280209929899  1.0000
  H   H698      1.0  0.6842366586570149  0.6917275386671533  0.5162954936657342  1.0000
  H   H699      1.0  0.6856090943429151  0.6480628293762709  0.5182957750610213  1.0000
  H   H700      1.0  0.6836784002403151  0.6663215016387724  0.450706466494494  1.0000
  H   H701      1.0  0.7053796727209553  0.6874563006258292  0.4726478880488132  1.0000
  H   H702      1.0  0.7058154365637047  0.6438348789522478  0.4750354935933634  1.0000
  H   H703      1.0  0.6177001831466907  0.705008328926577  0.4925494246130479  1.0000
  H   H704      1.0  0.6316188706649984  0.7018480328213389  0.46095482402186744  1.0000
  H   H705      1.0  0.6540808669262437  0.72297714404969  0.48242780701393706  1.0000
  H   H706      1.0  0.6326003374014272  0.6419535080909681  0.4638774155017852  1.0000
  H   H707      1.0  0.6181976742913914  0.6444260308691614  0.4954834492641559  1.0000
  H   H708      1.0  0.6550940664111816  0.6189131260314422  0.487796447450214  1.0000
  N   N44       1.0  0.23237005505656863  0.5511851088894364  0.36939280047812584  1.0000
  C   C461      1.0  0.23561225406703926  0.5174831066183084  0.3801519445180163  1.0000
  C   C462      1.0  0.26537406706308725  0.5625526012721072  0.36588218890474006  1.0000
  C   C463      1.0  0.21237530995283496  0.5730614213868341  0.3863933970387462  1.0000
  C   C464      1.0  0.21614395971325645  0.5517209261982822  0.3452488937847906  1.0000
  H   H709      1.0  0.21123737704107096  0.5078015695996092  0.38260777336768736  1.0000
  H   H710      1.0  0.24657067669220817  0.5164526392883083  0.3988578688348018  1.0000
  H   H711      1.0  0.2512704594356482  0.5003105032302696  0.368235966614173  1.0000
  H   H712      1.0  0.26380166381193426  0.5880761528396614  0.3581170373076081  1.0000
  H   H713      1.0  0.2783383680978013  0.5621268113508799  0.38377413692167195  1.0000
  H   H714      1.0  0.28108944439361067  0.5467434145739205  0.3529914578465447  1.0000
  H   H715      1.0  0.20767541226428055  0.5983397001725175  0.37836872659740767  1.0000
  H   H716      1.0  0.22473259441673016  0.5745423758496456  0.4043403983207936  1.0000
  H   H717      1.0  0.18808983138244662  0.5639938962959543  0.3906615347184292  1.0000
  H   H718      1.0  0.2132266471007323  0.5768081556651201  0.3366257251725042  1.0000
  H   H719      1.0  0.19099031157880494  0.5437687210407331  0.3472744360641823  1.0000
  H   H720      1.0  0.23029548705233904  0.5352094119181493  0.3319850772429061  1.0000
  N   N45       1.0  0.9735499772014227  0.41398444150138847  0.39071420300700527  1.0000
  C   C465      1.0  0.9796893877811058  0.42649614491724586  0.41530647448811003  1.0000
  C   C466      1.0  0.9692026482177851  0.44163341509023973  0.37251946636366073  1.0000
  C   C467      1.0  0.9434293452823931  0.3969048819991683  0.39204679819049565  1.0000
  C   C468      1.0  0.001855111240193441  0.39094187142398545  0.3829448176348252  1.0000
  H   H721      1.0  0.002206744369944058  0.4397238371867526  0.4148279957501861  1.0000
  H   H722      1.0  0.9832234766220109  0.4063527425153293  0.4295118862784331  1.0000
  H   H723      1.0  0.958730627964772  0.44393030609461315  0.42177094369686197  1.0000
  H   H724      1.0  0.9911922445342128  0.45552086634009675  0.37141844928688633  1.0000
  H   H725      1.0  0.9653426500687285  0.4330166412106514  0.3535956121340422  1.0000
  H   H726      1.0  0.9475785474257774  0.45915754942704357  0.37756262691524256  1.0000
  H   H727      1.0  0.9455564927130292  0.3761714455744095  0.40584139489795895  1.0000
  H   H728      1.0  0.9384265576726938  0.38681669551907827  0.3737819298909243  1.0000
  H   H729      1.0  0.9215150495075545  0.4138382194999068  0.39749875020650877  1.0000
  H   H730      1.0  0.9983614692561167  0.38160437167057865  0.3641698713623861  1.0000
  H   H731      1.0  0.00550347779376259  0.3694824832337222  0.39600068829393864  1.0000
  H   H732      1.0  0.025121896145427147  0.4029416983883756  0.38222350254645654  1.0000
  N   N46       1.0  0.5061161649126384  0.21479942737238877  0.5668007026206522  1.0000
  C   C469      1.0  0.5270662923382481  0.23299439568447186  0.5820353118784836  1.0000
  C   C470      1.0  0.47117800720394554  0.22343624711521745  0.573861238901414  1.0000
  C   C471      1.0  0.5148182131253382  0.17929606376488413  0.571007788021584  1.0000
  C   C472      1.0  0.5114047740789439  0.22355454771215452  0.5403330354322472  1.0000
  H   H733      1.0  0.5536162412553038  0.22749861463472013  0.5770504698808723  1.0000
  H   H734      1.0  0.5237452396421561  0.22711341184183823  0.6021610336681424  1.0000
  H   H735      1.0  0.5209630185547345  0.2597883730845268  0.57940177088978  1.0000
  H   H736      1.0  0.45463589641510166  0.20980064586166516  0.5630143283212625  1.0000
  H   H737      1.0  0.46640562814791686  0.21801384710697916  0.5938876217925128  1.0000
  H   H738      1.0  0.46373236787864514  0.2500055156439724  0.5704198979998015  1.0000
  H   H739      1.0  0.541051835295388  0.17204596748599008  0.5658147187114219  1.0000
  H   H740      1.0  0.4994710660627942  0.164754660090706  0.5598248653801199  1.0000
  H   H741      1.0  0.5111654673091638  0.1719405260115896  0.5908458459907244  1.0000
  H   H742      1.0  0.4966724439208548  0.20977164504983667  0.5281096039135731  1.0000
  H   H743      1.0  0.537710743213232  0.21848017927104746  0.5344099706977465  1.0000
  H   H744      1.0  0.5042259722165636  0.2500454305428938  0.536346465845385  1.0000
  N   N47       1.0  0.40712588877412437  0.41485514185108063  0.574421691529135  1.0000
  C   C473      1.0  0.4336304587548566  0.40130130370231687  0.5910063036794565  1.0000
  C   C474      1.0  0.37845341370647106  0.42872725391949645  0.5893038159360613  1.0000
  C   C475      1.0  0.3971158126877739  0.38858045968580524  0.5591463260006966  1.0000
  C   C476      1.0  0.4192193937010238  0.44086160054707973  0.5581512835232396  1.0000
  H   H745      1.0  0.4258425584381697  0.3807171406712936  0.6029395280625828  1.0000
  H   H746      1.0  0.44124375251661185  0.42015516830928323  0.6033123745978551  1.0000
  H   H747      1.0  0.4558342454483788  0.39136072643837616  0.5802285166090732  1.0000
  H   H748      1.0  0.3579801412551426  0.438940802142913  0.5771783726859963  1.0000
  H   H749      1.0  0.36877901291423637  0.4097441142793175  0.6018432971983119  1.0000
  H   H750      1.0  0.38487935399134016  0.44896293150495686  0.6008389378564077  1.0000
  H   H751      1.0  0.3759450908915843  0.39760960061459666  0.5473985161461027  1.0000
  H   H752      1.0  0.3896316421187699  0.36763119438187564  0.5707911312979972  1.0000
  H   H753      1.0  0.4176184591841972  0.37860978301754006  0.5466476348295105  1.0000
  H   H754      1.0  0.39918539377784606  0.4530062747453047  0.546602089859138  1.0000
  H   H755      1.0  0.43925710997818135  0.4308070829741748  0.5452891720282563  1.0000
  H   H756      1.0  0.42867831083229785  0.4601986169893923  0.5690410161474501  1.0000
  N   N48       1.0  0.40047683920305194  0.05995215810485299  0.7356875801494298  1.0000
  C   C477      1.0  0.3655136296172199  0.07321656079480698  0.7375178941380236  1.0000
  C   C478      1.0  0.42118494800178125  0.08705786406574445  0.731063722325442  1.0000
  C   C479      1.0  0.4051543435843836  0.037164560903302  0.715054705644547  1.0000
  C   C480      1.0  0.4100734698581149  0.04230864111250221  0.7590577080158498  1.0000
  H   H757      1.0  0.3489913592871448  0.05336424625267644  0.7384876417298473  1.0000
  H   H758      1.0  0.3581973903666951  0.08934468678946983  0.7212351234659321  1.0000
  H   H759      1.0  0.3602209267551086  0.0876838161260649  0.7544398358107917  1.0000
  H   H760      1.0  0.4186116394488536  0.10448386673823706  0.7464860710887251  1.0000
  H   H761      1.0  0.4476505162238336  0.07793873560078257  0.7289535882969745  1.0000
  H   H762      1.0  0.4141785450023018  0.10133116765500172  0.7137763268575082  1.0000
  H   H763      1.0  0.39078395267555005  0.015806344368859415  0.7181805451523067  1.0000
  H   H764      1.0  0.43140827553743727  0.027393030817426167  0.7126174860823751  1.0000
  H   H765      1.0  0.39710458230212026  0.049345756040266586  0.6972474437424105  1.0000
  H   H766      1.0  0.3940697074827813  0.022478216470580348  0.7635186507917077  1.0000
  H   H767      1.0  0.4077712440716054  0.05908532942321543  0.7749023634667829  1.0000
  H   H768      1.0  0.4359099181379855  0.030865659755400676  0.7579472183070943  1.0000
