data_image0
_chemical_formula_structural       FeS2FeS2FeSFeS3FeS2FeS2FeSFeS3FeS2FeS2FeSFeS3FeS2FeS2FeSFeS3FeS2FeS2FeSFeS3FeS2FeS2FeSFeS3FeS2FeS2FeSFeS3FeS2FeS2FeSFeS3FeS2FeS2FeSFeS3FeS2FeS2FeSFeS3FeS2FeS2FeSFeS3FeS2FeS2FeSFeS3FeS2FeS2FeSFeS3FeS2FeS2FeSFeS3FeS2FeS2FeSFeS3FeS2FeS2FeSFeS3FeS2FeS2FeSFeS3FeS2FeS2FeSFeS3FeS2FeS2FeSFeS3FeS2FeS2FeSFeS3FeS2FeS2FeSFeS3FeS2FeS2FeSFeS3FeS2FeS2FeSFeS3FeS2FeS2FeSFeS3FeS2FeS2FeSFeS3FeS2FeS2FeSFeS3FeS2FeS2FeSFeS3FeS2FeS2FeSFeS3FeS2FeS2FeSFeS3FeS2FeS2FeSFeS3C6H4C6H4C6H4C6H4C6H4C6H4C6H4C6H4C6H4C6H4C6H4C6H4C6H4C6H4C6H4C6H4C6H4C6H4C6H4C6H4C6H4C6H4C6H4C6H4C6H4C6H4C6H4C6H4C6H4C6H4C6H4C6H4C6H4C6H4C6H4C6H4C6H4C6H4C6H4C6H4C6H4C6H4C6H4C6H4C6H4C6H4C6H4C6H4C6H4C6H4C6H4C6H4C6H4C6H4C6H4C6H4C6H4C6H4C6H4C6H4NC4H12NC4H12NC4H12NC4H12NC4H12NC4H12NC4H12NC4H12NC4H12NC4H12NC4H12NC4H12NC4H12NC4H12NC4H12NC4H12NC4H12NC4H12NC4H12NC4H12NC4H12NC4H12NC4H12NC4H12NC4H12NC4H12NC4H12NC4H12NC4H12NC4H12NC4H12NC4H12NC4H12NC4H12NC4H12NC4H12NC4H12NC4H12NC4H12NC4H12NC4H12NC4H12NC4H12NC4H12NC4H12NC4H12NC4H12NC4H12NC4H12NC4H12NC4H12NC4H12NC4H12NC4H12NC4H12NC4H12NC4H12NC4H12NC4H12NC4H12
_chemical_formula_sum              "Fe120 S240 C600 H960 N60"
_cell_length_a       54.470823303017845
_cell_length_b       54.94214323784596
_cell_length_c       50.73652702988984
_cell_angle_alpha    80.12645766572771
_cell_angle_beta     83.05617487625356
_cell_angle_gamma    80.43020993033667

_space_group_name_H-M_alt    "P 1"
_space_group_IT_number       1

loop_
  _space_group_symop_operation_xyz
  'x, y, z'

loop_
  _atom_site_type_symbol
  _atom_site_label
  _atom_site_symmetry_multiplicity
  _atom_site_fract_x
  _atom_site_fract_y
  _atom_site_fract_z
  _atom_site_occupancy
  Fe  Fe1       1.0  0.23756429939450138  0.01977871172089455  0.5402832925261715  1.0000
  S   S1        1.0  0.22922663484019742  0.9942268495043715  0.5785800398910559  1.0000
  S   S2        1.0  0.2282840048475785  0.06064548771750898  0.5437303997421653  1.0000
  Fe  Fe2       1.0  0.2614009248313892  0.9768668233723279  0.5111283858726927  1.0000
  S   S3        1.0  0.25507548524540347  0.9480684435099902  0.5473010469823599  1.0000
  S   S4        1.0  0.28020500108465557  0.9605495083829119  0.47492660612659965  1.0000
  Fe  Fe3       1.0  0.21705707595641002  0.9705939956018567  0.5520678553832478  1.0000
  S   S5        1.0  0.1814328445978341  0.9538117415784914  0.5638319157729634  1.0000
  Fe  Fe4       1.0  0.268032979340758  0.9744810348837161  0.5699560330171355  1.0000
  S   S6        1.0  0.29392057268090904  0.9602118551691692  0.6025974037548953  1.0000
  S   S7        1.0  0.22232803863163  0.9977739357745349  0.5141933789642726  1.0000
  S   S8        1.0  0.27745670737543604  0.0015856348283682714  0.5333802487124052  1.0000
  Fe  Fe5       1.0  0.5173999928255745  0.26850737682461384  0.0011752161437041941  1.0000
  S   S9        1.0  0.530826091299361  0.2828534906855851  0.9586440912456607  1.0000
  S   S10       1.0  0.481984280213179  0.28571887560352827  0.022968880507624023  1.0000
  Fe  Fe6       1.0  0.5644902370935926  0.23146474079202725  0.00970267643956846  1.0000
  S   S11       1.0  0.5817813823516603  0.24306405431745792  0.9681736513697503  1.0000
  S   S12       1.0  0.5873080748462757  0.20129547583136573  0.036064579240358496  1.0000
  Fe  Fe7       1.0  0.5672269747630201  0.28213329966596634  0.9754287845437408  1.0000
  S   S13       1.0  0.5902748504799505  0.31324057775074376  0.9613095131529727  1.0000
  Fe  Fe8       1.0  0.5439708397886459  0.24232231366067447  0.955446229914822  1.0000
  S   S14       1.0  0.5446020118771489  0.22523609384447546  0.9179029625377174  1.0000
  S   S15       1.0  0.5530639902368978  0.2705948658803772  0.018230739463448407  1.0000
  S   S16       1.0  0.5274704470382217  0.22784692312371616  0.9967556107349622  1.0000
  Fe  Fe9       1.0  0.011273885660369354  0.5004839869537948  0.2611188592744721  1.0000
  S   S17       1.0  0.9755476184202928  0.5205794282797183  0.27921429684666865  1.0000
  S   S18       1.0  0.028181632302581416  0.46001521155999514  0.2699191608260007  1.0000
  Fe  Fe10      1.0  0.02791442272960709  0.547813878312868  0.22977332889862356  1.0000
  S   S19       1.0  0.9936161926605571  0.5723242331442451  0.24452813511689286  1.0000
  S   S20       1.0  0.058490932131325064  0.5637745545668449  0.20146055161408907  1.0000
  Fe  Fe11      1.0  0.9990230348809627  0.5490701328122756  0.2848048106257478  1.0000
  S   S21       1.0  0.9975422426385436  0.5632435943441636  0.3243527026958959  1.0000
  Fe  Fe12      1.0  0.9727715155079709  0.5422075559747145  0.23743357614838811  1.0000
  S   S22       1.0  0.9362661609219861  0.5541879866080459  0.21840447024916068  1.0000
  S   S23       1.0  0.03490987101523313  0.5268360877728618  0.2705994359853044  1.0000
  S   S24       1.0  0.006777450493353099  0.5198597219218128  0.2188870347130717  1.0000
  Fe  Fe13      1.0  0.3542782796454602  0.4505171780123668  0.9554595508449556  1.0000
  S   S25       1.0  0.34264366183544764  0.4561450370276447  0.998022595370646  1.0000
  S   S26       1.0  0.3371917128338293  0.47990925649817184  0.9236818820642594  1.0000
  Fe  Fe14      1.0  0.39218799239696017  0.40453116930288935  0.9718202585300862  1.0000
  S   S27       1.0  0.38397646661925816  0.40667777280452094  0.015921724606231924  1.0000
  S   S28       1.0  0.41924794668473575  0.37533880373595435  0.9528300871690417  1.0000
  Fe  Fe15      1.0  0.3439460537212226  0.41473723095172005  0.006672053906147557  1.0000
  S   S29       1.0  0.31245150085580575  0.39792355101629123  0.03195570835868598  1.0000
  Fe  Fe16      1.0  0.38362564007165373  0.4479545833624664  0.002945038738488615  1.0000
  S   S30       1.0  0.39809322677548165  0.4735294999258686  0.025460209091484953  1.0000
  S   S31       1.0  0.3519452370432008  0.40956550842638045  0.9634593506382869  1.0000
  S   S32       1.0  0.39536182619938337  0.44515269237560207  0.9595721644410226  1.0000
  Fe  Fe17      1.0  0.35484772244625007  0.6066801321801499  0.9797669775490647  1.0000
  S   S33       1.0  0.36565429830071694  0.6186015230341685  0.016337237835771016  1.0000
  S   S34       1.0  0.37888518350527184  0.5800560868175676  0.9552490706824214  1.0000
  Fe  Fe18      1.0  0.30299315957350276  0.6357361342136707  0.9832237059420911  1.0000
  S   S35       1.0  0.30884799742428787  0.6509154148138981  0.019967222519834234  1.0000
  S   S36       1.0  0.26623898603931484  0.6456679960023131  0.9650091568783926  1.0000
  Fe  Fe19      1.0  0.34679892252080935  0.6565738112993157  0.9994027865703307  1.0000
  S   S37       1.0  0.3607817125292126  0.6923452089139187  0.0027385779637731926  1.0000
  Fe  Fe20      1.0  0.32717884251899443  0.6120488087819017  0.03400244575925266  1.0000
  S   S38       1.0  0.3200788727373222  0.5923168616945077  0.07606176879773231  1.0000
  S   S39       1.0  0.3391833218096213  0.6452388527294698  0.9609644784126056  1.0000
  S   S40       1.0  0.31814755671670997  0.5962640082189843  0.9991548999979659  1.0000
  Fe  Fe21      1.0  0.20668311874915027  0.5059094337704855  0.9007745671299598  1.0000
  S   S41       1.0  0.2096231585459451  0.5321285280781232  0.8617724686225507  1.0000
  S   S42       1.0  0.22752496169351677  0.4670139265133848  0.9073911990532442  1.0000
  Fe  Fe22      1.0  0.17399109460812742  0.5450186254543289  0.9299027604697775  1.0000
  S   S43       1.0  0.17559886923888468  0.5747377415740014  0.8940822328344598  1.0000
  S   S44       1.0  0.15157617188343675  0.5552970242751543  0.9672510688606588  1.0000
  Fe  Fe23      1.0  0.1684976992666007  0.5449253176999617  0.8717923128155162  1.0000
  S   S45       1.0  0.13391337065535727  0.555674023287594  0.8493008410017512  1.0000
  Fe  Fe24      1.0  0.2161391885379813  0.5588777208214342  0.8883373431291248  1.0000
  S   S46       1.0  0.24890528786566987  0.5800133011266668  0.8801019486017162  1.0000
  S   S47       1.0  0.16520268928724338  0.5158223360531068  0.9083358179204373  1.0000
  S   S48       1.0  0.2150956208426892  0.5320186345511104  0.9267443159060349  1.0000
  Fe  Fe25      1.0  0.20616260666521607  0.5300258957375522  0.10638495137616742  1.0000
  S   S49       1.0  0.21918399839713054  0.5112281751763011  0.1460935283587053  1.0000
  S   S50       1.0  0.2093154164510508  0.5693939301678349  0.08699008351490514  1.0000
  Fe  Fe26      1.0  0.19024748796075608  0.4833062040201718  0.09388206959591944  1.0000
  S   S51       1.0  0.2018686152271655  0.46018363544033525  0.13246739053364479  1.0000
  S   S52       1.0  0.1771495411647178  0.4672101236472971  0.061179230065186795  1.0000
  Fe  Fe27      1.0  0.18388673661899826  0.49397076572869786  0.15120745005070388  1.0000
  S   S53       1.0  0.15979979724898863  0.4893516162792856  0.19081222270303896  1.0000
  Fe  Fe28      1.0  0.23578903509372276  0.4794479063939574  0.12384303946395502  1.0000
  S   S54       1.0  0.2757134011355083  0.46115544638064243  0.12588253070419259  1.0000
  S   S55       1.0  0.1694427491150795  0.515474669295633  0.1130915159856808  1.0000
  S   S56       1.0  0.22568828916520042  0.49979693632099204  0.08369845342196587  1.0000
  Fe  Fe29      1.0  0.4749023085763228  0.7630619921907325  0.09572410612425768  1.0000
  S   S57       1.0  0.4994184592304736  0.7818191982077178  0.06243698905875683  1.0000
  S   S58       1.0  0.46583531461087474  0.7764954395674646  0.13609151715078296  1.0000
  Fe  Fe30      1.0  0.4710687373020451  0.7212533262483718  0.06373959046131379  1.0000
  S   S59       1.0  0.4957638238877179  0.7368876123919775  0.028256650705981157  1.0000
  S   S60       1.0  0.45779781025171895  0.6846508891877557  0.06252670347904471  1.0000
  Fe  Fe31      1.0  0.5194012863487443  0.7431486968135924  0.05924188082465198  1.0000
  S   S61       1.0  0.5608819694224431  0.7352549695897532  0.06312112002445303  1.0000
  Fe  Fe32      1.0  0.47321610542404363  0.773766127286788  0.035327578753957534  1.0000
  S   S62       1.0  0.45401209841048606  0.8035397058139245  0.005259079327518901  1.0000
  S   S63       1.0  0.4963975708946479  0.7246927346055303  0.0941798001789798  1.0000
  S   S64       1.0  0.4469543594836249  0.7576981483800896  0.06888084133746683  1.0000
  Fe  Fe33      1.0  0.38578540432279373  0.9996483790961006  0.7279076044950308  1.0000
  S   S65       1.0  0.3729100649019338  0.03803463404731555  0.7061375141271955  1.0000
  S   S66       1.0  0.3631757787474746  0.9825949269679407  0.7641848659204036  1.0000
  Fe  Fe34      1.0  0.432663460507004  0.9920012921629134  0.69054347762076  1.0000
  S   S67       1.0  0.4241912332945157  0.029444694553112202  0.6654270165068464  1.0000
  S   S68       1.0  0.46917748615635596  0.9667961664248764  0.6874032581269479  1.0000
  Fe  Fe35      1.0  0.41302061640033966  0.043458066701023104  0.7046784453486092  1.0000
  S   S69       1.0  0.428707838785456  0.07646549642960597  0.7131030080794194  1.0000
  Fe  Fe36      1.0  0.3849679832528709  0.020427711782600153  0.6688050530498982  1.0000
  S   S70       1.0  0.3638239682709374  0.031262571980382035  0.6317119277817211  1.0000
  S   S71       1.0  0.4247161095269095  0.0066513146824889804  0.7295148023517364  1.0000
  S   S72       1.0  0.3946454175128797  0.9814266193200251  0.6908346898997965  1.0000
  Fe  Fe37      1.0  0.579609689930292  0.03244355631005781  0.6631218276733882  1.0000
  S   S73       1.0  0.6051828206042453  0.9969803974960553  0.6761996970519865  1.0000
  S   S74       1.0  0.5480757595624365  0.0376480098879484  0.637494261143699  1.0000
  Fe  Fe38      1.0  0.6054261337084101  0.06458290196398597  0.6900169286871406  1.0000
  S   S75       1.0  0.6336507009019974  0.03250941448104979  0.7051643456541276  1.0000
  S   S76       1.0  0.6071640115384255  0.1039518963691284  0.6952581545020796  1.0000
  Fe  Fe39      1.0  0.6354906323857425  0.021051130666015026  0.664571104254722  1.0000
  S   S77       1.0  0.6735050080524416  0.00824540441710614  0.6444197991452012  1.0000
  Fe  Fe40      1.0  0.6010610871990901  0.01137347296300929  0.7155987476828808  1.0000
  S   S78       1.0  0.597532878422981  0.9904165368255493  0.7575754715743825  1.0000
  S   S79       1.0  0.6101609919718046  0.055375287345769235  0.6483606625386661  1.0000
  S   S80       1.0  0.5724765737139371  0.044583466145456815  0.7035835075917626  1.0000
  Fe  Fe41      1.0  0.5298743571882264  0.07283420051737861  0.8501420038366532  1.0000
  S   S81       1.0  0.49528793497166673  0.07435250606716208  0.8788145854580527  1.0000
  S   S82       1.0  0.5604449176233367  0.04039456732142947  0.8510859749222487  1.0000
  Fe  Fe42      1.0  0.5112586125413106  0.12006187239270581  0.8142781481500372  1.0000
  S   S83       1.0  0.47465528066763074  0.12612629228968783  0.8396301811247154  1.0000
  S   S84       1.0  0.5210975973434969  0.1473143925377878  0.7776399397083084  1.0000
  Fe  Fe43      1.0  0.49811294445989984  0.11529868383378489  0.874639420113118  1.0000
  S   S85       1.0  0.4885426891503485  0.13523375381462863  0.9109616829141308  1.0000
  Fe  Fe44      1.0  0.47508194680345445  0.08493864791808052  0.8416648100212797  1.0000
  S   S86       1.0  0.44327500807288744  0.0654056262937893  0.8363182746755715  1.0000
  S   S87       1.0  0.5347899260763463  0.11269434632331918  0.8489432971436205  1.0000
  S   S88       1.0  0.5095607658831279  0.07986781950787812  0.8133333340661503  1.0000
  Fe  Fe45      1.0  0.5037721265382294  0.9235996648496848  0.8806153508327474  1.0000
  S   S89       1.0  0.5277831258361114  0.8947367998549872  0.8586887107454082  1.0000
  S   S90       1.0  0.5133308605014656  0.9460369169490681  0.9096369716226285  1.0000
  Fe  Fe46      1.0  0.4560464156900961  0.9153360351745682  0.8618408769615721  1.0000
  S   S91       1.0  0.47477846584541217  0.8852351756016843  0.8383287425243175  1.0000
  S   S92       1.0  0.41532333835659396  0.9298065645361168  0.8680182036487489  1.0000
  Fe  Fe47      1.0  0.49727772399582365  0.8714230177563673  0.8736238983725464  1.0000
  S   S93       1.0  0.5086906378701771  0.8309314594399307  0.8900701707318833  1.0000
  Fe  Fe48      1.0  0.5036934567697378  0.9106476161852419  0.8250543121024836  1.0000
  S   S94       1.0  0.5163359357347505  0.9181314984278457  0.7810844584801812  1.0000
  S   S95       1.0  0.4754845695055129  0.8990059025561197  0.8985677485966972  1.0000
  S   S96       1.0  0.4828375658167287  0.9420322814239751  0.8454818671871605  1.0000
  Fe  Fe49      1.0  0.44448141978894995  0.9766291498358005  0.3764413831392742  1.0000
  S   S97       1.0  0.4110696680335441  0.9594707104965801  0.3959400088314208  1.0000
  S   S98       1.0  0.4789098320744685  0.9671192592998349  0.39804158263153905  1.0000
  Fe  Fe50      1.0  0.4187266992119868  0.0017735850383993057  0.3270870762978671  1.0000
  S   S99       1.0  0.3834271688807207  0.9859511541048019  0.342118118628641  1.0000
  S   S100      1.0  0.41798754801390375  0.026002190527837667  0.28685978217290303  1.0000
  Fe  Fe51      1.0  0.38930863456882614  0.9966956624424983  0.3812951118488294  1.0000
  S   S101      1.0  0.3600043455007302  0.02093514728604773  0.40409175264407643  1.0000
  Fe  Fe52      1.0  0.40908595031278927  0.9506580865459281  0.3547493499439339  1.0000
  S   S102      1.0  0.4031284539811301  0.9125469155310941  0.34924419155972974  1.0000
  S   S103      1.0  0.4231517651146172  0.01479030966947903  0.3654265438513081  1.0000
  S   S104      1.0  0.44409576446528515  0.9654987169944512  0.33613417233695636  1.0000
  Fe  Fe53      1.0  0.6085546743317414  0.9576855140014434  0.34125201155145035  1.0000
  S   S105      1.0  0.5983906149728851  0.9934061591177333  0.3137133634531611  1.0000
  S   S106      1.0  0.5933898457019794  0.9233372668893891  0.33647257294412697  1.0000
  Fe  Fe54      1.0  0.6392849473081398  0.9813471968898334  0.37342653705501966  1.0000
  S   S107      1.0  0.6318309115366673  0.019318449652730996  0.34858878654587894  1.0000
  S   S108      1.0  0.66172774109963  0.971415006874322  0.4092592458489582  1.0000
  Fe  Fe55      1.0  0.5926786388072816  0.01103121028933951  0.3509315166673115  1.0000
  S   S109      1.0  0.5581219326159437  0.03896430381283933  0.3539377834830536  1.0000
  Fe  Fe56      1.0  0.6383388753583202  0.9982506590184785  0.313618612834452  1.0000
  S   S110      1.0  0.663223682117599  0.010792163511338382  0.2770128806572095  1.0000
  S   S111      1.0  0.5992818050930078  0.9748063870139347  0.37881390098193646  1.0000
  S   S112      1.0  0.6492510078057854  0.9607846006066859  0.3381517560550052  1.0000
  Fe  Fe57      1.0  0.50611451825968  0.8784573038882342  0.24684022139991935  1.0000
  S   S113      1.0  0.5387069464979338  0.8696145417064423  0.21639477314121588  1.0000
  S   S114      1.0  0.49553550820201125  0.8548695163032395  0.28593927963279364  1.0000
  Fe  Fe58      1.0  0.4888280499966709  0.9289754756180749  0.21632658919398862  1.0000
  S   S115      1.0  0.5192647596284788  0.9251964341965281  0.1829170987385086  1.0000
  S   S116      1.0  0.46301799647542663  0.9642141601304625  0.2218552957748771  1.0000
  Fe  Fe59      1.0  0.5108808684724204  0.8859836969500814  0.18629182296293267  1.0000
  S   S117      1.0  0.511129288353791  0.8728883494681926  0.1464832696920673  1.0000
  Fe  Fe60      1.0  0.5443711611356506  0.9094101121450144  0.21520187389208767  1.0000
  S   S118      1.0  0.5792679035327825  0.9262593976542618  0.21483756190368633  1.0000
  S   S119      1.0  0.4777411143031475  0.8914827075963937  0.2168900040957985  1.0000
  S   S120      1.0  0.5146832596463481  0.916500747816147  0.24842580708857792  1.0000
  Fe  Fe61      1.0  0.5241817150160369  0.08681704281616336  0.21152405422137896  1.0000
  S   S121      1.0  0.5548633268807863  0.10960044661101317  0.19552439959129841  1.0000
  S   S122      1.0  0.5111548576830909  0.08306068772469864  0.25553225354906245  1.0000
  Fe  Fe62      1.0  0.5231000615378809  0.06935145495581184  0.1582343943265813  1.0000
  S   S123      1.0  0.5530267228843233  0.0910215644267058  0.13757945743872435  1.0000
  S   S124      1.0  0.5102743737467912  0.04331732064029247  0.13533115164194573  1.0000
  Fe  Fe63      1.0  0.5718382729901161  0.0766853213291367  0.175296708176802  1.0000
  S   S125      1.0  0.6120049081327845  0.059187500690884416  0.17109084357733187  1.0000
  Fe  Fe64      1.0  0.532821183022626  0.1216164961694058  0.15961197621109002  1.0000
  S   S126      1.0  0.5222783852482269  0.16166634408510833  0.14122523688294839  1.0000
  S   S127      1.0  0.5432339056828679  0.05282373710564492  0.19455216135041908  1.0000
  S   S128      1.0  0.5007776884923192  0.10105764538936364  0.17713361623598112  1.0000
  Fe  Fe65      1.0  0.7891784420348185  0.06052983242181805  0.4877997278949479  1.0000
  S   S129      1.0  0.7726330447758228  0.04570033285870842  0.5288456341734146  1.0000
  S   S130      1.0  0.8210773990830497  0.0829289058013752  0.4799044554271058  1.0000
  Fe  Fe66      1.0  0.7577824149151692  0.034078205742517735  0.4593531717292516  1.0000
  S   S131      1.0  0.7389142691829363  0.016327340737760654  0.4979500210472134  1.0000
  S   S132      1.0  0.7478475966273479  0.03287671625106507  0.417748435247459  1.0000
  Fe  Fe67      1.0  0.7360589859945795  0.05385658039254431  0.5106619222142391  1.0000
  S   S133      1.0  0.6985776455452513  0.06921550191457602  0.5298878312726993  1.0000
  Fe  Fe68      1.0  0.7769778336337981  0.009478906641812168  0.5128276803800595  1.0000
  S   S134      1.0  0.7914719137006297  0.9751181776860739  0.5406822096968706  1.0000
  S   S135      1.0  0.7520676671786243  0.07235771627104348  0.4709434659793203  1.0000
  S   S136      1.0  0.7963843234771489  0.0235056195083216  0.4729619232471633  1.0000
  Fe  Fe69      1.0  0.019384146788164126  0.6697279476560607  0.42711852494211816  1.0000
  S   S137      1.0  0.05528105860274133  0.6660978243769533  0.4003033536264178  1.0000
  S   S138      1.0  0.013349810833212735  0.6381871324382009  0.4605371556427279  1.0000
  Fe  Fe70      1.0  0.9992959464923237  0.7192440002212379  0.39529299982299804  1.0000
  S   S139      1.0  0.03392042055620911  0.720176984674743  0.36678503443176946  1.0000
  S   S140      1.0  0.9683889290844567  0.7511363264753605  0.3877852438996164  1.0000
  Fe  Fe71      1.0  0.031072892543735933  0.6798579759999905  0.3664106861295437  1.0000
  S   S141      1.0  0.033162613640039244  0.6670933759622036  0.32597460145035706  1.0000
  Fe  Fe72      1.0  0.054195603505274005  0.7066031746801045  0.403602458994208  1.0000
  S   S142      1.0  0.08739912920823789  0.7198562830946161  0.41603909091804214  1.0000
  S   S143      1.0  0.9951838284355726  0.6798586473246772  0.3930508221900899  1.0000
  S   S144      1.0  0.01959606755918226  0.7093885798210388  0.432340513219983  1.0000
  Fe  Fe73      1.0  0.9866526755606344  0.6802640238046158  0.5863202539188623  1.0000
  S   S145      1.0  0.9913218893355613  0.6783962939333379  0.6298171650909933  1.0000
  S   S146      1.0  0.9582623581846457  0.662170253796662  0.571677373389551  1.0000
  Fe  Fe74      1.0  0.03095308745062667  0.7075638613732312  0.5672060161813609  1.0000
  S   S147      1.0  0.03997702380337779  0.7081248536937715  0.6090438845502377  1.0000
  S   S148      1.0  0.04904089874936717  0.7249086293667462  0.5281402491472323  1.0000
  Fe  Fe75      1.0  0.032197558542029436  0.6684770146360133  0.6173474353055156  1.0000
  S   S149      1.0  0.05746451902987761  0.6352255475192308  0.6364718296084424  1.0000
  Fe  Fe76      1.0  0.9984633480147952  0.7180996113297525  0.6174108228365686  1.0000
  S   S150      1.0  0.9818078725373388  0.7483170891159729  0.6416312538805911  1.0000
  S   S151      1.0  0.026857689249476336  0.6671655302703237  0.5745720405205117  1.0000
  S   S152      1.0  0.9900784135475197  0.7206320579619166  0.5748892836743096  1.0000
  Fe  Fe77      1.0  0.06473579169225502  0.8679594123795135  0.5114826143668725  1.0000
  S   S153      1.0  0.07744078386381455  0.8856095091078804  0.4698721177999581  1.0000
  S   S154      1.0  0.02807115352466229  0.8768805958013105  0.535731912281585  1.0000
  Fe  Fe78      1.0  0.10951284568735717  0.8271925444750943  0.5137001870520285  1.0000
  S   S155      1.0  0.125850089880938  0.8407979416378203  0.47221245584463917  1.0000
  S   S156      1.0  0.1262306698783176  0.7934376029011145  0.5407458890195777  1.0000
  Fe  Fe79      1.0  0.11547629643125154  0.8787748721621761  0.4850798767434492  1.0000
  S   S157      1.0  0.14377239582822232  0.9055492821924019  0.4741020605159153  1.0000
  Fe  Fe80      1.0  0.0864304510358073  0.8461380428071046  0.4610388114957317  1.0000
  S   S158      1.0  0.07240887207298481  0.8352021496863982  0.4252251957915475  1.0000
  S   S159      1.0  0.10193078247187795  0.8644149714188816  0.527582913029555  1.0000
  S   S160      1.0  0.07096760285143404  0.8293191690870092  0.5015693633275927  1.0000
  Fe  Fe81      1.0  0.8571881548994408  0.8527756545507159  0.5022634485753988  1.0000
  S   S161      1.0  0.8840985498900887  0.837157614823127  0.47016020261933067  1.0000
  S   S162      1.0  0.8231804624074216  0.8778121819034709  0.4870452685373421  1.0000
  Fe  Fe82      1.0  0.8905041837006211  0.8288628861429557  0.5463390330808986  1.0000
  S   S163      1.0  0.9204674321901776  0.8121707490665693  0.5177064272799624  1.0000
  S   S164      1.0  0.8919319918096728  0.8225666692528008  0.5910901159397368  1.0000
  Fe  Fe83      1.0  0.9130066185540021  0.8487157246127135  0.49100717601149285  1.0000
  S   S165      1.0  0.9438115235969505  0.8659446273901538  0.46553633360530683  1.0000
  Fe  Fe84      1.0  0.8888051532758864  0.801965186939751  0.4998543591587392  1.0000
  S   S166      1.0  0.8950652538584203  0.7622626888999644  0.4925511929553368  1.0000
  S   S167      1.0  0.8860236008026398  0.8669317427245922  0.5212770446798232  1.0000
  S   S168      1.0  0.8589407241564474  0.8162363227986665  0.5302238203776438  1.0000
  Fe  Fe85      1.0  0.6728130296268172  0.37778462897282417  0.033561225085566644  1.0000
  S   S169      1.0  0.6913465109041719  0.38529010218256704  0.9915232862755973  1.0000
  S   S170      1.0  0.6414898386929726  0.35456857446726586  0.04680843402551541  1.0000
  Fe  Fe86      1.0  0.7047312739678342  0.4089223898945635  0.055857761869188303  1.0000
  S   S171      1.0  0.7256980321035824  0.4188237857248634  0.015871533378517752  1.0000
  S   S172      1.0  0.7128113552726976  0.4270762702636997  0.0898740624363189  1.0000
  Fe  Fe87      1.0  0.6885805555008365  0.42444355915888055  0.9996316758627508  1.0000
  S   S173      1.0  0.6822724698120066  0.45879885191747927  0.9691692615278019  1.0000
  Fe  Fe88      1.0  0.7269114535733994  0.37894676148126116  0.011433916422080248  1.0000
  S   S174      1.0  0.7607810606112929  0.3557805836002146  0.9939000744914094  1.0000
  S   S175      1.0  0.6670779559493611  0.4179438235409988  0.04004910658221916  1.0000
  S   S176      1.0  0.7089200917491744  0.3680547198375195  0.05311784064192904  1.0000
  Fe  Fe89      1.0  0.6546699475647738  0.6269144038890822  0.017565271668501747  1.0000
  S   S177      1.0  0.6430753962954842  0.6031806724844126  0.055982898605645204  1.0000
  S   S178      1.0  0.6263651632150616  0.656111478890551  0.9966816998031413  1.0000
  Fe  Fe90      1.0  0.7049739123375209  0.5939071650365485  0.010134018428611391  1.0000
  S   S179      1.0  0.6967942290610367  0.5665134185391166  0.047038890384639265  1.0000
  S   S180      1.0  0.7437465896426745  0.5898588362816317  0.9887364226811276  1.0000
  Fe  Fe91      1.0  0.6583993894818013  0.5714389949651627  0.03381881249796437  1.0000
  S   S181      1.0  0.6348399443770208  0.5410474477114314  0.04000089402155971  1.0000
  Fe  Fe92      1.0  0.6824394537301344  0.6006253107331977  0.06600367757941195  1.0000
  S   S182      1.0  0.6901565595772984  0.602457466421161  0.10809769598068741  1.0000
  S   S183      1.0  0.6679724099323001  0.5949715993032648  0.9945493755506765  1.0000
  S   S184      1.0  0.6926806433549464  0.6281486922144421  0.029863340231622404  1.0000
  Fe  Fe93      1.0  0.8082153633142793  0.5120191104106983  0.13175056601323457  1.0000
  S   S185      1.0  0.8326991190125854  0.4749105081099215  0.1393332796091047  1.0000
  S   S186      1.0  0.7760420333156333  0.5238277799317496  0.16123663386090992  1.0000
  Fe  Fe94      1.0  0.8381991201536712  0.5284881369163128  0.08005243350953929  1.0000
  S   S187      1.0  0.8655576519010155  0.4931110392097661  0.08254554945867237  1.0000
  S   S188      1.0  0.835996927239958  0.5584209424656361  0.044390844144948254  1.0000
  Fe  Fe95      1.0  0.8317236109334244  0.4741992599264087  0.09544650511222548  1.0000
  S   S189      1.0  0.8261415790821929  0.44179734071160687  0.07633750980411731  1.0000
  Fe  Fe96      1.0  0.864552503350117  0.49695910170409113  0.12613317093310358  1.0000
  S   S190      1.0  0.8994639132490783  0.4849439775023488  0.14790781386588722  1.0000
  S   S191      1.0  0.8045137098184427  0.5092558206196648  0.08897927426317279  1.0000
  S   S192      1.0  0.8400063677314842  0.53433150928278  0.12232094162506595  1.0000
  Fe  Fe97      1.0  0.8652826964897375  0.49201773099648427  0.9277654950307102  1.0000
  S   S193      1.0  0.8432316515686249  0.513723054270022  0.8946844992040304  1.0000
  S   S194      1.0  0.8923918997777311  0.5062810507525893  0.9487033139888037  1.0000
  Fe  Fe98      1.0  0.8499318654587312  0.44304748930535975  0.9225234127377618  1.0000
  S   S195      1.0  0.8272118358033362  0.45980986426853754  0.8881244208958874  1.0000
  S   S196      1.0  0.8565575385323719  0.40264276435414265  0.9399141415173579  1.0000
  Fe  Fe99      1.0  0.8589163814358755  0.48146439733011387  0.8727950558451799  1.0000
  S   S197      1.0  0.8741926090305437  0.4910235105274752  0.82955149011059  1.0000
  Fe  Fe100     1.0  0.8135684354169576  0.4903488090966017  0.912999351899301  1.0000
  S   S198      1.0  0.7721253696252479  0.5026339609428137  0.9194016798994321  1.0000
  S   S199      1.0  0.883013596277824  0.461481085171399  0.9048926720974615  1.0000
  S   S200      1.0  0.8341443110815486  0.4718506059755185  0.9485836057653227  1.0000
  Fe  Fe101     1.0  0.06614616199330214  0.48970710704488857  0.7627957417111096  1.0000
  S   S201      1.0  0.03231576933113254  0.5098603801589324  0.7839165592618834  1.0000
  S   S202      1.0  0.10553258219347442  0.48564487791432254  0.7745140018727932  1.0000
  Fe  Fe102     1.0  0.036078210038296206  0.4774337182588164  0.7208188093260008  1.0000
  S   S203      1.0  0.9999616627704023  0.4968965213055807  0.7385624058432391  1.0000
  S   S204      1.0  0.0349552344441343  0.46211092131064746  0.682554671355165  1.0000
  Fe  Fe103     1.0  0.02232094602134392  0.5266881787931778  0.7423022808322588  1.0000
  S   S205      1.0  0.006054006380232115  0.5674311730417129  0.7338116716673951  1.0000
  Fe  Fe104     1.0  0.01334847688530688  0.47818187034896475  0.7781214601674805  1.0000
  S   S206      1.0  0.9906101463212154  0.45680242932114673  0.8113497761316355  1.0000
  S   S207      1.0  0.05760437718602083  0.5087827324419265  0.7214176347747914  1.0000
  S   S208      1.0  0.04802655571745892  0.45639151299124137  0.76014166254151  1.0000
  Fe  Fe105     1.0  0.0727666873128502  0.16456454750876812  0.5716810290088221  1.0000
  S   S209      1.0  0.06389688958834078  0.14897574441683323  0.5366652886984019  1.0000
  S   S210      1.0  0.05472100907418045  0.1507485904626832  0.6122725533419855  1.0000
  Fe  Fe106     1.0  0.1052901689301686  0.19930325283078795  0.5371282149685198  1.0000
  S   S211      1.0  0.09933076907281004  0.18661447817410506  0.49887661624671675  1.0000
  S   S212      1.0  0.13004347483104922  0.22855202494069388  0.5357933962162675  1.0000
  Fe  Fe107     1.0  0.059263367304481736  0.18863141054249763  0.516084695087064  1.0000
  S   S213      1.0  0.02369897992624579  0.20630388263806618  0.4980645851952325  1.0000
  Fe  Fe108     1.0  0.10471166780585232  0.1479709261040403  0.5229445728646921  1.0000
  S   S214      1.0  0.12342472613836061  0.11358722861751788  0.5053666192141577  1.0000
  S   S215      1.0  0.06471053130779428  0.20433343944428953  0.5522709970886679  1.0000
  S   S216      1.0  0.11402031936684855  0.16051930436020473  0.559986894590633  1.0000
  Fe  Fe109     1.0  0.9534419309999166  0.3321465890149037  0.42722299790829815  1.0000
  S   S217      1.0  0.9914716599594163  0.32229913738101884  0.4417628497758909  1.0000
  S   S218      1.0  0.9206779460181315  0.3194765606647727  0.4541701027671055  1.0000
  Fe  Fe110     1.0  0.9717039779580776  0.36445175940292135  0.376490708915288  1.0000
  S   S219      1.0  0.011655979296248065  0.3570997489457851  0.38642204408964836  1.0000
  S   S220      1.0  0.9554028015449642  0.3924858092988324  0.34294387502536355  1.0000
  Fe  Fe111     1.0  0.004642308805775208  0.3175239508236362  0.39920468873378334  1.0000
  S   S221      1.0  0.03554411664296775  0.2857198474503821  0.39398215641341994  1.0000
  Fe  Fe112     1.0  0.995221876700879  0.36232103617329964  0.42797860154320533  1.0000
  S   S222      1.0  0.01325920700952743  0.38130199999063913  0.4544267985816932  1.0000
  S   S223      1.0  0.9660156842311646  0.32406654850910543  0.3854296160015287  1.0000
  S   S224      1.0  0.9558975684208757  0.37300346919214133  0.41735192177819125  1.0000
  Fe  Fe113     1.0  0.01034826406251854  0.2900292397167798  0.6279600494811244  1.0000
  S   S225      1.0  0.016624543525966092  0.30903524454602693  0.5856161526655416  1.0000
  S   S226      1.0  0.007577156389941164  0.2491668368799934  0.6327317620586957  1.0000
  Fe  Fe114     1.0  0.013141730972396334  0.33682423151978613  0.6514577352806531  1.0000
  S   S227      1.0  0.019407610192973934  0.3597930560795348  0.6108421644318457  1.0000
  S   S228      1.0  0.014843736453774571  0.3507900492138923  0.6905089182625879  1.0000
  Fe  Fe115     1.0  0.9898010518473981  0.34063437453361395  0.59957007127197  1.0000
  S   S229      1.0  0.9606000644473138  0.3573224978024984  0.5717414954080591  1.0000
  Fe  Fe116     1.0  0.04560480439629956  0.3259829668026504  0.6008447085054666  1.0000
  S   S230      1.0  0.08356777145251779  0.32908710224969145  0.5791054791471476  1.0000
  S   S231      1.0  0.9809686880123296  0.3203826600657429  0.6410968516819964  1.0000
  S   S232      1.0  0.04187374819292436  0.30423344449629364  0.6422143661379993  1.0000
  Fe  Fe117     1.0  0.8747562360117347  0.16487012210537794  0.5568294676273281  1.0000
  S   S233      1.0  0.907072540973261  0.14989017153477893  0.5293862220537204  1.0000
  S   S234      1.0  0.8367179219299681  0.15249204932417368  0.561543736438353  1.0000
  Fe  Fe118     1.0  0.9044483956536409  0.20154985264761663  0.5734597775665352  1.0000
  S   S235      1.0  0.9384554997827421  0.18979235718626533  0.5467690672171348  1.0000
  S   S236      1.0  0.90479313200448  0.2311457232307838  0.5990721596354761  1.0000
  Fe  Fe119     1.0  0.9118020069077525  0.18995030597824653  0.5165322201733134  1.0000
  S   S237      1.0  0.9217796406108019  0.20279202588266124  0.47274393530648473  1.0000
  Fe  Fe120     1.0  0.930295481004823  0.15107172895731125  0.5624950155708626  1.0000
  S   S238      1.0  0.9591472135950543  0.11907515234877332  0.5771398242152568  1.0000
  S   S239      1.0  0.8780109331127647  0.20524367011811315  0.5417984118384905  1.0000
  S   S240      1.0  0.8976461304880018  0.16269819979096883  0.5913065070475201  1.0000
  C   C1        1.0  0.9792738093598676  0.24492210515650314  0.6222804588181651  1.0000
  C   C2        1.0  0.956936916549987  0.259805962536577  0.6296724013488691  1.0000
  C   C3        1.0  0.9342089978259519  0.2555372769016872  0.6222446109174319  1.0000
  C   C4        1.0  0.9337747451167278  0.2367773007507545  0.6068699484707787  1.0000
  C   C5        1.0  0.9562911486045269  0.22250234995372214  0.5987012516083544  1.0000
  C   C6        1.0  0.9789364791035655  0.2262155987177233  0.6068256246916569  1.0000
  H   H1        1.0  0.9570481080004988  0.2742297692833342  0.641711774426842  1.0000
  H   H2        1.0  0.9169036406408001  0.2667816259106373  0.6285139236496311  1.0000
  H   H3        1.0  0.9563594441848431  0.20827734975978673  0.5865360364066489  1.0000
  H   H4        1.0  0.9962175407532639  0.21474242006207053  0.600897090837686  1.0000
  C   C7        1.0  0.998422391538437  0.3753810512851995  0.4870296280122075  1.0000
  C   C8        1.0  0.9740043938805959  0.3697116491759629  0.4909218753451799  1.0000
  C   C9        1.0  0.9622138627424666  0.36476302012699746  0.5169868304854565  1.0000
  C   C10       1.0  0.9751252211011323  0.36459385745082556  0.539233350815029  1.0000
  C   C11       1.0  0.9997980566072084  0.3695796900660314  0.5353784637820932  1.0000
  C   C12       1.0  0.011284640930230072  0.37542392580078937  0.5092793442655454  1.0000
  H   H5        1.0  0.9639505028560997  0.36956092360620857  0.4738801477000433  1.0000
  H   H6        1.0  0.9431548195651676  0.36085872250938533  0.519893858282385  1.0000
  H   H7        1.0  0.009859577245930229  0.3694509545586517  0.5525008588529512  1.0000
  H   H8        1.0  0.030207021749960372  0.3796842131653874  0.5063604708103111  1.0000
  C   C13       1.0  0.9202030652541318  0.2872634438393069  0.45790950626606625  1.0000
  C   C14       1.0  0.9037297704086323  0.2763068097375502  0.4780149539877011  1.0000
  C   C15       1.0  0.9041956727986588  0.25035784963940994  0.4825607531597325  1.0000
  C   C16       1.0  0.9207540951452151  0.23533873378183998  0.4666086634246143  1.0000
  C   C17       1.0  0.9367364648276694  0.24635322418674588  0.44594836168234225  1.0000
  C   C18       1.0  0.9365932284985458  0.27231029135604196  0.44175024494169096  1.0000
  H   H9        1.0  0.89083621837118  0.2878943566704186  0.4903447695172894  1.0000
  H   H10       1.0  0.8915369759342612  0.24211490274864772  0.4982480668342325  1.0000
  H   H11       1.0  0.9495395343157488  0.2348497637195226  0.43346290242307123  1.0000
  H   H12       1.0  0.9489764392714238  0.28079045620981624  0.42585995855968917  1.0000
  C   C19       1.0  0.026658110510323994  0.14320115245599765  0.6047868911011978  1.0000
  C   C20       1.0  0.017910920689667167  0.12128986262512131  0.6178429892385005  1.0000
  C   C21       1.0  0.9971951662405921  0.1138224088861818  0.609172571585239  1.0000
  C   C22       1.0  0.9849488159548329  0.12855310092907016  0.5878854292802269  1.0000
  C   C23       1.0  0.9932680197229224  0.15083267398963865  0.5755019486134088  1.0000
  C   C24       1.0  0.014131557343789236  0.15810109495399982  0.5838499450415379  1.0000
  H   H13       1.0  0.027837395285360847  0.10952105730950978  0.6337330489360551  1.0000
  H   H14       1.0  0.9908528476168508  0.09649273097309492  0.6187211726476719  1.0000
  H   H15       1.0  0.9842116389668744  0.16211825673994323  0.5589158428481353  1.0000
  H   H16       1.0  0.020834204198816517  0.1750474228345901  0.5736435631385909  1.0000
  C   C25       1.0  0.02715857720275305  0.226626287488912  0.4677675705244443  1.0000
  C   C26       1.0  0.006125973056417156  0.24255629183361563  0.45852004305961697  1.0000
  C   C27       1.0  0.00865758504328328  0.26018598900433526  0.4353154948993185  1.0000
  C   C28       1.0  0.03209952635014046  0.2617214950463783  0.4210913356614267  1.0000
  C   C29       1.0  0.05301019350339908  0.2451365194969737  0.4297451608199313  1.0000
  C   C30       1.0  0.05056712968524243  0.22767046178734435  0.45322280665275017  1.0000
  H   H17       1.0  0.9878792103294071  0.24151641631571996  0.46940610151343354  1.0000
  H   H18       1.0  0.9924353465808969  0.2725628446281559  0.42826274316392327  1.0000
  H   H19       1.0  0.07115688033257439  0.24618588839335157  0.4186304296884595  1.0000
  H   H20       1.0  0.06679683400544968  0.21514112905626587  0.46002255227660005  1.0000
  C   C31       1.0  0.11697962360146029  0.2561950072005348  0.5483145435914691  1.0000
  C   C32       1.0  0.13046278815821757  0.2763499101836643  0.543804399237062  1.0000
  C   C33       1.0  0.12021358008737251  0.2987456537842009  0.5533303859295188  1.0000
  C   C34       1.0  0.09653585490362306  0.30095221293516256  0.5676183252259956  1.0000
  C   C35       1.0  0.08321598084699611  0.2807081585480514  0.5724279617481018  1.0000
  C   C36       1.0  0.09336334175279178  0.2584421573251341  0.5626514983594646  1.0000
  H   H21       1.0  0.14880781262560294  0.27467887629148696  0.53277439655913  1.0000
  H   H22       1.0  0.13063922768164743  0.31432271752007357  0.5495825770418248  1.0000
  H   H23       1.0  0.06515771621706344  0.28209710900116275  0.5838325470585435  1.0000
  H   H24       1.0  0.08305136594759821  0.2429632797670078  0.5665292402037951  1.0000
  C   C37       1.0  0.028812575266448204  0.4313272589093471  0.6854488981754779  1.0000
  C   C38       1.0  0.03392181355137436  0.4138306473263758  0.7083307205942202  1.0000
  C   C39       1.0  0.02970080523802595  0.38908258215019237  0.7096431970542794  1.0000
  C   C40       1.0  0.020129114686417135  0.3818176692683937  0.6882332218294771  1.0000
  C   C41       1.0  0.014797790447402592  0.39938786770498114  0.6654985189751657  1.0000
  C   C42       1.0  0.01932948041987455  0.42402142990942  0.66402291577871  1.0000
  H   H25       1.0  0.04160112494021042  0.41922842800022425  0.7247708252033072  1.0000
  H   H26       1.0  0.033991671221929566  0.37548847894993675  0.7272218568735769  1.0000
  H   H27       1.0  0.00680363670207893  0.3941471760044195  0.6492034150061998  1.0000
  H   H28       1.0  0.015242306772276774  0.437533781417019  0.6463211324950375  1.0000
  C   C43       1.0  0.906170939763107  0.480200021416546  0.8230033338513137  1.0000
  C   C44       1.0  0.9202963074651019  0.4929345414530127  0.8017337112344334  1.0000
  C   C45       1.0  0.9463536313588192  0.48608624745742524  0.7980314463334965  1.0000
  C   C46       1.0  0.9582010826510048  0.4661617851469595  0.8153109715947957  1.0000
  C   C47       1.0  0.9439444932327954  0.452882834401546  0.8359130048540665  1.0000
  C   C48       1.0  0.9179846162139583  0.4598367479883491  0.8396989983773425  1.0000
  H   H29       1.0  0.9111632495238383  0.5085834157451579  0.78860867321799  1.0000
  H   H30       1.0  0.9572368044162644  0.4963680370210269  0.7820169739512047  1.0000
  H   H31       1.0  0.9530050590436202  0.43719400117711926  0.8490614071622191  1.0000
  H   H32       1.0  0.9071251043353689  0.4493142525293631  0.8554690154049557  1.0000
  C   C49       1.0  0.8767583407424843  0.521848991225202  0.9745069549251386  1.0000
  C   C50       1.0  0.8897385546019203  0.524085496571158  0.9958990530111984  1.0000
  C   C51       1.0  0.8771230911935127  0.5353071217304374  0.01745750101901843  1.0000
  C   C52       1.0  0.8517416685391513  0.5449882336749697  0.0171687206475505  1.0000
  C   C53       1.0  0.838749262603837  0.5429077251203636  0.9956836027459679  1.0000
  C   C54       1.0  0.8512111823141315  0.5310094380939472  0.9744580016487996  1.0000
  H   H33       1.0  0.909458768680026  0.5168550222822881  0.9960251745021551  1.0000
  H   H34       1.0  0.8870893637239202  0.5367671917818282  0.034202477065436575  1.0000
  H   H35       1.0  0.8190396648527845  0.5501886074698246  0.9956596669366129  1.0000
  H   H36       1.0  0.8411410327082223  0.529196966341141  0.9579581794981588  1.0000
  C   C55       1.0  0.7134381578479643  0.5797287659205479  0.12266654709505731  1.0000
  C   C56       1.0  0.7293158564226735  0.5635868029192581  0.10737858348680256  1.0000
  C   C57       1.0  0.7483536171053385  0.5462484817487198  0.11916705461937438  1.0000
  C   C58       1.0  0.751674655487456  0.5448798034729344  0.14633505466352478  1.0000
  C   C59       1.0  0.7354501083745574  0.5606637776618645  0.16178257121053885  1.0000
  C   C60       1.0  0.7165096837651224  0.5781601536965733  0.1499320539682062  1.0000
  H   H37       1.0  0.7274087515987904  0.5648008536805843  0.08636202305941613  1.0000
  H   H38       1.0  0.7602437979981047  0.5338217260020207  0.10725177802922828  1.0000
  H   H39       1.0  0.7377866762442645  0.5596807829234413  0.1828363510842777  1.0000
  H   H40       1.0  0.7043033463490028  0.5905917679039545  0.16191117089146512  1.0000
  C   C61       1.0  0.7508810903155203  0.5673711953523051  0.9671564417278632  1.0000
  C   C62       1.0  0.732407338819368  0.5548646538135036  0.961129555880986  1.0000
  C   C63       1.0  0.7389101408724817  0.535937349847689  0.9450405890301721  1.0000
  C   C64       1.0  0.7639227315753834  0.5289914990231683  0.9356570298063405  1.0000
  C   C65       1.0  0.782288426057372  0.5419302149053691  0.9411103985919294  1.0000
  C   C66       1.0  0.7757293827104779  0.5612239812998353  0.9566808559356794  1.0000
  H   H41       1.0  0.7131426093827781  0.5597687644525664  0.9688284481287568  1.0000
  H   H42       1.0  0.7246373426370529  0.5262845834284983  0.9403326122102568  1.0000
  H   H43       1.0  0.8015864273780273  0.5368441278640685  0.9336952524822179  1.0000
  H   H44       1.0  0.7900118406592582  0.5710902871140205  0.9610380535594741  1.0000
  C   C67       1.0  0.6678761919741691  0.48253403316395915  0.9871741021002356  1.0000
  C   C68       1.0  0.6777962585223843  0.5048513777683474  0.9840257722076217  1.0000
  C   C69       1.0  0.6676752456456342  0.5229651230280346  0.0002678958454218616  1.0000
  C   C70       1.0  0.647255448861308  0.5189269176596266  0.0191667287123789  1.0000
  C   C71       1.0  0.637075345763613  0.4967979290644276  0.021989061654720476  1.0000
  C   C72       1.0  0.6475156848550058  0.4785173759279187  0.006110803446615521  1.0000
  H   H45       1.0  0.6935643323728742  0.5078783590803361  0.9694330047649834  1.0000
  H   H46       1.0  0.6756686200674275  0.5399961418881167  0.9980952161460164  1.0000
  H   H47       1.0  0.6212604594567478  0.4936477076702041  0.036566331790150605  1.0000
  H   H48       1.0  0.6396320871420612  0.461384758526331  0.008316110108020025  1.0000
  C   C73       1.0  0.7449147400391243  0.4283403598419772  0.0890926439215865  1.0000
  C   C74       1.0  0.7530287648016103  0.4443881446945775  0.10380200677166097  1.0000
  C   C75       1.0  0.7782289285172894  0.44782986965362037  0.1007999483141368  1.0000
  C   C76       1.0  0.7954204028654623  0.4350606357247765  0.08324465241651068  1.0000
  C   C77       1.0  0.7875689158780605  0.41808300759385086  0.06958054794888661  1.0000
  C   C78       1.0  0.7623240366121364  0.4148210423911597  0.07239328576883967  1.0000
  H   H49       1.0  0.7398385343044966  0.45454933580236423  0.11714087755700016  1.0000
  H   H50       1.0  0.7842670763620505  0.46060136232154536  0.11182864197052358  1.0000
  H   H51       1.0  0.8008693254499712  0.4078462736709849  0.05629887447369335  1.0000
  H   H52       1.0  0.7563534940570016  0.40186433171733654  0.06155017335162051  1.0000
  C   C79       1.0  0.787120459389998  0.36979318132349726  0.9798720839574647  1.0000
  C   C80       1.0  0.7865538952381169  0.39578483197762154  0.9752600814321921  1.0000
  C   C81       1.0  0.8078341272321186  0.40613590315129083  0.9628842169503884  1.0000
  C   C82       1.0  0.8297153732913273  0.3904645175873514  0.9555281803466537  1.0000
  C   C83       1.0  0.8303502670778512  0.3645827663167511  0.9606343340662133  1.0000
  C   C84       1.0  0.80906684465107  0.35430706814992635  0.9725206360318148  1.0000
  H   H53       1.0  0.7697637867062989  0.4078189714440425  0.980976557707401  1.0000
  H   H54       1.0  0.807408942654402  0.4261248695823696  0.9590630401255512  1.0000
  H   H55       1.0  0.8472381676843121  0.3524102412358961  0.9550443419062167  1.0000
  H   H56       1.0  0.8096231747813437  0.3342339545413457  0.9760588202375922  1.0000
  C   C85       1.0  0.004121900035552349  0.8747609031213074  0.5164407087418073  1.0000
  C   C86       1.0  0.9807257440549939  0.8697519858192121  0.5289119197261807  1.0000
  C   C87       1.0  0.9620695882268588  0.866844241964903  0.5133636705843457  1.0000
  C   C88       1.0  0.9666395636849529  0.8696711999694867  0.4853351755956947  1.0000
  C   C89       1.0  0.9898043123259621  0.8751447877762614  0.47291487394772574  1.0000
  C   C90       1.0  0.008640870380702374  0.8772324014287047  0.4884754235826871  1.0000
  H   H57       1.0  0.9770803043258613  0.8679015115311167  0.5505402215800485  1.0000
  H   H58       1.0  0.9441377349185496  0.8626515217130056  0.5230729849046273  1.0000
  H   H59       1.0  0.9933945005300243  0.8773979134723356  0.4512419455579749  1.0000
  H   H60       1.0  0.026546155999577135  0.8811429123206903  0.47867766682167684  1.0000
  C   C91       1.0  0.04306595370350611  0.6167130089749904  0.6635902532154624  1.0000
  C   C92       1.0  0.05172237009610488  0.5910655604593539  0.6685759675547823  1.0000
  C   C93       1.0  0.0401639616402388  0.5757581909472836  0.6898036484599586  1.0000
  C   C94       1.0  0.020291799469726344  0.5860998897812025  0.706531878458538  1.0000
  C   C95       1.0  0.011705798873260747  0.6117996512073822  0.7015862616525724  1.0000
  C   C96       1.0  0.023017779172437244  0.6270933867450136  0.6800779457728547  1.0000
  H   H61       1.0  0.06709842212532603  0.5829645389455981  0.6556693137853395  1.0000
  H   H62       1.0  0.04646050122531688  0.5559563364992758  0.6929375502124  1.0000
  H   H63       1.0  0.9963771502958998  0.6199411564217956  0.7145227419661725  1.0000
  H   H64       1.0  0.0165110676395665  0.6469716688747794  0.6765826484388837  1.0000
  C   C97       1.0  0.0739403192499746  0.7403340549781204  0.5310997757956666  1.0000
  C   C98       1.0  0.08458757519332728  0.7375577514854084  0.5554034149964518  1.0000
  C   C99       1.0  0.10231145384804477  0.7526190099890828  0.5581031587067581  1.0000
  C   C100      1.0  0.1094208867655758  0.7701949886816614  0.5363494455976068  1.0000
  C   C101      1.0  0.10018186622111766  0.7714813604429979  0.511598741502152  1.0000
  C   C102      1.0  0.08239782806832292  0.7566547179345012  0.5089500132246091  1.0000
  H   H65       1.0  0.07882852087922865  0.7242833622238704  0.5722803815940299  1.0000
  H   H66       1.0  0.10959344944933258  0.7514560485410798  0.5772724935522415  1.0000
  H   H67       1.0  0.10618660387263575  0.7846272014226775  0.4946729238481035  1.0000
  H   H68       1.0  0.07457021741483716  0.7585557168486062  0.48996703157891475  1.0000
  C   C103      1.0  0.9574760921525476  0.76947687618573  0.6270862358015366  1.0000
  C   C104      1.0  0.9578263399480736  0.7762123503408292  0.599176225734738  1.0000
  C   C105      1.0  0.9379914032336273  0.7928139813045416  0.5879221529908956  1.0000
  C   C106      1.0  0.9176483247883812  0.8026298725171646  0.6044933286328953  1.0000
  C   C107      1.0  0.9175730757877257  0.7962558082356506  0.6324091876611851  1.0000
  C   C108      1.0  0.9375120668575927  0.7798629373687771  0.643681810567767  1.0000
  H   H69       1.0  0.9735139250197531  0.7690541686259312  0.5862079441448425  1.0000
  H   H70       1.0  0.938641640317846  0.7981512067346564  0.5665102647352391  1.0000
  H   H71       1.0  0.9020163649036433  0.8039733825930265  0.6453690661933028  1.0000
  H   H72       1.0  0.9372691178589122  0.7749636436180153  0.6652946427929911  1.0000
  C   C109      1.0  0.9957200066845009  0.6464607390052447  0.4898227103199567  1.0000
  C   C110      1.0  0.9820818208933138  0.6291191778336517  0.5061350313747395  1.0000
  C   C111      1.0  0.969205972475431  0.6346104050168618  0.5305579576975917  1.0000
  C   C112      1.0  0.9707702871459036  0.6570709200962586  0.5392223636660403  1.0000
  C   C113      1.0  0.9842768777676665  0.6745140186627816  0.5228636681338343  1.0000
  C   C114      1.0  0.9963328597133815  0.6694118750102726  0.49793267915669864  1.0000
  H   H73       1.0  0.9815200112103581  0.6113868535482003  0.4998315303251803  1.0000
  H   H74       1.0  0.9587525221246176  0.6210962618524332  0.5429965397144156  1.0000
  H   H75       1.0  0.9855598375900415  0.691927257985687  0.5294297856787574  1.0000
  H   H76       1.0  0.006744642877732682  0.6828840001435852  0.48544536349502854  1.0000
  C   C115      1.0  0.0834211023283844  0.751981804625931  0.41817005852488426  1.0000
  C   C116      1.0  0.09815760939526734  0.7607287297656832  0.43430677087672076  1.0000
  C   C117      1.0  0.09497197908362237  0.7862614981538598  0.4365110906616895  1.0000
  C   C118      1.0  0.07734241552721201  0.8032153461106599  0.4222633187793628  1.0000
  C   C119      1.0  0.06310247785080644  0.7945563991880764  0.40554871358568095  1.0000
  C   C120      1.0  0.06582477922680972  0.768953104783819  0.4038348919778469  1.0000
  H   H77       1.0  0.1119938199882942  0.7477622937621384  0.4452328266185607  1.0000
  H   H78       1.0  0.10652714875419703  0.7929672938897377  0.44872123122653645  1.0000
  H   H79       1.0  0.049819378188208835  0.8076988561514895  0.3940217667770109  1.0000
  H   H80       1.0  0.054686936131099276  0.762423760702231  0.3909902153230505  1.0000
  C   C121      1.0  0.9477901459120642  0.7537159312537302  0.41676935667166537  1.0000
  C   C122      1.0  0.9478207766180106  0.7339344592441671  0.43820730514445505  1.0000
  C   C123      1.0  0.9313264994529191  0.7364468455338479  0.46140580665725656  1.0000
  C   C124      1.0  0.9152698909669592  0.7589244422181368  0.4633645633330043  1.0000
  C   C125      1.0  0.9156258555260961  0.7787667805678772  0.4420826468844024  1.0000
  C   C126      1.0  0.9316858879201209  0.7760921452186307  0.4187091851241627  1.0000
  H   H81       1.0  0.9602383888597165  0.7165647825233197  0.43678554244601997  1.0000
  H   H82       1.0  0.9311222240377759  0.7210268618626968  0.4778320314861369  1.0000
  H   H83       1.0  0.9030073467613962  0.7959619246254884  0.4432633160897442  1.0000
  H   H84       1.0  0.9316709653012889  0.7914272820923086  0.402176422289177  1.0000
  C   C127      1.0  0.8250565997033559  0.09943854139699991  0.5054156493679662  1.0000
  C   C128      1.0  0.8045210460073305  0.1110993415022615  0.5203401575114617  1.0000
  C   C129      1.0  0.8082464384695994  0.12683971684790596  0.538193940015162  1.0000
  C   C130      1.0  0.8324841459671267  0.13062707465460516  0.541436259038795  1.0000
  C   C131      1.0  0.8529483403814936  0.11786213698643619  0.5275445966802903  1.0000
  C   C132      1.0  0.8492519611516218  0.1026653495802423  0.5092601724817835  1.0000
  H   H85       1.0  0.7857747255388077  0.10870569867719312  0.5173974134991284  1.0000
  H   H86       1.0  0.7923177194786833  0.1364971096621978  0.5490682838730991  1.0000
  H   H87       1.0  0.8716525922136841  0.11962578748006432  0.5308454167134429  1.0000
  H   H88       1.0  0.8651828375292638  0.09334868617908097  0.49805769675088063  1.0000
  C   C133      1.0  0.8002001178004952  0.9482486888707489  0.5255540768666698  1.0000
  C   C134      1.0  0.79295278376561  0.9474320566148832  0.5002591887920813  1.0000
  C   C135      1.0  0.7997005393407828  0.9255064068846497  0.4887548446635182  1.0000
  C   C136      1.0  0.81402555175081  0.9045808237268061  0.5023204996000697  1.0000
  C   C137      1.0  0.8212692336932235  0.9054407690537729  0.5276035754868996  1.0000
  C   C138      1.0  0.8142078406018506  0.9272190795275971  0.5392888197537888  1.0000
  H   H89       1.0  0.7820307548607089  0.9636009451075378  0.4896375275214797  1.0000
  H   H90       1.0  0.7940109530903062  0.9248091081354212  0.4692149027530839  1.0000
  H   H91       1.0  0.8320923678340464  0.8892348720768776  0.5382739721265425  1.0000
  H   H92       1.0  0.8197777213153706  0.9278100212535821  0.5589110824439811  1.0000
  C   C139      1.0  0.4724190665594644  0.987502742158101  0.19648857165900566  1.0000
  C   C140      1.0  0.4738440502934063  0.010979329477536659  0.20269891816775357  1.0000
  C   C141      1.0  0.484918436535622  0.028512732884077963  0.18362507022460112  1.0000
  C   C142      1.0  0.49368905535125746  0.0228326132470853  0.1580012670907224  1.0000
  C   C143      1.0  0.49091009630762816  0.9998767861372313  0.15126783457939294  1.0000
  C   C144      1.0  0.4805402735779934  0.9820745588627176  0.17064755248552826  1.0000
  H   H93       1.0  0.4671213531601429  0.015247662543061757  0.2224981429737582  1.0000
  H   H94       1.0  0.48674821552871  0.04637790573699907  0.18874876099155008  1.0000
  H   H95       1.0  0.4975158292757904  0.9955249080962651  0.13138045002722773  1.0000
  H   H96       1.0  0.4788463477656174  0.9641324966995696  0.16557363520066817  1.0000
  C   C145      1.0  0.685615974246576  0.9886008570047755  0.4112693085533469  1.0000
  C   C146      1.0  0.7003000824346644  0.9817597417784417  0.43296916016043313  1.0000
  C   C147      1.0  0.7194575300015505  0.995291547094865  0.4351736552937893  1.0000
  C   C148      1.0  0.7241321735273833  0.015537100748732824  0.41549306613547315  1.0000
  C   C149      1.0  0.7094357755273208  0.022412054857333885  0.3938029748132365  1.0000
  C   C150      1.0  0.6900196975280476  0.009113753727386653  0.3918251526568312  1.0000
  H   H97       1.0  0.6969348378168904  0.9658439909230321  0.448026693467277  1.0000
  H   H98       1.0  0.7309411119311388  0.9897308642595971  0.45177864608163876  1.0000
  H   H99       1.0  0.7128603733119695  0.03831231856972006  0.3787630736737721  1.0000
  H   H100      1.0  0.6784250832881409  0.014753740469333199  0.3753768595174057  1.0000
  C   C151      1.0  0.6481283899677133  0.02371953716608588  0.2479338318299275  1.0000
  C   C152      1.0  0.662700385645734  0.0283790067219185  0.2235003381405208  1.0000
  C   C153      1.0  0.6513496547124558  0.03905933274725241  0.2000431780059145  1.0000
  C   C154      1.0  0.6253701201926715  0.045549523898284594  0.20091198033614274  1.0000
  C   C155      1.0  0.6106268073985407  0.04089539507413757  0.22530105878700815  1.0000
  C   C156      1.0  0.6220347083027808  0.029848574935557225  0.24878964861780795  1.0000
  H   H101      1.0  0.6828471182519513  0.02370421146736179  0.22265397993922018  1.0000
  H   H102      1.0  0.6627908190807169  0.042590379956266904  0.18120877308048403  1.0000
  H   H103      1.0  0.5905330590587039  0.04577701854948453  0.22599653441266418  1.0000
  H   H104      1.0  0.6107235271593435  0.02641651283918689  0.26753680523510565  1.0000
  C   C157      1.0  0.5927541002663497  0.9218089338459079  0.3023713307947603  1.0000
  C   C158      1.0  0.5790098540014812  0.9051421145648513  0.2949889325253753  1.0000
  C   C159      1.0  0.5755750457517032  0.9059449255691622  0.2679329058759548  1.0000
  C   C160      1.0  0.5862068384249963  0.9231764018489235  0.24815171574851314  1.0000
  C   C161      1.0  0.6011853818689029  0.938897306392549  0.25533642110319804  1.0000
  C   C162      1.0  0.6044613325454282  0.9382030582295992  0.2824784310643805  1.0000
  H   H105      1.0  0.5708716623456838  0.8916977276432909  0.3101650388890341  1.0000
  H   H106      1.0  0.5648073651017689  0.8930736010372329  0.26237747421977675  1.0000
  H   H107      1.0  0.6098972194540381  0.9518900239793759  0.24006325431736883  1.0000
  H   H108      1.0  0.6159611867925903  0.9504115224112312  0.2879694547964092  1.0000
  C   C163      1.0  0.49976579802597604  0.9884488955391876  0.3865968443942789  1.0000
  C   C164      1.0  0.5208484061702204  0.9871686856237024  0.40023877874190306  1.0000
  C   C165      1.0  0.5382443454575253  0.003492807138859133  0.3907968820224637  1.0000
  C   C166      1.0  0.534668398489344  0.021002180533096437  0.36762380358998864  1.0000
  C   C167      1.0  0.5134924741914637  0.02242522085905896  0.35406212749095684  1.0000
  C   C168      1.0  0.49599875124537235  0.006107302628215239  0.3634977755758665  1.0000
  H   H109      1.0  0.5237673879207256  0.9735315639616049  0.41811487352104876  1.0000
  H   H110      1.0  0.5544108306787304  0.0025702931714552957  0.40155844582169414  1.0000
  H   H111      1.0  0.5110477608880812  0.0356785182032191  0.33597224049440677  1.0000
  H   H112      1.0  0.47984461892018937  0.006963780389082963  0.3527583280144698  1.0000
  C   C169      1.0  0.4291975558791251  0.8965592789182213  0.33222231896499244  1.0000
  C   C170      1.0  0.44297561306063804  0.9093683447189496  0.31086401250362117  1.0000
  C   C171      1.0  0.4624853889399465  0.8963492526424248  0.2959160122433289  1.0000
  C   C172      1.0  0.4695650920791937  0.8706626854972338  0.3033256958986536  1.0000
  C   C173      1.0  0.45631971171301905  0.8578690187179898  0.32525902276509044  1.0000
  C   C174      1.0  0.4357820974920173  0.8707184665792752  0.33931386213785736  1.0000
  H   H113      1.0  0.43801820560089444  0.9291652642028564  0.3050013016960342  1.0000
  H   H114      1.0  0.47204037310552904  0.906328241154825  0.27872855478657954  1.0000
  H   H115      1.0  0.4616227969566429  0.8379602167476842  0.33103478031686245  1.0000
  H   H116      1.0  0.42513390029726167  0.8606628977275969  0.35578818886343966  1.0000
  C   C175      1.0  0.44295788498389244  0.043166864253494086  0.2785386001939773  1.0000
  C   C176      1.0  0.4576131299974874  0.046134724462047444  0.29823620783372584  1.0000
  C   C177      1.0  0.47780426232133544  0.05953695596303369  0.2910798383669118  1.0000
  C   C178      1.0  0.48409075030064874  0.06897999472948059  0.2641636099783874  1.0000
  C   C179      1.0  0.4693703075344005  0.06614468683689814  0.2445023463240511  1.0000
  C   C180      1.0  0.44848245507447887  0.05371724254320483  0.2517879401710371  1.0000
  H   H117      1.0  0.45339419479922133  0.03825412984906951  0.31896723115514064  1.0000
  H   H118      1.0  0.4887369077895099  0.06246023183939014  0.3063209570770763  1.0000
  H   H119      1.0  0.47390332726706635  0.07368319379999333  0.22371953037457404  1.0000
  H   H120      1.0  0.4370399589383593  0.05166582377511724  0.2365061385648096  1.0000
  C   C181      1.0  0.5476058699845586  0.0140256897286762  0.8672342280349284  1.0000
  C   C182      1.0  0.5475494848791614  0.9940351911100881  0.8534611116800859  1.0000
  C   C183      1.0  0.5367863516520306  0.9730943811433508  0.8663302417660805  1.0000
  C   C184      1.0  0.5267379087034544  0.9719676371429682  0.8931537820251527  1.0000
  C   C185      1.0  0.5268229946412805  0.9919601596463932  0.9068640897786331  1.0000
  C   C186      1.0  0.5369090697388565  0.013161717831804002  0.893768295070144  1.0000
  H   H121      1.0  0.5557125280130697  0.9948033071566138  0.8328824141873606  1.0000
  H   H122      1.0  0.536770082480115  0.9576168792568099  0.8557370159806461  1.0000
  H   H123      1.0  0.5189477622577896  0.9911418748406454  0.9275711528745889  1.0000
  H   H124      1.0  0.5368682792303613  0.028663613280116646  0.9043788084649613  1.0000
  C   C187      1.0  0.6800784897986256  0.024487059642017202  0.6121216926894639  1.0000
  C   C188      1.0  0.7049885789443716  0.02428088326260516  0.6013571117211588  1.0000
  C   C189      1.0  0.710717626772895  0.03760726464706271  0.5758338827843932  1.0000
  C   C190      1.0  0.6915656130370303  0.05164273046797389  0.5612685203430834  1.0000
  C   C191      1.0  0.6666353163928652  0.051928786419515545  0.5720232995220035  1.0000
  C   C192      1.0  0.660886352899033  0.038089616120470446  0.5972940312444471  1.0000
  H   H125      1.0  0.7199309686451173  0.014171566834647301  0.6129399971738435  1.0000
  H   H126      1.0  0.7300078199285943  0.037532462789116705  0.5677744348136922  1.0000
  H   H127      1.0  0.6517435487492643  0.06260365379081666  0.5607024111864533  1.0000
  H   H128      1.0  0.6416016815325309  0.03769189047129773  0.6050858722565265  1.0000
  C   C193      1.0  0.5829887773280235  0.11569112785151783  0.7180309357298329  1.0000
  C   C194      1.0  0.5699390925340526  0.09950280979401588  0.7367489952879109  1.0000
  C   C195      1.0  0.5511050614776996  0.10904563160951841  0.755284813724744  1.0000
  C   C196      1.0  0.5448474103102657  0.1348689347743699  0.75482056991412  1.0000
  C   C197      1.0  0.5576567979284612  0.15106934395198  0.7357955336111438  1.0000
  C   C198      1.0  0.5768898621826729  0.14149666982897596  0.717660904737555  1.0000
  H   H129      1.0  0.5746758363833373  0.0796213567212831  0.7373472793903183  1.0000
  H   H130      1.0  0.5413253160336166  0.09641582260247047  0.7697231745591147  1.0000
  H   H131      1.0  0.5529173621766195  0.17105662756596537  0.73529519453889  1.0000
  H   H132      1.0  0.5869062686679173  0.15414170999669816  0.7032417004481049  1.0000
  C   C199      1.0  0.5767490597732842  0.9684869026996359  0.7635185454151807  1.0000
  C   C200      1.0  0.5698751377500645  0.9581268534534937  0.7900367070369376  1.0000
  C   C201      1.0  0.5516338730147802  0.9422403521646904  0.7955183098380841  1.0000
  C   C202      1.0  0.5407838130356605  0.9360833037875571  0.7744263828406325  1.0000
  C   C203      1.0  0.5483253585701031  0.9456916786116157  0.7478544502149156  1.0000
  C   C204      1.0  0.5660651437782849  0.9621706826869546  0.74237702876989  1.0000
  H   H133      1.0  0.5783268581789213  0.9627443064234089  0.8064165511356509  1.0000
  H   H134      1.0  0.5460134507449709  0.9347491301286202  0.8160542700412214  1.0000
  H   H135      1.0  0.5402787800939054  0.9405194201786372  0.7315277738924172  1.0000
  H   H136      1.0  0.5715004397238933  0.9698737830158007  0.7218374512994034  1.0000
  C   C205      1.0  0.526823226663184  0.017122090429398926  0.6508712025840757  1.0000
  C   C206      1.0  0.5310730267320691  0.00019356079249188568  0.6743963563345525  1.0000
  C   C207      1.0  0.5135505400012877  0.9842815157961581  0.6852911164340542  1.0000
  C   C208      1.0  0.49169428245568736  0.9855780506964557  0.6728958637835383  1.0000
  C   C209      1.0  0.48736027720165737  0.0026952146887882487  0.6495734341347277  1.0000
  C   C210      1.0  0.5049969238148206  0.018363573073686853  0.6384613267692598  1.0000
  H   H137      1.0  0.5478799002683231  0.9992376599078033  0.68409800781628  1.0000
  H   H138      1.0  0.5167361527378408  0.9711940274733837  0.7034256638935162  1.0000
  H   H139      1.0  0.470607307598505  0.0035149935837905377  0.6397809199028414  1.0000
  H   H140      1.0  0.5017177241826722  0.031366787148270174  0.6202079561990528  1.0000
  C   C211      1.0  0.4372090239304961  0.07038201738237385  0.8024416313562432  1.0000
  C   C212      1.0  0.44948826942515  0.08710566526305065  0.7835641291697719  1.0000
  C   C213      1.0  0.44602891100929715  0.08962800703803624  0.7562297557512007  1.0000
  C   C214      1.0  0.43047371717091  0.07525864041019728  0.7476351132153066  1.0000
  C   C215      1.0  0.41768583058747644  0.0590014613730479  0.7665892901695155  1.0000
  C   C216      1.0  0.4210253666459168  0.056590889487312335  0.7939678864497864  1.0000
  H   H141      1.0  0.4615577369396004  0.0982400803892679  0.7900118413197039  1.0000
  H   H142      1.0  0.45564141862731383  0.10252477390479167  0.7417813241580579  1.0000
  H   H143      1.0  0.4051560030852117  0.04829563465466156  0.7601760398370534  1.0000
  H   H144      1.0  0.4111319004698866  0.04392539204161899  0.8084766066386024  1.0000
  C   C217      1.0  0.3785305768428352  0.9688290969496646  0.7927970833488891  1.0000
  C   C218      1.0  0.3640828353424396  0.961414170508116  0.816617216363497  1.0000
  C   C219      1.0  0.37559276754606596  0.9497151199645661  0.8396567579500399  1.0000
  C   C220      1.0  0.4016449279510136  0.944913163530475  0.8388894511729516  1.0000
  C   C221      1.0  0.41628104284316825  0.9523855755075042  0.8151530764320378  1.0000
  C   C222      1.0  0.40467748285616995  0.9645515289544261  0.7921563322289922  1.0000
  H   H145      1.0  0.3438811497962715  0.9646785652981629  0.8172326152236025  1.0000
  H   H146      1.0  0.3642283356103248  0.9440073774222799  0.8579854025365315  1.0000
  H   H147      1.0  0.43642698784288275  0.9487634447813673  0.8145464678570542  1.0000
  H   H148      1.0  0.41585544295582194  0.9701978057111215  0.7738768518340502  1.0000
  C   C223      1.0  0.4753231081289663  0.8050615606922542  0.13901011403628558  1.0000
  C   C224      1.0  0.4765553374199968  0.8111311967143875  0.16456469077549912  1.0000
  C   C225      1.0  0.4867408976380491  0.8324292819574225  0.1672522077876036  1.0000
  C   C226      1.0  0.49573712881557774  0.8476750228610104  0.14432707958468438  1.0000
  C   C227      1.0  0.49374872108815204  0.8420183005202272  0.1188471207042979  1.0000
  C   C228      1.0  0.4833609241907573  0.8209620923735865  0.11619782405162923  1.0000
  H   H149      1.0  0.47014436900756035  0.7990464649893112  0.18232917452776165  1.0000
  H   H150      1.0  0.488140182545298  0.836731940818205  0.18699865830118115  1.0000
  H   H151      1.0  0.5004012910910597  0.8539254512106674  0.10106658830459533  1.0000
  H   H152      1.0  0.4816533024040259  0.8170480761975314  0.09646285333727178  1.0000
  C   C229      1.0  0.578378324703709  0.712537674208939  0.04511935476696349  1.0000
  C   C230      1.0  0.600205446611516  0.6984514319096561  0.05498744733366312  1.0000
  C   C231      1.0  0.6149080159830361  0.6807501221606066  0.04047504864256424  1.0000
  C   C232      1.0  0.6082334959858074  0.6777530104778553  0.015613863559491126  1.0000
  C   C233      1.0  0.586497465434974  0.6919482987324391  0.00567366786264123  1.0000
  C   C234      1.0  0.5713451401620239  0.7090124797887248  0.02061253921478201  1.0000
  H   H153      1.0  0.6057395045620221  0.701208133870778  0.07390439741255594  1.0000
  H   H154      1.0  0.6316718889731172  0.6698630155154672  0.04822430525415067  1.0000
  H   H155      1.0  0.5813631980203612  0.689743825398321  0.9863681660902079  1.0000
  H   H156      1.0  0.5546813196349539  0.7200117820828562  0.012778334380559864  1.0000
  C   C235      1.0  0.46878538568848926  0.8094350051805946  0.9727571634556925  1.0000
  C   C236      1.0  0.45743327229364333  0.8287953471519077  0.9544397651618016  1.0000
  C   C237      1.0  0.46914921204319776  0.8347447182196109  0.9285594489497851  1.0000
  C   C238      1.0  0.49229028796273155  0.8213903039944919  0.920957103060167  1.0000
  C   C239      1.0  0.503159552556362  0.8012695803657264  0.9388680575518944  1.0000
  C   C240      1.0  0.49149092447474285  0.7953863193222589  0.9649039765361997  1.0000
  H   H157      1.0  0.4396989478858859  0.8395042603976868  0.9604150461257599  1.0000
  H   H158      1.0  0.460353563594632  0.8498243339900795  0.9145704235360974  1.0000
  H   H159      1.0  0.5210366654226324  0.7908134815717089  0.9329066162166555  1.0000
  H   H160      1.0  0.5002445380129347  0.7803106213040096  0.9789613664658959  1.0000
  C   C241      1.0  0.1258626174263391  0.5341207051571556  0.8310826930270568  1.0000
  C   C242      1.0  0.10102960113540929  0.5363224697580133  0.8251459867496185  1.0000
  C   C243      1.0  0.09424903394323994  0.5203804399972082  0.8092993519316839  1.0000
  C   C244      1.0  0.11245783099897945  0.5027996137603028  0.7983624926819092  1.0000
  C   C245      1.0  0.13720114443153542  0.500272304911858  0.8047789132486785  1.0000
  C   C246      1.0  0.14385783211453226  0.5157047313976358  0.8213600499397784  1.0000
  H   H161      1.0  0.08702141896459833  0.5505206315313482  0.8326505964851201  1.0000
  H   H162      1.0  0.07506117498554728  0.5221566162818768  0.8050221889881956  1.0000
  H   H163      1.0  0.15138748707954172  0.4866443073380193  0.7964865864126213  1.0000
  H   H164      1.0  0.16306806710467653  0.5138889803546992  0.8258493502990357  1.0000
  C   C247      1.0  0.1563782834666518  0.5303648622750352  0.9934446284186564  1.0000
  C   C248      1.0  0.16413033358464324  0.5059984715937008  0.9879986282619394  1.0000
  C   C249      1.0  0.168926140075842  0.4863175079800312  0.009166499424545282  1.0000
  C   C250      1.0  0.1673060527740305  0.491215091549377  0.0355231648413054  1.0000
  C   C251      1.0  0.15925089804025797  0.5155436837117067  0.040875764328659345  1.0000
  C   C252      1.0  0.1532219839585332  0.5350085711897125  0.01993623527670082  1.0000
  H   H165      1.0  0.1663708004969788  0.5022424132839389  0.9675641907678261  1.0000
  H   H166      1.0  0.1745544148731396  0.4673966324311652  0.005107126266860052  1.0000
  H   H167      1.0  0.1574056095734044  0.5193947141805859  0.06116995963576071  1.0000
  H   H168      1.0  0.14681794274913107  0.5537505711875206  0.024287197032392235  1.0000
  C   C253      1.0  0.38730739471284487  0.68950222904233  0.020239133015764094  1.0000
  C   C254      1.0  0.4050151799725683  0.6678781937387607  0.021746522714292085  1.0000
  C   C255      1.0  0.4264622404591323  0.6663915335271003  0.03511977400410693  1.0000
  C   C256      1.0  0.43045968107728155  0.6866547687111324  0.046663674792380094  1.0000
  C   C257      1.0  0.41255014990353855  0.7081090975935264  0.04553144264236777  1.0000
  C   C258      1.0  0.3910217685097951  0.7095245745834081  0.03234733675209762  1.0000
  H   H169      1.0  0.40255052922267076  0.652541628929424  0.012024542778637848  1.0000
  H   H170      1.0  0.44027928549486384  0.6497308039102697  0.03598428293928557  1.0000
  H   H171      1.0  0.41521349305277105  0.7235621853690374  0.05496744602571389  1.0000
  H   H172      1.0  0.3772150443202514  0.7261982997691103  0.031521522979559256  1.0000
  C   C259      1.0  0.28875495115133054  0.5873821531020738  0.08072337516118759  1.0000
  C   C260      1.0  0.28070141796771514  0.5697533228968317  0.1019315498780944  1.0000
  C   C261      1.0  0.25630621344672205  0.5639573112585574  0.10395738763894011  1.0000
  C   C262      1.0  0.2397016578531663  0.5765297000060938  0.08538086881905814  1.0000
  C   C263      1.0  0.2475342455465684  0.5948018283117933  0.06481126566178672  1.0000
  C   C264      1.0  0.2721359254401068  0.5998731033835403  0.062165254730685064  1.0000
  H   H173      1.0  0.29345624853173485  0.5601374921564467  0.11641950393573151  1.0000
  H   H174      1.0  0.2502508543005219  0.5500365129802621  0.12009536037701478  1.0000
  H   H175      1.0  0.2346725099933484  0.6048335333235317  0.050692449936463956  1.0000
  H   H176      1.0  0.27812163018712294  0.6135398791841388  0.0457595274628276  1.0000
  C   C265      1.0  0.2609618898438873  0.6266146706466932  0.9423479961365816  1.0000
  C   C266      1.0  0.2432582517307832  0.635927008017361  0.9238566851588078  1.0000
  C   C267      1.0  0.23884918501902191  0.6212671442552892  0.9053289916813959  1.0000
  C   C268      1.0  0.2516933417384626  0.5969916268539994  0.9056392435485527  1.0000
  C   C269      1.0  0.26858274020597733  0.5872314785815207  0.9249090281147284  1.0000
  C   C270      1.0  0.2734574945534856  0.6021239455156492  0.9430385276622658  1.0000
  H   H177      1.0  0.23349326616699592  0.6548239276863478  0.9233002877685023  1.0000
  H   H178      1.0  0.22596963307918766  0.6289738268794964  0.890313771933534  1.0000
  H   H179      1.0  0.27824185923157235  0.5683382457239827  0.9254264393765624  1.0000
  H   H180      1.0  0.2868117182732646  0.5946645429948051  0.9575171827919814  1.0000
  C   C271      1.0  0.39528094366691147  0.5034957235401664  0.006246814345416408  1.0000
  C   C272      1.0  0.387490846798992  0.5246880367647241  0.01874838469335982  1.0000
  C   C273      1.0  0.38232537646012055  0.5483130482133896  0.0031616625806645264  1.0000
  C   C274      1.0  0.38605411710501364  0.5508968512195191  0.9750933059435082  1.0000
  C   C275      1.0  0.39504673898613096  0.5299128002972984  0.9626875947642343  1.0000
  C   C276      1.0  0.3993068223469125  0.5062408880931881  0.9782282936315367  1.0000
  H   H181      1.0  0.3849957506257088  0.5228351196469258  0.04040887876304253  1.0000
  H   H182      1.0  0.3756680842003697  0.5645055238054136  0.012874861378844424  1.0000
  H   H183      1.0  0.39839781408855435  0.5318386914567323  0.9410426081023167  1.0000
  H   H184      1.0  0.40618770318899056  0.49019020755895787  0.9684675785201969  1.0000
  C   C277      1.0  0.30226661894367035  0.41419581296963764  0.05912608158254422  1.0000
  C   C278      1.0  0.2767151905275235  0.41890215232350503  0.06761803339594424  1.0000
  C   C279      1.0  0.2683686479843607  0.43339089199856434  0.08811683079144118  1.0000
  C   C280      1.0  0.28568304936113953  0.44204538645356906  0.10110808882537013  1.0000
  C   C281      1.0  0.3112863276449398  0.43644972708083823  0.09332412254717654  1.0000
  C   C282      1.0  0.3195364685697453  0.4231685192828133  0.07184095658369741  1.0000
  H   H185      1.0  0.2632971788214065  0.4116906584249345  0.05814179348564784  1.0000
  H   H186      1.0  0.24857191981955373  0.43749915179802096  0.0942084017013862  1.0000
  H   H187      1.0  0.3247236292947593  0.4428372823012554  0.10359308671518062  1.0000
  H   H188      1.0  0.3393058385267374  0.4194860142665789  0.06546864039372331  1.0000
  C   C283      1.0  0.25901646563403097  0.4694860770664392  0.9086810366715058  1.0000
  C   C284      1.0  0.26731136964162927  0.4926207502518819  0.9006572803049187  1.0000
  C   C285      1.0  0.2915718877187777  0.49549177469816597  0.9046666332533361  1.0000
  C   C286      1.0  0.30764991126086877  0.4752679164768545  0.9168663466753456  1.0000
  C   C287      1.0  0.2996524246047183  0.45190664958105853  0.92419202935205  1.0000
  C   C288      1.0  0.27540725101487395  0.4489494198876733  0.9198629390221121  1.0000
  H   H189      1.0  0.2550071835164462  0.5084417854781398  0.89143605626767  1.0000
  H   H190      1.0  0.29754695520629626  0.5135775385804108  0.8987607939138431  1.0000
  H   H191      1.0  0.3121087769249127  0.43611119110613633  0.9331203569572929  1.0000
  H   H192      1.0  0.26915280113800844  0.4309407218708697  0.9257851450189916  1.0000
  C   C289      1.0  0.08734060766030195  0.5440304829635942  0.19937433842113772  1.0000
  C   C290      1.0  0.09378036363765756  0.5247859986066512  0.22034817655404054  1.0000
  C   C291      1.0  0.11658703530538245  0.5087749532837571  0.21798638578581025  1.0000
  C   C292      1.0  0.13292847781764314  0.5116914000044848  0.19449554341569958  1.0000
  C   C293      1.0  0.1269340844135228  0.5315748824310339  0.1740075870779117  1.0000
  C   C294      1.0  0.10424486875221926  0.5477903747499095  0.17650678739267806  1.0000
  H   H193      1.0  0.08118676488503877  0.5220325382680436  0.23831782086106185  1.0000
  H   H194      1.0  0.12139380135896295  0.4938059873580624  0.23420416604819275  1.0000
  H   H195      1.0  0.13965576027594775  0.5344446158646419  0.15615642068455038  1.0000
  H   H196      1.0  0.09956267673913903  0.5629129164650329  0.1603827837070849  1.0000
  C   C295      1.0  0.006097517892391657  0.5927915827875005  0.3246057159683714  1.0000
  C   C296      1.0  0.00992235816768349  0.599485028224454  0.34911221004428133  1.0000
  C   C297      1.0  0.017709544746813313  0.622492481163557  0.3498440546686233  1.0000
  C   C298      1.0  0.02170545247513167  0.638937805163263  0.32601599289379474  1.0000
  C   C299      1.0  0.01720303363191822  0.6326102236654563  0.3015880440324804  1.0000
  C   C300      1.0  0.009462331087471743  0.6095735374784148  0.3008530555607423  1.0000
  H   H197      1.0  0.0071660978542094035  0.5866746456705471  0.3675881737262145  1.0000
  H   H198      1.0  0.021037624181020446  0.6272487972575099  0.3688133597521506  1.0000
  H   H199      1.0  0.019818568387114155  0.6455219432648853  0.2831940981989186  1.0000
  H   H200      1.0  0.0060363197633623855  0.6047828395064521  0.2819713908888075  1.0000
  C   C301      1.0  0.007842449215281766  0.44079253357138054  0.28921526721564295  1.0000
  C   C302      1.0  0.017668566507763606  0.41773958881744  0.30339659436902755  1.0000
  C   C303      1.0  0.0016780384155055117  0.40249923552408307  0.3196271616993739  1.0000
  C   C304      1.0  0.9758218787243294  0.41017300095518344  0.32139856960840374  1.0000
  C   C305      1.0  0.965986095786727  0.43288279618490605  0.30657290596823034  1.0000
  C   C306      1.0  0.981980834251316  0.4483101816095809  0.2907181237140267  1.0000
  H   H201      1.0  0.037673253259403294  0.4117742723152943  0.3020702383684781  1.0000
  H   H202      1.0  0.009336242096334768  0.3847752594339595  0.3306082095960671  1.0000
  H   H203      1.0  0.9459637610775827  0.43875597353820817  0.30771761520772856  1.0000
  H   H204      1.0  0.9742684569926053  0.46587058677528786  0.2794382128363618  1.0000
  C   C307      1.0  0.9274730642173782  0.535319033843985  0.19738577197355928  1.0000
  C   C308      1.0  0.9392880265827773  0.510755315096945  0.1969082465625888  1.0000
  C   C309      1.0  0.9309765081522515  0.4957423350098631  0.1809939146354705  1.0000
  C   C310      1.0  0.9109483323715627  0.5052179499404303  0.16533776174589995  1.0000
  C   C311      1.0  0.8995330592680422  0.529972585606219  0.1653121614330198  1.0000
  C   C312      1.0  0.907609273677049  0.5448773389159692  0.18151232490050373  1.0000
  H   H205      1.0  0.9545360032128056  0.5031974684853798  0.2091599567733532  1.0000
  H   H206      1.0  0.9398793197147186  0.4765906204177344  0.18113373739801825  1.0000
  H   H207      1.0  0.8843895912849279  0.5376071378954245  0.15298740362934604  1.0000
  H   H208      1.0  0.8985410816813358  0.5639385801204189  0.18168022716075227  1.0000
  C   C313      1.0  0.6037204070807405  0.32546976296056707  0.985126469490033  1.0000
  C   C314      1.0  0.5945323044346315  0.3224269362528793  0.012254551381194112  1.0000
  C   C315      1.0  0.6058867332437613  0.3320289782442267  0.030871020973339644  1.0000
  C   C316      1.0  0.6265665813898146  0.3446065692609391  0.022516994140571442  1.0000
  C   C317      1.0  0.6354300807128882  0.34804191295302395  0.995309918438058  1.0000
  C   C318      1.0  0.6239341561861779  0.33862429267488464  0.9766555617504145  1.0000
  H   H209      1.0  0.5787055479126013  0.31273892012958576  0.018980885275892805  1.0000
  H   H210      1.0  0.5988491957507166  0.3294911299515821  0.05189070648663255  1.0000
  H   H211      1.0  0.6513197369645405  0.3576825350730708  0.9886475377868024  1.0000
  H   H212      1.0  0.6310382412349093  0.34119894015800656  0.9556576071269799  1.0000
  C   C319      1.0  0.46423822024927086  0.31041957405942616  0.003582786496080237  1.0000
  C   C320      1.0  0.4491777569267351  0.3292906339616218  0.016077847708832804  1.0000
  C   C321      1.0  0.43537099164672594  0.3494980531028109  0.0006952159557760407  1.0000
  C   C322      1.0  0.43632501286030595  0.3506248668006258  0.9728504231282017  1.0000
  C   C323      1.0  0.4513942146751906  0.33176106023151897  0.9604314576133737  1.0000
  C   C324      1.0  0.46536629521980727  0.3117326283328168  0.9757387974041228  1.0000
  H   H213      1.0  0.4485300137968026  0.3284563279042383  0.037617898712561715  1.0000
  H   H214      1.0  0.42431541309517623  0.36432056811268787  0.010288307654066298  1.0000
  H   H215      1.0  0.4521414819134845  0.33256604902866027  0.938882228714017  1.0000
  H   H216      1.0  0.47658278067720655  0.29704067550597646  0.9660219647836169  1.0000
  C   C325      1.0  0.56991776922731  0.19091381838393157  0.06602130621515767  1.0000
  C   C326      1.0  0.5787474002339166  0.16844179207902862  0.08194302624072651  1.0000
  C   C327      1.0  0.5642829147866926  0.15930320530825698  0.10522241673060843  1.0000
  C   C328      1.0  0.5411955737773105  0.1728946776267659  0.11280474928249853  1.0000
  C   C329      1.0  0.5326454117203925  0.19560599143033736  0.09711505712274307  1.0000
  C   C330      1.0  0.5468800511019617  0.2045141661629933  0.07361103903247951  1.0000
  H   H217      1.0  0.5966178773006326  0.15791789669315207  0.07612775081085374  1.0000
  H   H218      1.0  0.5710551012361562  0.14188116080262064  0.1174142608181438  1.0000
  H   H219      1.0  0.5147974565541452  0.20616083376868638  0.10299615051436971  1.0000
  H   H220      1.0  0.5399738629942533  0.22190646488960253  0.06143359202660322  1.0000
  C   C331      1.0  0.53116450359447  0.19796589483724386  0.9196880138945309  1.0000
  C   C332      1.0  0.5411498034473895  0.18108319276601414  0.9019678528690788  1.0000
  C   C333      1.0  0.5287966314740892  0.16109057015100817  0.8999571375359838  1.0000
  C   C334      1.0  0.5062994425777685  0.15792697932571412  0.9156348276791887  1.0000
  C   C335      1.0  0.49687783247811884  0.1741555985794441  0.9342641841332657  1.0000
  C   C336      1.0  0.5092812042347203  0.1941653507710057  0.9363046837723646  1.0000
  H   H221      1.0  0.5582002414108054  0.1838739582460992  0.8892351957802648  1.0000
  H   H222      1.0  0.5364202712607171  0.1484803193910551  0.8858631555278923  1.0000
  H   H223      1.0  0.4794103052962637  0.1718315935140891  0.9463741133203968  1.0000
  H   H224      1.0  0.5012755615993929  0.20734119399673426  0.9497337112866309  1.0000
  C   C337      1.0  0.1995783371536713  0.07573602319288862  0.5323215569361319  1.0000
  C   C338      1.0  0.18728632141054755  0.09694577008053976  0.5429054571203681  1.0000
  C   C339      1.0  0.16403488985464287  0.10889242084505384  0.5345434744828684  1.0000
  C   C340      1.0  0.1531368403290112  0.09987529757905773  0.5152990634909289  1.0000
  C   C341      1.0  0.16583538038473117  0.0791065604224609  0.5041312715935131  1.0000
  C   C342      1.0  0.18890795467495786  0.06693137964149407  0.5127711396356529  1.0000
  H   H225      1.0  0.19563070322902668  0.10406376197098925  0.5577473746136593  1.0000
  H   H226      1.0  0.1546439794665896  0.12509429520934062  0.5429438166539993  1.0000
  H   H227      1.0  0.15792635020073326  0.07259877660627079  0.48855935153751473  1.0000
  H   H228      1.0  0.19872171203684544  0.05112629380140531  0.503848870568859  1.0000
  C   C343      1.0  0.3142868594847461  0.9794451801386327  0.6099065061990211  1.0000
  C   C344      1.0  0.3192925173471973  0.0008738957896949923  0.5921454997977852  1.0000
  C   C345      1.0  0.33512777497606405  0.016184573590866357  0.5987892149612136  1.0000
  C   C346      1.0  0.34574403733492953  0.01042923166030296  0.623363626570226  1.0000
  C   C347      1.0  0.34098463990096023  0.9888552676437052  0.6409913167737488  1.0000
  C   C348      1.0  0.3254259749995872  0.9733235509483025  0.6341716404587788  1.0000
  H   H229      1.0  0.31091564431307905  0.005777333202240053  0.5733760928227114  1.0000
  H   H230      1.0  0.3389983705014591  0.03273789444769455  0.5849940529729248  1.0000
  H   H231      1.0  0.349003656789979  0.9843036718960109  0.6600300136791734  1.0000
  H   H232      1.0  0.32165566925082206  0.9567549328449159  0.6480057386751528  1.0000
  C   C349      1.0  0.3016301133742486  0.9778648511430392  0.45472142558773493  1.0000
  C   C350      1.0  0.31926099007787007  0.9662028475946767  0.4366096659083198  1.0000
  C   C351      1.0  0.3373053254259587  0.9793560967688061  0.4210378292553928  1.0000
  C   C352      1.0  0.33751864372632645  0.004302173980605062  0.4233417682678594  1.0000
  C   C353      1.0  0.31976094220372736  0.01605360077476692  0.4412973850859548  1.0000
  C   C354      1.0  0.3018535240504172  0.0028078327983127593  0.4570758961871669  1.0000
  H   H233      1.0  0.31904012760182693  0.946919343954561  0.4347049047441605  1.0000
  H   H234      1.0  0.35090111312043615  0.970233287198944  0.4071102074246547  1.0000
  H   H235      1.0  0.3198636852229857  0.0353897837359467  0.4430370019406039  1.0000
  H   H236      1.0  0.28811111669241185  0.011945896652251209  0.4708531727178586  1.0000
  C   C355      1.0  0.1533136542193775  0.9196657861888377  0.4990363937240354  1.0000
  C   C356      1.0  0.14003792895799252  0.919443560693719  0.5244484899602186  1.0000
  C   C357      1.0  0.14886120339117268  0.929869144978323  0.5442791880809973  1.0000
  C   C358      1.0  0.17096471853368503  0.9405404676246444  0.5388026352128528  1.0000
  C   C359      1.0  0.18407773470064231  0.9409894044542856  0.5133234280252  1.0000
  C   C360      1.0  0.1752063561296932  0.9306675454300807  0.4934846370807664  1.0000
  H   H237      1.0  0.12299852373377874  0.9112492987600207  0.5288313029267999  1.0000
  H   H238      1.0  0.1385875568690757  0.9295638710638678  0.5639438070780148  1.0000
  H   H239      1.0  0.20113716920953317  0.9491902360221357  0.5088846335125187  1.0000
  H   H240      1.0  0.18552661811859528  0.9309658529256514  0.4738331307015493  1.0000
  N   N1        1.0  0.1997310414381582  0.5991327394673898  0.9945626430987775  1.0000
  C   C361      1.0  0.21064340960477135  0.586298843159608  0.9715846056113701  1.0000
  C   C362      1.0  0.2143248024000765  0.6190520646004731  0.9964857959767465  1.0000
  C   C363      1.0  0.20032859686885998  0.5809380587797713  0.01963795352227038  1.0000
  C   C364      1.0  0.17355990224822263  0.6102791968420795  0.9906189612929567  1.0000
  H   H241      1.0  0.20017787378567825  0.5710105399269091  0.9697194991791157  1.0000
  H   H242      1.0  0.23050428966308814  0.5779935311972786  0.9737081786766468  1.0000
  H   H243      1.0  0.21017528637670366  0.5994340844431212  0.9522832926733883  1.0000
  H   H244      1.0  0.20697376130817016  0.6287867514341949  0.013965963333866682  1.0000
  H   H245      1.0  0.23433149225440586  0.6114341684310481  0.9989125553825188  1.0000
  H   H246      1.0  0.21393499356561288  0.63341846792817  0.9781068599416282  1.0000
  H   H247      1.0  0.21982025407754932  0.5730940745703942  0.024170351370843335  1.0000
  H   H248      1.0  0.19051532037817778  0.5649990048259134  0.018539402956258222  1.0000
  H   H249      1.0  0.19104819481166418  0.5897605219032974  0.037172522110756834  1.0000
  H   H250      1.0  0.1618689140197326  0.5956788772678282  0.9898406773450644  1.0000
  H   H251      1.0  0.17235199704431747  0.6236223861753081  0.971488297924694  1.0000
  H   H252      1.0  0.16493937626948094  0.6205526582444016  0.007346266172010285  1.0000
  N   N2        1.0  0.6154801629119538  0.047702299288887785  0.7910102007629725  1.0000
  C   C365      1.0  0.6213193532752526  0.07029014100829663  0.7724489325432816  1.0000
  C   C366      1.0  0.6337001965365175  0.02581207445399897  0.7848692793206129  1.0000
  C   C367      1.0  0.5900064083081457  0.043409047035620686  0.7877943661838765  1.0000
  C   C368      1.0  0.6168406490143129  0.05123038587583474  0.8190006580423326  1.0000
  H   H253      1.0  0.6077529070114936  0.08707987208810546  0.7765511307954781  1.0000
  H   H254      1.0  0.620470853806011  0.06825423913463972  0.7511206883416814  1.0000
  H   H255      1.0  0.6403753301535998  0.07417844522241061  0.7743198008028988  1.0000
  H   H256      1.0  0.6531131049267884  0.02808341094565347  0.7875194585499957  1.0000
  H   H257      1.0  0.6292903827426963  0.008361210712327398  0.7980857493728587  1.0000
  H   H258      1.0  0.6333549087885685  0.022647070645303285  0.7638730762500515  1.0000
  H   H259      1.0  0.585284258029473  0.026025805208940097  0.8008882511378512  1.0000
  H   H260      1.0  0.5881694608983968  0.04120902331706831  0.7667904375910114  1.0000
  H   H261      1.0  0.5756138967320379  0.05911327125628681  0.7932290339009292  1.0000
  H   H262      1.0  0.6128912753202344  0.034312265625713205  0.8334565691000433  1.0000
  H   H263      1.0  0.6027652784376235  0.06710223315553535  0.8246885909751154  1.0000
  H   H264      1.0  0.6356270615326322  0.05499737648268198  0.822116648432542  1.0000
  N   N3        1.0  0.39282102777914785  0.9521997977822972  0.2563279326499105  1.0000
  C   C369      1.0  0.40307770945719873  0.9663344853494056  0.27366207628604705  1.0000
  C   C370      1.0  0.4088309943513473  0.9277878109697151  0.25517689491346235  1.0000
  C   C371      1.0  0.3920528834401461  0.9666373571001569  0.228945624338794  1.0000
  C   C372      1.0  0.36726385384031934  0.9480409384874244  0.2676046004704714  1.0000
  H   H265      1.0  0.40280659834345117  0.9565616593346471  0.2947653605836187  1.0000
  H   H266      1.0  0.39208788286854257  0.985278596836297  0.27404075636144787  1.0000
  H   H267      1.0  0.4227393588534263  0.9690345074586308  0.2664314134215266  1.0000
  H   H268      1.0  0.40257056291237253  0.9172912013425202  0.2409487863373053  1.0000
  H   H269      1.0  0.4286737333150081  0.9300641354354354  0.2484403990962729  1.0000
  H   H270      1.0  0.40849621259875507  0.9157289835228059  0.27517826871497947  1.0000
  H   H271      1.0  0.38445410423138987  0.9565788324137109  0.21523864601759207  1.0000
  H   H272      1.0  0.41109640854750246  0.9700250327067124  0.21994575865425922  1.0000
  H   H273      1.0  0.38031680903588166  0.9852481436490078  0.22905488416332917  1.0000
  H   H274      1.0  0.3546545269787243  0.9660468969183575  0.2688053860133788  1.0000
  H   H275      1.0  0.3673020131899694  0.9372548731325367  0.28836104894991565  1.0000
  H   H276      1.0  0.3589591438701246  0.9372862674408878  0.25515131766057975  1.0000
  N   N4        1.0  0.9940724721203255  0.14668027461682367  0.48501942009048876  1.0000
  C   C373      1.0  0.020444604906746267  0.15010752711854047  0.4770890965198361  1.0000
  C   C374      1.0  0.9830297467160638  0.14115071883718028  0.4619026535556712  1.0000
  C   C375      1.0  0.9798554294159941  0.1697943778483748  0.4935074794812966  1.0000
  C   C376      1.0  0.9928255958208689  0.1258304726635408  0.5076244111248616  1.0000
  H   H277      1.0  0.029376032438356802  0.15384822275138832  0.49428101650196926  1.0000
  H   H278      1.0  0.022019277968123807  0.16637369006982797  0.46081901515176316  1.0000
  H   H279      1.0  0.03171087661601698  0.13326707868447624  0.46994150549425  1.0000
  H   H280      1.0  0.9630759686067277  0.13861213916180706  0.46725915236653864  1.0000
  H   H281      1.0  0.9835490631594987  0.15675516803539408  0.4447030931242556  1.0000
  H   H282      1.0  0.9932672906729946  0.12384272052332687  0.4547977174763586  1.0000
  H   H283      1.0  0.9873000922991515  0.1743840296211056  0.5112080499291163  1.0000
  H   H284      1.0  0.9598330430262026  0.16796045062913914  0.49907082282645004  1.0000
  H   H285      1.0  0.9807174299761132  0.18618670691165873  0.4772503977863478  1.0000
  H   H286      1.0  0.9731375772248422  0.12311803917372145  0.5146665341535296  1.0000
  H   H287      1.0  0.0012931161987999127  0.1293927627512826  0.5252684774214152  1.0000
  H   H288      1.0  0.0030185863435754348  0.10792634872601466  0.5019342552560507  1.0000
  N   N5        1.0  0.8821225617068552  0.44190492846840457  0.013432562178629096  1.0000
  C   C377      1.0  0.9050946222043358  0.4532182342131231  0.01231542996190087  1.0000
  C   C378      1.0  0.8806162217926634  0.4226565053093641  0.0375764917519962  1.0000
  C   C379      1.0  0.8826240068392521  0.4302964796843199  0.9891010210326984  1.0000
  C   C380      1.0  0.860081013370073  0.4615214958035583  0.014757416647001842  1.0000
  H   H289      1.0  0.906890449694327  0.4676515647404481  0.9941584209964894  1.0000
  H   H290      1.0  0.9221320440558709  0.4389394311339956  0.01161162263557037  1.0000
  H   H291      1.0  0.9050405121806002  0.46253695628937797  0.0301861457837264  1.0000
  H   H292      1.0  0.8800400297200421  0.43082078217228764  0.05633931539550068  1.0000
  H   H293      1.0  0.8633445171623058  0.4138878200799223  0.03915548608084307  1.0000
  H   H294      1.0  0.8968943155435501  0.407476885060289  0.03731487819719982  1.0000
  H   H295      1.0  0.8840800891341086  0.44421629321953576  0.9704540083120662  1.0000
  H   H296      1.0  0.8653714513733937  0.42185830937913044  0.9891109109876293  1.0000
  H   H297      1.0  0.8987884247156372  0.4151244203780383  0.9875462876091665  1.0000
  H   H298      1.0  0.8424393025649498  0.45356975610665073  0.015937646235754135  1.0000
  H   H299      1.0  0.8605740351166463  0.47629001738641924  0.9968316486870035  1.0000
  H   H300      1.0  0.8591518679397149  0.4707592476480517  0.03282075375609307  1.0000
  N   N6        1.0  0.1300645095989154  0.015673154453570405  0.5285501435497592  1.0000
  C   C381      1.0  0.15731038595268618  0.014468303600445435  0.5215292593177457  1.0000
  C   C382      1.0  0.11814212110153796  0.042109473523374734  0.5256255856609939  1.0000
  C   C383      1.0  0.1252200745411378  0.0036136585424285527  0.5566604104952728  1.0000
  C   C384      1.0  0.11972257880210894  0.002399040788246579  0.5104197557571796  1.0000
  H   H301      1.0  0.16676226864296934  0.9948048218037662  0.5227147494254024  1.0000
  H   H302      1.0  0.166002844423483  0.023415005574985506  0.5354316332611777  1.0000
  H   H303      1.0  0.16174273214292836  0.023994474949507995  0.500715102381153  1.0000
  H   H304      1.0  0.1260603159261248  0.05280113185282957  0.5385234742079421  1.0000
  H   H305      1.0  0.121032349592026  0.05175485825241692  0.5045656261159944  1.0000
  H   H306      1.0  0.09762572367914724  0.04385014563412703  0.5312909787546733  1.0000
  H   H307      1.0  0.13356073622053424  0.9835256999671026  0.5594289887690582  1.0000
  H   H308      1.0  0.10483550219820785  0.004548574759747833  0.5628866588076598  1.0000
  H   H309      1.0  0.13350961060110667  0.012623923106345874  0.5708232954779845  1.0000
  H   H310      1.0  0.0991854367508642  0.0027992023857414112  0.5151288411269171  1.0000
  H   H311      1.0  0.12846684738713465  0.9823873466292519  0.512180497605184  1.0000
  H   H312      1.0  0.12320662417827379  0.010901065257158482  0.4890093387451156  1.0000
  N   N7        1.0  0.49269190232123566  0.2074442344923568  0.8370070112218337  1.0000
  C   C385      1.0  0.4836536584647849  0.18611470318370887  0.855270696469815  1.0000
  C   C386      1.0  0.501595581983993  0.19989621214130893  0.8104769550550488  1.0000
  C   C387      1.0  0.5135192011553649  0.21509324678180655  0.848249200672076  1.0000
  C   C388      1.0  0.47203153486240856  0.22857644522435835  0.8340659299809751  1.0000
  H   H313      1.0  0.4673481876076719  0.18038704043842294  0.847966582054311  1.0000
  H   H314      1.0  0.47774945134142355  0.1906364017691195  0.8758906641573819  1.0000
  H   H315      1.0  0.4984560001101008  0.1694752436912078  0.8571014780238592  1.0000
  H   H316      1.0  0.5080631714471838  0.2155948384654558  0.7958506047886289  1.0000
  H   H317      1.0  0.5176101060584298  0.18435640936024814  0.8120283568544036  1.0000
  H   H318      1.0  0.486704225729487  0.19307694888917815  0.801709470649037  1.0000
  H   H319      1.0  0.5204137040920881  0.2315728530115676  0.8353911173715214  1.0000
  H   H320      1.0  0.5296828616906126  0.19977842349057137  0.8499829419792271  1.0000
  H   H321      1.0  0.5078194939093081  0.22009504058299198  0.868735729878119  1.0000
  H   H322      1.0  0.4560418422271755  0.2234344881669948  0.8255375706626951  1.0000
  H   H323      1.0  0.47819417567629935  0.24506772570844254  0.8204886085015126  1.0000
  H   H324      1.0  0.4648980626926064  0.23453993366514392  0.8538482051835667  1.0000
  N   N8        1.0  0.7236271093123339  0.9795269570119284  0.3237810592962377  1.0000
  C   C389      1.0  0.7189904307802812  0.9650431975370176  0.3508387423899062  1.0000
  C   C390      1.0  0.7088517395563578  0.00475345133535221  0.3225748631144915  1.0000
  C   C391      1.0  0.7162012649653754  0.9666897226103068  0.3033094140993598  1.0000
  C   C392      1.0  0.7505145071349888  0.9817142052268074  0.3183384135912979  1.0000
  H   H325      1.0  0.7290833068734787  0.9455875435556337  0.35223158080211864  1.0000
  H   H326      1.0  0.6987397278671207  0.9638388723375195  0.3562109649512336  1.0000
  H   H327      1.0  0.725212715668035  0.9737627938988239  0.3666627798862606  1.0000
  H   H328      1.0  0.7110137459420869  0.015832701126978765  0.30209609076684235  1.0000
  H   H329      1.0  0.6885262333962305  0.003753899727363841  0.32746061026349693  1.0000
  H   H330      1.0  0.7145945643600043  0.015413358340762962  0.3369578769789118  1.0000
  H   H331      1.0  0.6959628123394251  0.9650153858172683  0.3065836266991512  1.0000
  H   H332      1.0  0.7267914224155413  0.9475117735853688  0.30361986084337306  1.0000
  H   H333      1.0  0.7192893083691971  0.9772414251267212  0.2826812020749745  1.0000
  H   H334      1.0  0.7546550802968671  0.9926255110720505  0.2981232442513468  1.0000
  H   H335      1.0  0.7622305190510237  0.9630061486891823  0.319068299714417  1.0000
  H   H336      1.0  0.7567201053637191  0.9913494849880808  0.33344263305570615  1.0000
  N   N9        1.0  0.5476660079760497  0.7653642509165582  0.14222669127861312  1.0000
  C   C393      1.0  0.5724804247042399  0.7496481738342022  0.141635342626773  1.0000
  C   C394      1.0  0.5306411223152806  0.7541431975689834  0.16419453677298232  1.0000
  C   C395      1.0  0.5373084381632705  0.7668570667336353  0.11634447444229938  1.0000
  C   C396      1.0  0.5501266399694767  0.7907546200686053  0.1465403154954648  1.0000
  H   H337      1.0  0.5856413206416229  0.7575593331998578  0.12508002575983185  1.0000
  H   H338      1.0  0.5711614591166057  0.7304633253954956  0.13806449567351498  1.0000
  H   H339      1.0  0.5809521399549171  0.7479553600280381  0.16087256279317533  1.0000
  H   H340      1.0  0.5279965370133631  0.7351436491210409  0.16129152600658703  1.0000
  H   H341      1.0  0.5377908951957304  0.752641398354464  0.18412379909576637  1.0000
  H   H342      1.0  0.5117277135501582  0.7655630995597881  0.16505343844009174  1.0000
  H   H343      1.0  0.5186525240396967  0.7785363592003582  0.11594709625597224  1.0000
  H   H344      1.0  0.534953171380721  0.7480607108435623  0.11262043848515599  1.0000
  H   H345      1.0  0.5496439356691537  0.7749966113344808  0.09911719304525785  1.0000
  H   H346      1.0  0.5577363447248342  0.7904651500156438  0.16599539590710116  1.0000
  H   H347      1.0  0.5316854577548661  0.8030159262932283  0.14690721924450054  1.0000
  H   H348      1.0  0.5626282891966286  0.7999033220625091  0.13019564346495432  1.0000
  N   N10       1.0  0.7404720230729797  0.4383256389395356  0.9144263798307937  1.0000
  C   C397      1.0  0.7260192969059823  0.46365505463088075  0.9141462401284047  1.0000
  C   C398      1.0  0.7312955794133494  0.42141426900067225  0.938116333978166  1.0000
  C   C399      1.0  0.7671736523565595  0.4395077683481489  0.9157395157593546  1.0000
  C   C400      1.0  0.7374569711684117  0.4287648586992282  0.8896911387978634  1.0000
  H   H349      1.0  0.7327123044647563  0.4770560881790904  0.8967865734502681  1.0000
  H   H350      1.0  0.7277487983822776  0.47135584452292817  0.9326599688070565  1.0000
  H   H351      1.0  0.7057185583767479  0.4635909928265676  0.9131621827211102  1.0000
  H   H352      1.0  0.711241614518438  0.4198180403469751  0.9376295943018613  1.0000
  H   H353      1.0  0.7421778089179771  0.4022397301855287  0.9395013421821765  1.0000
  H   H354      1.0  0.7326836654907052  0.42851035238837815  0.9570188705868846  1.0000
  H   H355      1.0  0.7787997516483374  0.42077768214155464  0.9159557457518508  1.0000
  H   H356      1.0  0.7700382058514267  0.44677745000422553  0.9341252839604197  1.0000
  H   H357      1.0  0.7745615733561452  0.4523041960127655  0.8982426384523233  1.0000
  H   H358      1.0  0.7481192178397872  0.40965415854242765  0.889362851818723  1.0000
  H   H359      1.0  0.7443019420429638  0.44106494400445484  0.8714257386476055  1.0000
  H   H360      1.0  0.7174567091854834  0.42772551450756174  0.8880951080097865  1.0000
  N   N11       1.0  0.5802163390603681  0.9917105570785272  0.15832085565147375  1.0000
  C   C401      1.0  0.5542410597834213  0.9872715005801864  0.16713232606536454  1.0000
  C   C402      1.0  0.59385724148302  0.9703767099755647  0.14575049577474927  1.0000
  C   C403      1.0  0.592842960533446  0.9941689585472016  0.18174507171975923  1.0000
  C   C404      1.0  0.579934867306884  0.014929711329832977  0.13860803959179077  1.0000
  H   H361      1.0  0.5431929034654678  0.0031055338900136467  0.17633875664893056  1.0000
  H   H362      1.0  0.5536456610172037  0.9699217268624717  0.18204075426563973  1.0000
  H   H363      1.0  0.544314181036962  0.9851858979443308  0.14989068421166246  1.0000
  H   H364      1.0  0.59429874392381  0.9525625391742615  0.16017887500887107  1.0000
  H   H365      1.0  0.5848123497034443  0.967880027752302  0.1280550790473267  1.0000
  H   H366      1.0  0.6135667731309788  0.972997344964032  0.1388967362422793  1.0000
  H   H367      1.0  0.612401823145144  0.9978520745312867  0.1756777492014194  1.0000
  H   H368      1.0  0.5936257128670671  0.9768613863578856  0.19687874741966546  1.0000
  H   H369      1.0  0.5831044102384875  0.010005510107279495  0.19182048573719518  1.0000
  H   H370      1.0  0.5703920474789685  0.013832020826878538  0.12072592314598676  1.0000
  H   H371      1.0  0.5992036870493335  0.019068609487995238  0.1316506692092153  1.0000
  H   H372      1.0  0.5696961623523383  0.03135114295795575  0.14743771994404148  1.0000
  N   N12       1.0  0.984042760607407  0.5971181825299375  0.6216960496269852  1.0000
  C   C405      1.0  0.005048108816696469  0.6067885342653648  0.6040201916139001  1.0000
  C   C406      1.0  0.9936520022123778  0.5741084514213718  0.6394191516399803  1.0000
  C   C407      1.0  0.9658226884039226  0.5915111603638475  0.6050671588949332  1.0000
  C   C408      1.0  0.9716352106158838  0.6161337383291438  0.638276577985253  1.0000
  H   H373      1.0  0.015226258954632288  0.5927789963415284  0.591594222612212  1.0000
  H   H374      1.0  0.018856547175997815  0.6119113783953827  0.6158311074045615  1.0000
  H   H375      1.0  0.9983347446149267  0.6237949885829625  0.5899409986780554  1.0000
  H   H376      1.0  0.978383903073674  0.5664096272434934  0.6532984957979925  1.0000
  H   H377      1.0  0.0031288678454819466  0.5592836843518164  0.6276469703205306  1.0000
  H   H378      1.0  0.007468145273435069  0.5777937165131024  0.652104534674074  1.0000
  H   H379      1.0  0.9746884838880808  0.5777189487175705  0.5917444646631708  1.0000
  H   H380      1.0  0.9578402595627717  0.6086754336224026  0.591920841016296  1.0000
  H   H381      1.0  0.9499154361604707  0.5837816380415265  0.6177333130386765  1.0000
  H   H382      1.0  0.9558593690530451  0.6094148500440961  0.6521018693234245  1.0000
  H   H383      1.0  0.9639978279011409  0.6336970615755162  0.6255293853560785  1.0000
  H   H384      1.0  0.9849251297166896  0.6210412251961006  0.6508241172672412  1.0000
  N   N13       1.0  0.24777519864712824  0.46251873513490266  0.9960483326618543  1.0000
  C   C409      1.0  0.2568080522144362  0.48528711580679806  0.9808218531043102  1.0000
  C   C410      1.0  0.2371159906192045  0.46721714694187455  0.02324649419635569  1.0000
  C   C411      1.0  0.2688704996424215  0.4417913460801618  0.998256888191392  1.0000
  C   C412      1.0  0.22834916511094291  0.45574879833109005  0.9818359488709192  1.0000
  H   H385      1.0  0.2644646609687179  0.4824903115669139  0.96004872822833  1.0000
  H   H386      1.0  0.27194372595019645  0.49057350605046524  0.9905592107897878  1.0000
  H   H387      1.0  0.24141118299550804  0.5013994149208016  0.9790212411515268  1.0000
  H   H388      1.0  0.22954491848779351  0.45061529154602364  0.03515613638029885  1.0000
  H   H389      1.0  0.2513730468851878  0.4717039067441674  0.03487653813247032  1.0000
  H   H390      1.0  0.22137480802795398  0.48301396684786085  0.022371829076460025  1.0000
  H   H391      1.0  0.2626800083692106  0.4241672192232535  0.009202319331195197  1.0000
  H   H392      1.0  0.2837590323079535  0.4460557445474885  0.00919653597712311  1.0000
  H   H393      1.0  0.27768031319427805  0.43793995427062193  0.9781596344883328  1.0000
  H   H394      1.0  0.21928845063097419  0.4401980008404819  0.9939711417634657  1.0000
  H   H395      1.0  0.23629600529418018  0.4496047716734838  0.9624180298539627  1.0000
  H   H396      1.0  0.21349308674539463  0.47188923615341705  0.9770201732012476  1.0000
  N   N14       1.0  0.8821832340464011  0.934179882694995  0.4671993224189515  1.0000
  C   C413      1.0  0.8807064494370377  0.9571559590421264  0.44710332606639563  1.0000
  C   C414      1.0  0.8715602182008717  0.9148795170573867  0.4570539972132531  1.0000
  C   C415      1.0  0.8678029565384885  0.939774692509446  0.49263796509461427  1.0000
  C   C416      1.0  0.9086164467556123  0.924967460179825  0.47196318572803064  1.0000
  H   H397      1.0  0.8884387265137532  0.9721822075407498  0.45415232408203704  1.0000
  H   H398      1.0  0.8609710084040944  0.9645461512767394  0.4430620059613878  1.0000
  H   H399      1.0  0.8914205627733779  0.9536197196734842  0.42766608130251565  1.0000
  H   H400      1.0  0.8722596792447823  0.8973007379715799  0.4716738759844911  1.0000
  H   H401      1.0  0.8515459603292043  0.9210411478241326  0.4534390367770055  1.0000
  H   H402      1.0  0.8820292474663914  0.9100084714518396  0.4379746863677852  1.0000
  H   H403      1.0  0.8478051723592422  0.9469201278514139  0.4897361858549788  1.0000
  H   H404      1.0  0.8753422101194059  0.9541483496267221  0.5010202290521768  1.0000
  H   H405      1.0  0.8682541631699485  0.9228025113770262  0.5082057009489921  1.0000
  H   H406      1.0  0.9104039586580912  0.9078420275849115  0.48732312249208265  1.0000
  H   H407      1.0  0.9174237840904955  0.9391264215224717  0.4792492793921356  1.0000
  H   H408      1.0  0.9199769384033945  0.9199515487468385  0.4533527939293689  1.0000
  N   N15       1.0  0.4940361495243366  0.00919056056993772  0.7759701509030813  1.0000
  C   C417      1.0  0.4833827861408016  0.016473470272704308  0.8021921959792567  1.0000
  C   C418      1.0  0.49010136702707424  0.9833571077755299  0.7752715344628631  1.0000
  C   C419      1.0  0.5210978751229849  0.010722701557760518  0.7722773512461165  1.0000
  C   C420      1.0  0.4815200981249059  0.026175474401268092  0.7541325913316462  1.0000
  H   H409      1.0  0.4926311454054654  0.004138718717466931  0.8190973095096143  1.0000
  H   H410      1.0  0.4629707140396702  0.015520524670430033  0.8056870548568631  1.0000
  H   H411      1.0  0.4857520180320019  0.03599549293988441  0.8033185084360872  1.0000
  H   H412      1.0  0.49812523440902495  0.9770858401893404  0.7558481546432645  1.0000
  H   H413      1.0  0.4992249287389459  0.970018474239021  0.7915357377534004  1.0000
  H   H414      1.0  0.46985548056482634  0.9815970054598455  0.7778187150057256  1.0000
  H   H415      1.0  0.5298658913616439  0.005052472045312539  0.7528268339760206  1.0000
  H   H416      1.0  0.5310580664694217  0.9982105786479901  0.7885553398418299  1.0000
  H   H417      1.0  0.5247339129450728  0.03000267336278125  0.7726083824129555  1.0000
  H   H418      1.0  0.4888664226332943  0.020932073403374968  0.7340789662712324  1.0000
  H   H419      1.0  0.4839478879744264  0.04588529538930107  0.7540620683353975  1.0000
  H   H420      1.0  0.4610653490743125  0.02556834608450492  0.7564733511382684  1.0000
  N   N16       1.0  0.0915869098828731  0.5460093106099796  0.9259304299757447  1.0000
  C   C421      1.0  0.06534109550819708  0.5571071517661711  0.9321834923614798  1.0000
  C   C422      1.0  0.10698168797390847  0.5662081972781686  0.9170045529177095  1.0000
  C   C423      1.0  0.09300118905212394  0.5307891072274981  0.9042520479780757  1.0000
  C   C424      1.0  0.10097289125983659  0.5300396721436863  0.9502732864755761  1.0000
  H   H421      1.0  0.05772850036752342  0.5693341851654333  0.9142501069669638  1.0000
  H   H422      1.0  0.06368455779093425  0.5687224623399055  0.9484637063260115  1.0000
  H   H423      1.0  0.05315982325166901  0.5424039750736279  0.9389928971666425  1.0000
  H   H424      1.0  0.1268308498963101  0.5585038306103675  0.9120609718870804  1.0000
  H   H425      1.0  0.10066531094075096  0.5785260954212614  0.898504135499068  1.0000
  H   H426      1.0  0.10667183981180209  0.5779620741234889  0.9329055133223522  1.0000
  H   H427      1.0  0.11257790048947539  0.5222620256597973  0.8988562748473151  1.0000
  H   H428      1.0  0.08634713641912685  0.5423390617655572  0.8854924347407215  1.0000
  H   H429      1.0  0.081658627530923  0.5153146810030805  0.910155191315507  1.0000
  H   H430      1.0  0.12078152748852644  0.5214581878148535  0.9463763985340334  1.0000
  H   H431      1.0  0.08985215742014947  0.514564622119592  0.957640120067604  1.0000
  H   H432      1.0  0.1004239833146616  0.5409940676704916  0.966955426532235  1.0000
  N   N17       1.0  0.9678133990139857  0.7198039242954994  0.3141079408538031  1.0000
  C   C425      1.0  0.9628787369321811  0.7009608639578431  0.33784854877547205  1.0000
  C   C426      1.0  0.9900856168096384  0.7308256938126554  0.3171663466423903  1.0000
  C   C427      1.0  0.9459591753570199  0.7397211975473683  0.3118159865930892  1.0000
  C   C428      1.0  0.9723976974542846  0.7076542809470255  0.2897675438558433  1.0000
  H   H433      1.0  0.9788975594073978  0.6854717734242788  0.33998504805495977  1.0000
  H   H434      1.0  0.9460599045889175  0.6923952995355793  0.33640286741683434  1.0000
  H   H435      1.0  0.9596530275435965  0.7094174523340618  0.35667191455285374  1.0000
  H   H436      1.0  0.9943768795897717  0.7451712309861069  0.29965477670942225  1.0000
  H   H437      1.0  0.9873907536513256  0.7399865976647821  0.33545863149744076  1.0000
  H   H438      1.0  0.006942626169195609  0.7163515528198742  0.31904175700703613  1.0000
  H   H439      1.0  0.9490070511139787  0.754366272291606  0.2941692654744789  1.0000
  H   H440      1.0  0.9422395219598049  0.7490845880288125  0.33007751648495437  1.0000
  H   H441      1.0  0.9287404306396985  0.7321032654183891  0.30962735576590344  1.0000
  H   H442      1.0  0.9888778124251316  0.6925519347870899  0.29117611410658295  1.0000
  H   H443      1.0  0.9762537540544476  0.7212548813811673  0.2713922771854434  1.0000
  H   H444      1.0  0.9560635376967773  0.698920828734049  0.2869283731455766  1.0000
  N   N18       1.0  0.37096341856312215  0.07804413513336073  0.33847705042377535  1.0000
  C   C429      1.0  0.3952226952530191  0.07929297233457522  0.322079678859261  1.0000
  C   C430      1.0  0.3619014505633951  0.054615251227535744  0.33639122087357876  1.0000
  C   C431      1.0  0.3525342794069873  0.0995720543206795  0.3285555354086765  1.0000
  C   C432      1.0  0.37416204970920175  0.07858560747342991  0.3669009619684602  1.0000
  H   H445      1.0  0.4026701890230118  0.09677176636186369  0.32296165692024514  1.0000
  H   H446      1.0  0.3936437784059372  0.07841701732798079  0.30057217149506477  1.0000
  H   H447      1.0  0.4095379892735837  0.06333203637781382  0.3291165689684031  1.0000
  H   H448      1.0  0.3436408753781724  0.05289666939680515  0.34855821892654715  1.0000
  H   H449      1.0  0.3597467925756994  0.05316071170462355  0.31519731018331004  1.0000
  H   H450      1.0  0.37522232876248085  0.03813894643531235  0.34412436033374294  1.0000
  H   H451      1.0  0.3340217562906772  0.09910718350655623  0.34052603361191314  1.0000
  H   H452      1.0  0.3496694167340973  0.09962615868002644  0.3071759721114399  1.0000
  H   H453      1.0  0.3587644791046786  0.11759801186350938  0.32983495075872  1.0000
  H   H454      1.0  0.3880100087699466  0.06258768596002717  0.37500914039533223  1.0000
  H   H455      1.0  0.3563217153347221  0.07704306813346617  0.37996028935713366  1.0000
  H   H456      1.0  0.3807655347318776  0.09606892151098156  0.3694253782298731  1.0000
  N   N19       1.0  0.07936975618489303  0.45327857819063677  0.20170581744000698  1.0000
  C   C433      1.0  0.07367671679736776  0.43227073709769626  0.22277840142610675  1.0000
  C   C434      1.0  0.07127415318408387  0.4499060766149421  0.17596208106722455  1.0000
  C   C435      1.0  0.10657896223360551  0.45409587865820017  0.19847957675225214  1.0000
  C   C436      1.0  0.0658152196796856  0.47692422233737086  0.209610697176299  1.0000
  H   H457      1.0  0.05324501296592367  0.43117703152609604  0.22572483868414284  1.0000
  H   H458      1.0  0.07910839993958609  0.434580173339797  0.24259296281093026  1.0000
  H   H459      1.0  0.08367908577231725  0.41405450748425776  0.21774238898352669  1.0000
  H   H460      1.0  0.07528744982364444  0.4655547296464098  0.15971967034853388  1.0000
  H   H461      1.0  0.08108707131752069  0.43221646463228275  0.16934929875011445  1.0000
  H   H462      1.0  0.05078564378480938  0.44932658404054315  0.17768718928809632  1.0000
  H   H463      1.0  0.11149654485791438  0.4699954685353177  0.18301413682000725  1.0000
  H   H464      1.0  0.11745531769333108  0.43670160180699974  0.19218231695603955  1.0000
  H   H465      1.0  0.11343266185979894  0.4564311556923988  0.21755425128399727  1.0000
  H   H466      1.0  0.06977872617903487  0.49336272408361354  0.1944378100044523  1.0000
  H   H467      1.0  0.07100472592590538  0.47984628866321083  0.22927670309723447  1.0000
  H   H468      1.0  0.04524755239827553  0.476883985116813  0.21199709316062587  1.0000
  N   N20       1.0  0.4511365500376921  0.9115976819943011  0.747718702001582  1.0000
  C   C437      1.0  0.4265108510481287  0.9103172593460207  0.7633366353374432  1.0000
  C   C438      1.0  0.4485851450370554  0.9119332941097511  0.7189752853877224  1.0000
  C   C439      1.0  0.469182436200959  0.8896504272668504  0.7575031617007677  1.0000
  C   C440      1.0  0.46036804147239285  0.9345894260475701  0.7510228748457625  1.0000
  H   H469      1.0  0.4277322072218555  0.9100336845453711  0.7851505248169822  1.0000
  H   H470      1.0  0.41891423889500057  0.8932273260030235  0.7612739710045492  1.0000
  H   H471      1.0  0.4125037121870187  0.926734951297112  0.756477676987304  1.0000
  H   H472      1.0  0.4668247507723149  0.9131332715048889  0.7065940995556793  1.0000
  H   H473      1.0  0.441663702257512  0.8948866326216125  0.7156172253944356  1.0000
  H   H474      1.0  0.435285674281709  0.928456334765001  0.7108801165023876  1.0000
  H   H475      1.0  0.47169707708031494  0.8889754486847697  0.7790711232958606  1.0000
  H   H476      1.0  0.4880346600077087  0.8903133920645451  0.7462922925027642  1.0000
  H   H477      1.0  0.4629959189650238  0.8718624856849835  0.7553281660580646  1.0000
  H   H478      1.0  0.4791409169251732  0.935896129133477  0.7398304146437632  1.0000
  H   H479      1.0  0.46221283196298474  0.9351119239535877  0.7724941342556989  1.0000
  H   H480      1.0  0.4476297660889205  0.9515568475498761  0.7431194717771498  1.0000
  N   N21       1.0  0.08453587745879494  0.6689430963524098  0.4871435639943905  1.0000
  C   C441      1.0  0.07752316869775704  0.6643887211200707  0.4614077598140013  1.0000
  C   C442      1.0  0.09215973239615638  0.69401169996765  0.4835279327678874  1.0000
  C   C443      1.0  0.10554485222052636  0.649791008442152  0.4960110599792942  1.0000
  C   C444      1.0  0.06282342754229636  0.6676079630743723  0.5075504605617712  1.0000
  H   H481      1.0  0.061892797977578864  0.6787158324108968  0.4542645376153278  1.0000
  H   H482      1.0  0.0711923337934254  0.6458435462232547  0.4632927158326476  1.0000
  H   H483      1.0  0.09334521157030107  0.6653923884325249  0.4453428774055762  1.0000
  H   H484      1.0  0.09754885608102003  0.6981988773866612  0.502550189072446  1.0000
  H   H485      1.0  0.10824753483532149  0.6958800560248198  0.46792160983042896  1.0000
  H   H486      1.0  0.07666215875296421  0.7089448630112665  0.4768890866599023  1.0000
  H   H487      1.0  0.12218367476600818  0.6503559686627988  0.4809487263417112  1.0000
  H   H488      1.0  0.10035825881982088  0.6306832412299029  0.49885984027321717  1.0000
  H   H489      1.0  0.11125999115244395  0.6527471006902965  0.5154319201599378  1.0000
  H   H490      1.0  0.06750901571808918  0.6705871969570766  0.527391640225659  1.0000
  H   H491      1.0  0.055935398296213835  0.6492813254911889  0.5101739410126966  1.0000
  H   H492      1.0  0.04691643279488038  0.6823110374280268  0.5017069476379875  1.0000
  N   N22       1.0  0.3167119821640744  0.5101147023806684  0.06108213559565505  1.0000
  C   C445      1.0  0.3401538823917444  0.4931501043331271  0.05573606805975018  1.0000
  C   C446      1.0  0.3194893367969154  0.5357002014384903  0.04753501696359027  1.0000
  C   C447      1.0  0.3113072910617003  0.5099366903721684  0.09037522824653203  1.0000
  C   C448      1.0  0.2959566863199058  0.5016290893314802  0.05059719316331738  1.0000
  H   H493      1.0  0.3384367252684866  0.47339103367957974  0.06409310092979427  1.0000
  H   H494      1.0  0.35592669685826395  0.49798130060987345  0.06485629971516023  1.0000
  H   H495      1.0  0.34564522229517913  0.49395669258149866  0.03380731719333165  1.0000
  H   H496      1.0  0.30196713909354556  0.548924230070423  0.05066770743927387  1.0000
  H   H497      1.0  0.33465561825096984  0.5429591640604534  0.05534148562335921  1.0000
  H   H498      1.0  0.32427356709599714  0.5363958519798435  0.02548253855037323  1.0000
  H   H499      1.0  0.31209903628932556  0.4905727161854624  0.10146616117921961  1.0000
  H   H500      1.0  0.2922597461941019  0.5198385894413365  0.09552436608220699  1.0000
  H   H501      1.0  0.3249687926030118  0.5189791796658273  0.09850907102452537  1.0000
  H   H502      1.0  0.29981459905978153  0.5008998802180881  0.028693608316595433  1.0000
  H   H503      1.0  0.2780439793471427  0.5143168465442889  0.05395641400916859  1.0000
  H   H504      1.0  0.2929797549170116  0.48264302387529756  0.060922159999419495  1.0000
  N   N23       1.0  0.5296880004972525  0.1482950660481397  0.025823881936754237  1.0000
  C   C449      1.0  0.5307620121637339  0.12113205383839466  0.03497580840725339  1.0000
  C   C450      1.0  0.5553422638340562  0.15426660573906065  0.018338713453019722  1.0000
  C   C451      1.0  0.5175826554557316  0.16192717689115413  0.04782506845040987  1.0000
  C   C452      1.0  0.5151130448295801  0.15584883404324054  0.0022124257994959873  1.0000
  H   H505      1.0  0.5397363225327926  0.1102069995540284  0.01888647943800879  1.0000
  H   H506      1.0  0.5117109740073793  0.11598459392940302  0.040956275103428565  1.0000
  H   H507      1.0  0.5416744816836352  0.11486866375188849  0.05278334890939228  1.0000
  H   H508      1.0  0.5552567344253799  0.17463362590799728  0.011409186347964496  1.0000
  H   H509      1.0  0.566877734352823  0.14899859306140995  0.035696548718127497  1.0000
  H   H510      1.0  0.5651041296594626  0.14435605275465377  0.0017769521229213938  1.0000
  H   H511      1.0  0.5169783794119175  0.18248440360893683  0.0419716626507457  1.0000
  H   H512      1.0  0.5278690762662379  0.1562747382890562  0.06611287788253102  1.0000
  H   H513      1.0  0.49803882635382263  0.1582458571536602  0.053781244234422675  1.0000
  H   H514      1.0  0.49568003289183654  0.15148762526883833  0.006988792406418476  1.0000
  H   H515      1.0  0.5238563017517068  0.14613426800656382  0.9850745568614999  1.0000
  H   H516      1.0  0.5138262256577114  0.1762810224472514  0.9949534444735202  1.0000
  N   N24       1.0  0.8544611240499207  0.17660765693617558  0.46325782528226395  1.0000
  C   C453      1.0  0.852715826069001  0.18812891759769354  0.48780218222486893  1.0000
  C   C454      1.0  0.8767195283064921  0.15714105714148163  0.46275169460782273  1.0000
  C   C455      1.0  0.8567968829129112  0.19601553513252903  0.43937786831775133  1.0000
  C   C456      1.0  0.8317260228864107  0.16519406523908467  0.4631782370777589  1.0000
  H   H517      1.0  0.835770637147715  0.20243064686975498  0.4893373024067653  1.0000
  H   H518      1.0  0.8692498313723985  0.19751270342677135  0.4880859059680807  1.0000
  H   H519      1.0  0.8517076726682477  0.17394799434733008  0.50626534356754  1.0000
  H   H520      1.0  0.8942056458820482  0.16514958806531527  0.4627106723469471  1.0000
  H   H521      1.0  0.875766380220897  0.14237715784683033  0.4806436111880144  1.0000
  H   H522      1.0  0.8784920024679369  0.1478464022094358  0.4446373751337682  1.0000
  H   H523      1.0  0.8739049670524862  0.20486186408264476  0.4389626901122934  1.0000
  H   H524      1.0  0.8404682205728183  0.21118989776153013  0.4392347996787411  1.0000
  H   H525      1.0  0.8581038086585795  0.1880494146356344  0.4204281538993141  1.0000
  H   H526      1.0  0.829139202478658  0.15101157490185368  0.4813934385877265  1.0000
  H   H527      1.0  0.8326672089943125  0.155526088683361  0.4454294488067363  1.0000
  H   H528      1.0  0.8145951389915658  0.17940287572675026  0.46300461482428207  1.0000
  N   N25       1.0  0.5223401099833486  0.3606241384410725  0.9744710125668641  1.0000
  C   C457      1.0  0.4984807376660427  0.37690427278985017  0.9802296131887898  1.0000
  C   C458      1.0  0.5253494639682507  0.33906287143642244  0.9962691979759524  1.0000
  C   C459      1.0  0.5434143673355913  0.3748618136977798  0.9726867535923349  1.0000
  C   C460      1.0  0.5221452314903356  0.3515574938812444  0.948701490606499  1.0000
  H   H529      1.0  0.49548237849279064  0.3933649748754364  0.9641592048662124  1.0000
  H   H530      1.0  0.4978662055104002  0.3839637058410454  0.9996300136370274  1.0000
  H   H531      1.0  0.4822681881402375  0.36666358105478747  0.9815967212997189  1.0000
  H   H532      1.0  0.5429699198505831  0.3262703536837131  0.9923035253668941  1.0000
  H   H533      1.0  0.5258413489811151  0.3450647870108291  0.016035185745806427  1.0000
  H   H534      1.0  0.5097696762185105  0.3279233906322101  0.9983093567638734  1.0000
  H   H535      1.0  0.5616607578156538  0.3631293269135167  0.9680002085463435  1.0000
  H   H536      1.0  0.5444677333913001  0.3815753666323715  0.9919587090627758  1.0000
  H   H537      1.0  0.5416784642589916  0.39142506023284157  0.956607834627434  1.0000
  H   H538      1.0  0.5399695731608615  0.33927679375203695  0.9436918310927818  1.0000
  H   H539      1.0  0.5197515300685095  0.3673132032551603  0.931783687865723  1.0000
  H   H540      1.0  0.5065927842549479  0.34053363283150456  0.9494448406537794  1.0000
  N   N26       1.0  0.19203493135383962  0.8441590987487653  0.515520197142591  1.0000
  C   C461      1.0  0.19406546166503155  0.8563974073014184  0.4871709105289223  1.0000
  C   C462      1.0  0.17400880565492874  0.8602641082739417  0.5316584708546858  1.0000
  C   C463      1.0  0.21676278238690086  0.8402363094200427  0.5260454546800126  1.0000
  C   C464      1.0  0.18324192088668007  0.8198288696024209  0.5172236897337269  1.0000
  H   H541      1.0  0.17596419294507226  0.8586589638579056  0.47825125120629686  1.0000
  H   H542      1.0  0.20828364468308466  0.8453782391818769  0.4745034807481748  1.0000
  H   H543      1.0  0.19919673712799693  0.8754794497198425  0.48525876054883077  1.0000
  H   H544      1.0  0.15557921763077995  0.8648067473822628  0.5232434415928022  1.0000
  H   H545      1.0  0.17082639218760126  0.8511203133972975  0.5528605222911694  1.0000
  H   H546      1.0  0.1806405881337372  0.8783273982732399  0.5319284689003564  1.0000
  H   H547      1.0  0.23081549678530347  0.8279744186296398  0.5144904555524438  1.0000
  H   H548      1.0  0.21578079420447482  0.8313400984816759  0.5475115993866281  1.0000
  H   H549      1.0  0.22394461173934424  0.8582983729099294  0.524770836816392  1.0000
  H   H550      1.0  0.1813106678169039  0.8100360052763071  0.5383255089257124  1.0000
  H   H551      1.0  0.19618647610921056  0.8071996606215268  0.5050802162602293  1.0000
  H   H552      1.0  0.1645014294256402  0.8222126511477361  0.5096975644218149  1.0000
  N   N27       1.0  0.5754678036599603  0.08892119177419976  0.2866143229773304  1.0000
  C   C465      1.0  0.5654987295839745  0.06553075183701083  0.2864439277920678  1.0000
  C   C466      1.0  0.5576201330225569  0.11045978025654013  0.2754872233194142  1.0000
  C   C467      1.0  0.5997622467379421  0.08856226977246068  0.2700418823525618  1.0000
  C   C468      1.0  0.5789092229667699  0.09108618748190896  0.3145282444833948  1.0000
  H   H553      1.0  0.5780551641292162  0.04895654189270419  0.2955409629601335  1.0000
  H   H554      1.0  0.5630858988704179  0.06303402859155373  0.2656607507851763  1.0000
  H   H555      1.0  0.54687596691041  0.06545489419421967  0.2982896929873263  1.0000
  H   H556      1.0  0.5643252304486912  0.12850595100491238  0.27546790720177045  1.0000
  H   H557      1.0  0.5546050571727583  0.10942904093219921  0.2544283658904487  1.0000
  H   H558      1.0  0.538919735010581  0.11097156019579087  0.28722528310896744  1.0000
  H   H559      1.0  0.6136459388538452  0.07244593711634231  0.2778287818389811  1.0000
  H   H560      1.0  0.6078625179749609  0.10592348523985554  0.2697082289178787  1.0000
  H   H561      1.0  0.5977745092669023  0.0869865134258673  0.2488139650154673  1.0000
  H   H562      1.0  0.5863889638365316  0.10850184462063547  0.3155508028152757  1.0000
  H   H563      1.0  0.5920638101271004  0.07495742762574473  0.32365980701450764  1.0000
  H   H564      1.0  0.5608778912424798  0.09121473231578472  0.3275447651760247  1.0000
  N   N28       1.0  0.4996482832553776  0.09226156021416866  0.6746253804883555  1.0000
  C   C469      1.0  0.48904346695205136  0.08754572000613484  0.6508056787112009  1.0000
  C   C470      1.0  0.48345264620586154  0.11309422874958057  0.6859511833511037  1.0000
  C   C471      1.0  0.5250504007304176  0.09885795054772628  0.6668300827308846  1.0000
  C   C472      1.0  0.5009772536999013  0.069477355833694  0.6949717165954009  1.0000
  H   H565      1.0  0.5009763647334224  0.07213550259600184  0.6415437467105783  1.0000
  H   H566      1.0  0.4873475394318407  0.10437504278875448  0.6350849506549006  1.0000
  H   H567      1.0  0.4700474670698932  0.08200451033457928  0.6562328579047408  1.0000
  H   H568      1.0  0.4823276300465856  0.13067775690881026  0.6712528544427869  1.0000
  H   H569      1.0  0.46398876801684485  0.10896146817150157  0.6914788309344888  1.0000
  H   H570      1.0  0.4904986619885388  0.11678351776937727  0.7043829409295413  1.0000
  H   H571      1.0  0.5335832097836124  0.10248122849431537  0.6844007786921854  1.0000
  H   H572      1.0  0.5247914824833522  0.11586501095444043  0.6513437189392799  1.0000
  H   H573      1.0  0.5377773593117009  0.08352510511168873  0.6582362823056966  1.0000
  H   H574      1.0  0.5086473914782466  0.07235742730445893  0.713359558186762  1.0000
  H   H575      1.0  0.5131467845776033  0.053460814865768404  0.686992882328739  1.0000
  H   H576      1.0  0.48211117279633336  0.06387552292726732  0.70095897456547  1.0000
  N   N29       1.0  0.9218164522347111  0.5351972097788394  0.8665763690005964  1.0000
  C   C473      1.0  0.9203155123292626  0.5413465180276769  0.8372268545522573  1.0000
  C   C474      1.0  0.9455515806007075  0.5411766202480576  0.8733194294796757  1.0000
  C   C475      1.0  0.9208648735382926  0.5082768024656603  0.8751985275640388  1.0000
  C   C476      1.0  0.9004999819986944  0.5498413879688488  0.8805791597008026  1.0000
  H   H577      1.0  0.9028230547474287  0.5364293749881294  0.8314797115258861  1.0000
  H   H578      1.0  0.9363109405252543  0.5308231587657873  0.8260467121728022  1.0000
  H   H579      1.0  0.9205121484191793  0.5616053628379761  0.8299520339177962  1.0000
  H   H580      1.0  0.9470276517201237  0.5613355740599963  0.866924643411438  1.0000
  H   H581      1.0  0.9470957434377146  0.5367597957876601  0.8953864642297231  1.0000
  H   H582      1.0  0.9619748772638627  0.5301924922105578  0.8632263967797933  1.0000
  H   H583      1.0  0.9365129732514048  0.49659307633936883  0.8648481745004285  1.0000
  H   H584      1.0  0.9031085337533663  0.5032334317366395  0.8705293012880906  1.0000
  H   H585      1.0  0.9219996491559508  0.5028120046767611  0.8972336664472674  1.0000
  H   H586      1.0  0.8823316015069409  0.545996392961501  0.8755317143457843  1.0000
  H   H587      1.0  0.9008060656347967  0.5702744533467455  0.8749602640778168  1.0000
  H   H588      1.0  0.900658690545982  0.5451695818231256  0.9028272988465494  1.0000
  N   N30       1.0  0.9464572231289566  0.16383789062187087  0.6584167856010493  1.0000
  C   C477      1.0  0.9472605049050576  0.16565724421609504  0.6290009972591695  1.0000
  C   C478      1.0  0.9502992038553228  0.18799462247247237  0.6651546403619956  1.0000
  C   C479      1.0  0.9664656925316  0.14395848682489087  0.6684069188923307  1.0000
  C   C480      1.0  0.9217854632516316  0.15777254023068657  0.6708086715364274  1.0000
  H   H589      1.0  0.9442470872843628  0.14783374026622603  0.6231303394087626  1.0000
  H   H590      1.0  0.965647813450743  0.17006102714569965  0.6189689991350856  1.0000
  H   H591      1.0  0.9325352104865255  0.18057202878272316  0.6206994907863256  1.0000
  H   H592      1.0  0.9497698035499799  0.18740476259822714  0.6872312973647543  1.0000
  H   H593      1.0  0.9686787033095124  0.1932379753010748  0.6559100415910918  1.0000
  H   H594      1.0  0.9355909178821881  0.20342611970706165  0.6576359487693628  1.0000
  H   H595      1.0  0.9643154710060302  0.12558733291251248  0.6631583230898807  1.0000
  H   H596      1.0  0.9664053240573464  0.1418024653606603  0.6906154219385595  1.0000
  H   H597      1.0  0.9852792746588375  0.1481204041196934  0.6592783425962051  1.0000
  H   H598      1.0  0.9182408001258907  0.13973554758506018  0.6658869571901025  1.0000
  H   H599      1.0  0.906374423063352  0.1724440299785212  0.6633461449144299  1.0000
  H   H600      1.0  0.9203559505944687  0.15626221709909355  0.6930725155379137  1.0000
  N   N31       1.0  0.3635684884361089  0.3317493104467427  0.02911896495344868  1.0000
  C   C481      1.0  0.38190850159990636  0.30886047080527534  0.027349365112096624  1.0000
  C   C482      1.0  0.3706303367337902  0.3456787344610498  0.048825040802837005  1.0000
  C   C483      1.0  0.33835457902131894  0.32497563587698386  0.03781874723333223  1.0000
  C   C484      1.0  0.36328967933905165  0.34759138779295945  0.002461395378493103  1.0000
  H   H601      1.0  0.4010371798999164  0.313417308430403  0.020372938195915236  1.0000
  H   H602      1.0  0.3770023700147066  0.29777157265997367  0.012852545585784192  1.0000
  H   H603      1.0  0.38297653784735053  0.2966115382166848  0.047197072453909694  1.0000
  H   H604      1.0  0.37072887879159666  0.3344096189791252  0.06925749919292068  1.0000
  H   H605      1.0  0.38962087851961463  0.3509688728969581  0.04305603432707317  1.0000
  H   H606      1.0  0.35727918270278514  0.3632202976539301  0.05042284630168625  1.0000
  H   H607      1.0  0.3241716219556738  0.3419528256553845  0.03950813372234485  1.0000
  H   H608      1.0  0.33781734754870396  0.3129404346284342  0.05783761418010891  1.0000
  H   H609      1.0  0.3322052562148803  0.3147447476137252  0.02325996886647408  1.0000
  H   H610      1.0  0.381771650312115  0.353734688259702  0.9954675514502194  1.0000
  H   H611      1.0  0.34916102029633783  0.36465840902171487  0.0029829512302943506  1.0000
  H   H612      1.0  0.35861406357537023  0.3375573748412304  0.9868873745877957  1.0000
  N   N32       1.0  0.07815074430900777  0.20911564582622424  0.6408389159030822  1.0000
  C   C485      1.0  0.09189396636721352  0.20654623591870014  0.6647820417285996  1.0000
  C   C486      1.0  0.07238490564215203  0.23581965011246062  0.6295192088500507  1.0000
  C   C487      1.0  0.054549666360485284  0.19861335699960314  0.6485229811606363  1.0000
  C   C488      1.0  0.09370528856782954  0.1955180193097565  0.6204886871179061  1.0000
  H   H613      1.0  0.1097842386215042  0.21433597477818164  0.6595900467329354  1.0000
  H   H614      1.0  0.09648798342367049  0.18657605550777204  0.6737959044296077  1.0000
  H   H615      1.0  0.08064439793313453  0.21662500109930632  0.6805200235162763  1.0000
  H   H616      1.0  0.08968684244361395  0.24436301897430793  0.6228202568756704  1.0000
  H   H617      1.0  0.061334319385350757  0.2383720974935674  0.6118983790894114  1.0000
  H   H618      1.0  0.06090440903755606  0.2467044339339969  0.64445227258681  1.0000
  H   H619      1.0  0.04221713682495589  0.20855246403899566  0.6636895714628162  1.0000
  H   H620      1.0  0.05807509279096436  0.17838715038660014  0.6568811275522132  1.0000
  H   H621      1.0  0.04369993221304258  0.2003768257746645  0.6308272424874278  1.0000
  H   H622      1.0  0.1114729596652943  0.2032183453129566  0.613641303730063  1.0000
  H   H623      1.0  0.08364447500587988  0.19676935395455297  0.6024650213300449  1.0000
  H   H624      1.0  0.09840840148788493  0.17524831016176806  0.6282812081956393  1.0000
  N   N33       1.0  0.6762644733004797  0.4995823498943561  0.10224970824115634  1.0000
  C   C489      1.0  0.6942019429427227  0.4998872200692386  0.0779402665988154  1.0000
  C   C490      1.0  0.6669137676237342  0.5255227522283399  0.10684203157866563  1.0000
  C   C491      1.0  0.6888547554623098  0.4856729429522295  0.1257396160085452  1.0000
  C   C492      1.0  0.6551572613154633  0.48714485253387985  0.09842163499856817  1.0000
  H   H625      1.0  0.6851549975818624  0.5101079454450865  0.059840547753023096  1.0000
  H   H626      1.0  0.7015249041781866  0.480569556548108  0.07394428081798811  1.0000
  H   H627      1.0  0.7103971426762825  0.5090985598955595  0.0801019749710803  1.0000
  H   H628      1.0  0.6532074995820529  0.5260448476151764  0.12494129359433132  1.0000
  H   H629      1.0  0.6824122006114979  0.5354194398007924  0.10983672066014619  1.0000
  H   H630      1.0  0.6573598632360043  0.536597144226754  0.08948260838474467  1.0000
  H   H631      1.0  0.6760337094567321  0.48564575138787125  0.14455814923705257  1.0000
  H   H632      1.0  0.7054577458976764  0.4939661559085225  0.1287099482805041  1.0000
  H   H633      1.0  0.6953452358674179  0.46577884970578176  0.12332976228133077  1.0000
  H   H634      1.0  0.6617650363514413  0.4676032864326023  0.09457898594726963  1.0000
  H   H635      1.0  0.6451501810216154  0.4971907802676194  0.08091637433339627  1.0000
  H   H636      1.0  0.641279822407262  0.48630056940753214  0.11640673388548992  1.0000
  N   N34       1.0  0.9017234542220166  0.731585636444559  0.5720576399637909  1.0000
  C   C493      1.0  0.8901280649058922  0.757679696766545  0.5639026297146263  1.0000
  C   C494      1.0  0.9101451115778003  0.7196054947770929  0.5478873024013058  1.0000
  C   C495      1.0  0.8832603698203956  0.7176910579017081  0.5894272696069452  1.0000
  C   C496      1.0  0.9234269687755453  0.7314016600596123  0.5869787016508202  1.0000
  H   H637      1.0  0.8838512584005717  0.7675615631449546  0.581533593147913  1.0000
  H   H638      1.0  0.8736938410117211  0.7586186705131448  0.5524656541779801  1.0000
  H   H639      1.0  0.9035544624413302  0.7685085194414881  0.5505690136862745  1.0000
  H   H640      1.0  0.89432078331584  0.71979741521716  0.5358196591415084  1.0000
  H   H641      1.0  0.9243061190114491  0.7294651858664649  0.5344043471736678  1.0000
  H   H642      1.0  0.9187647020817667  0.6998127616278287  0.5531975536195768  1.0000
  H   H643      1.0  0.8915105457993938  0.6979234151292626  0.5959164141542813  1.0000
  H   H644      1.0  0.8666660331148636  0.7175006400507749  0.5786563909762453  1.0000
  H   H645      1.0  0.8765187175767827  0.7263040086585718  0.6078183118229717  1.0000
  H   H646      1.0  0.9374692185090091  0.7419736363367267  0.5743462296809355  1.0000
  H   H647      1.0  0.9328960905039873  0.7120223110815073  0.5931964194358004  1.0000
  H   H648      1.0  0.9178614271552071  0.7403150314911645  0.6053798654163376  1.0000
  N   N35       1.0  0.2595884890921536  0.05116360984948296  0.6159941249310907  1.0000
  C   C497      1.0  0.26519532804725693  0.07047291809546481  0.630446378173187  1.0000
  C   C498      1.0  0.2676258654053433  0.026120912907811943  0.6310362625086182  1.0000
  C   C499      1.0  0.27316151471508504  0.053621467557817985  0.588852277012849  1.0000
  C   C500      1.0  0.23241285974601186  0.05448188349716584  0.6135806373576617  1.0000
  H   H649      1.0  0.2856164516999524  0.06837494510505601  0.632610602031666  1.0000
  H   H650      1.0  0.2552650168803309  0.06920818040653397  0.651025385389614  1.0000
  H   H651      1.0  0.2595061451371347  0.08959655206938243  0.6195431317960736  1.0000
  H   H652      1.0  0.26457245303863636  0.010988671733350382  0.6202364107916192  1.0000
  H   H653      1.0  0.2878859862764468  0.023315356234970417  0.6340237329066425  1.0000
  H   H654      1.0  0.25721063554157736  0.023282908421792755  0.6513042693280983  1.0000
  H   H655      1.0  0.2702169565793272  0.03869024119159634  0.5777521840982531  1.0000
  H   H656      1.0  0.29360102591177495  0.052468731913123214  0.5897795500218993  1.0000
  H   H657      1.0  0.2666347995866235  0.07181108465712337  0.5764542166525939  1.0000
  H   H658      1.0  0.22144527798944327  0.052967773030208574  0.6335995778781772  1.0000
  H   H659      1.0  0.2276500523017664  0.040139543299972026  0.6027853642382434  1.0000
  H   H660      1.0  0.22579135923299534  0.07299513996847727  0.6018302099070809  1.0000
  N   N36       1.0  0.7731772707361411  0.61025321727755  0.05269458798753113  1.0000
  C   C501      1.0  0.7986582312338834  0.6128399246850251  0.05791502976873608  1.0000
  C   C502      1.0  0.7553284280365363  0.6161176712290352  0.07591177963259987  1.0000
  C   C503      1.0  0.772680217397165  0.5843513442901981  0.04859052854839696  1.0000
  C   C504      1.0  0.7660746297963262  0.6276752708281195  0.02829210756317968  1.0000
  H   H661      1.0  0.8124292908176158  0.6092877797657613  0.04038557434536716  1.0000
  H   H662      1.0  0.8051169790383456  0.5991511811740333  0.07548727559461077  1.0000
  H   H663      1.0  0.799595074806648  0.6318900186110763  0.06200799978584648  1.0000
  H   H664      1.0  0.7358974502619875  0.614291605542313  0.07265676703404034  1.0000
  H   H665      1.0  0.7601698324663431  0.6032871360625358  0.09467286970291333  1.0000
  H   H666      1.0  0.7550337902566684  0.6355522455707964  0.07957957072786082  1.0000
  H   H667      1.0  0.7535982567122684  0.5816196454170149  0.04520990990978491  1.0000
  H   H668      1.0  0.7788271472875932  0.5705767208460598  0.06620445550685239  1.0000
  H   H669      1.0  0.785336732258513  0.5795934398424002  0.030652413807938483  1.0000
  H   H670      1.0  0.7788058651714215  0.6232966624930134  0.010261618419143304  1.0000
  H   H671      1.0  0.766535140956597  0.6473978217488047  0.030418236982632907  1.0000
  H   H672      1.0  0.7468939658908827  0.6263498558961205  0.0238566429467979  1.0000
  N   N37       1.0  0.34254151278109585  0.556922248227422  0.895039640890463  1.0000
  C   C505      1.0  0.3209285774989694  0.5709776163212168  0.8811891737412163  1.0000
  C   C506      1.0  0.3618614053737037  0.5732254159782113  0.8934452570822886  1.0000
  C   C507      1.0  0.3530857916211186  0.5348915324978176  0.881980412194404  1.0000
  C   C508      1.0  0.3343700388069959  0.548611210974992  0.9235674101152964  1.0000
  H   H673      1.0  0.3129104108227952  0.5880982641448463  0.8900774033766894  1.0000
  H   H674      1.0  0.3056258902800988  0.5595021235198027  0.8825510225568381  1.0000
  H   H675      1.0  0.32625267844056627  0.5769966276237606  0.8594770353007075  1.0000
  H   H676      1.0  0.3785680330208901  0.563104184272497  0.9034264887580646  1.0000
  H   H677      1.0  0.36822298591049474  0.5802664928260217  0.8722711862718818  1.0000
  H   H678      1.0  0.35472728198165016  0.5897381239375541  0.903735988565442  1.0000
  H   H679      1.0  0.3685528162241634  0.5230906973099851  0.8928494570663152  1.0000
  H   H680      1.0  0.3605006375895167  0.5404161378130121  0.8607810638450095  1.0000
  H   H681      1.0  0.3387162294233468  0.5227225076865011  0.8817888086876893  1.0000
  H   H682      1.0  0.3197932162950907  0.5362453366207075  0.925573757196292  1.0000
  H   H683      1.0  0.32669772491254445  0.5647878192880239  0.9341722774117609  1.0000
  H   H684      1.0  0.35022399724241304  0.5377646671593874  0.9345036767997593  1.0000
  N   N38       1.0  0.5747341392526434  0.60481772618686  0.020753312902789256  1.0000
  C   C509      1.0  0.5725177996503058  0.628814464573037  0.03094932012911067  1.0000
  C   C510      1.0  0.5775538303593117  0.5839457695122383  0.04334261174337839  1.0000
  C   C511      1.0  0.5968745870124195  0.6023407061486371  0.0009197391492807849  1.0000
  C   C512      1.0  0.5520408445373676  0.6041952899811015  0.007742892050194516  1.0000
  H   H685      1.0  0.5702895121512419  0.6449279360820247  0.014383302148382127  1.0000
  H   H686      1.0  0.5895399369798666  0.6301636949777508  0.040464742566821865  1.0000
  H   H687      1.0  0.5561637826127712  0.6313713732347702  0.04615943881508988  1.0000
  H   H688      1.0  0.5798323355150651  0.5655066645963205  0.036282031660550995  1.0000
  H   H689      1.0  0.5944419226036963  0.584015156971253  0.05367377005780094  1.0000
  H   H690      1.0  0.5611045159002374  0.5850227478173358  0.058621661685751114  1.0000
  H   H691      1.0  0.5956268907090569  0.6179323239099588  0.9836762671322489  1.0000
  H   H692      1.0  0.5994053898406231  0.5843504160276387  0.9929153278182389  1.0000
  H   H693      1.0  0.6142217143867325  0.6028872882274966  0.010097567340082048  1.0000
  H   H694      1.0  0.5530797543605941  0.5862898751378809  0.9998898855690479  1.0000
  H   H695      1.0  0.5495178234177381  0.6196701504191336  0.9905132497334476  1.0000
  H   H696      1.0  0.5349295972462252  0.6062204527202861  0.02209133871196367  1.0000
  N   N39       1.0  0.030822351971033814  0.8032969374910309  0.578139524524542  1.0000
  C   C513      1.0  0.05483181189947642  0.8129992570534788  0.5762154891710379  1.0000
  C   C514      1.0  0.010679881540487395  0.8204135526926303  0.5906836713905259  1.0000
  C   C515      1.0  0.03286818296431773  0.7782814342089198  0.5947220260887986  1.0000
  C   C516      1.0  0.024928835114229504  0.8014970158517817  0.5509123517855743  1.0000
  H   H697      1.0  0.07039658573222538  0.8007386630577474  0.5664715614073723  1.0000
  H   H698      1.0  0.060036868140777085  0.8144070609334683  0.5963705348273357  1.0000
  H   H699      1.0  0.05390359611881513  0.8319638210345606  0.5640419099531274  1.0000
  H   H700      1.0  0.9922255581957821  0.813818979431676  0.5921799652674342  1.0000
  H   H701      1.0  0.014360070508178887  0.8220330710237842  0.6113646792036407  1.0000
  H   H702      1.0  0.008872146836383715  0.839565571707749  0.5788331746180692  1.0000
  H   H703      1.0  0.015214106352935053  0.7702485489827546  0.5964292959778127  1.0000
  H   H704      1.0  0.03694305454400486  0.7789403628016784  0.6155435533863025  1.0000
  H   H705      1.0  0.048017566251310914  0.7649764857916468  0.5859681713972608  1.0000
  H   H706      1.0  0.007041027036490905  0.794039626182973  0.551625465894785  1.0000
  H   H707      1.0  0.039915988790882845  0.788922477829513  0.5407490562569727  1.0000
  H   H708      1.0  0.02303048441150726  0.8201814379882302  0.5380206928422835  1.0000
  N   N40       1.0  0.6640095644151761  0.049153933078376566  0.4707156836562053  1.0000
  C   C517      1.0  0.6724896938373595  0.02634768516087016  0.48936431930498114  1.0000
  C   C518      1.0  0.6457196728885912  0.0662183959271947  0.48550986894232157  1.0000
  C   C519      1.0  0.6521519118855107  0.04225299340271693  0.44889276887154117  1.0000
  C   C520      1.0  0.685704835475366  0.06176223935031744  0.45911206424718215  1.0000
  H   H709      1.0  0.6864821543332172  0.013156059949720245  0.4788862177872528  1.0000
  H   H710      1.0  0.6566390284481083  0.01623990558398214  0.4983168461793001  1.0000
  H   H711      1.0  0.6813953409032992  0.0308975715426989  0.506189062991466  1.0000
  H   H712      1.0  0.639031559765518  0.08369776287155939  0.47208582564097473  1.0000
  H   H713      1.0  0.6291083125911332  0.05730490446061398  0.4945640699529284  1.0000
  H   H714      1.0  0.6541516361396317  0.07170449540299972  0.5021601125952367  1.0000
  H   H715      1.0  0.6454778871685529  0.05895131147053689  0.4343861347488276  1.0000
  H   H716      1.0  0.6358792605978965  0.03239311659673261  0.4568522918496968  1.0000
  H   H717      1.0  0.6655545630544563  0.029495035959300475  0.43735295464581647  1.0000
  H   H718      1.0  0.7002017696986406  0.04925323395548542  0.44840506355598575  1.0000
  H   H719      1.0  0.6948712069613746  0.06763470739302413  0.4749273808271174  1.0000
  H   H720      1.0  0.6801863674355941  0.0787544318664879  0.44447156969009394  1.0000
  N   N41       1.0  0.8449530582600039  0.49689774578369106  0.21819901348529452  1.0000
  C   C521      1.0  0.8346170919949454  0.474387919101308  0.21520574583872445  1.0000
  C   C522      1.0  0.8715392632766483  0.48985309564656004  0.22343811279279807  1.0000
  C   C523      1.0  0.8306993358745542  0.5083534667675107  0.24079709823468812  1.0000
  C   C524      1.0  0.8429278069336985  0.515046133484547  0.19318413831792938  1.0000
  H   H721      1.0  0.8452953516515184  0.46520664378702026  0.19847235873329858  1.0000
  H   H722      1.0  0.8147372381262094  0.4791302258014299  0.21054179221235464  1.0000
  H   H723      1.0  0.8354814882954128  0.4603360500063456  0.23380947756857065  1.0000
  H   H724      1.0  0.8804426978203073  0.5065441080799592  0.224262427036943  1.0000
  H   H725      1.0  0.8737670427371731  0.47700264224682704  0.24276075020897075  1.0000
  H   H726      1.0  0.8825690978683366  0.48010849924656374  0.20732002492030172  1.0000
  H   H727      1.0  0.8382502565855369  0.5252955466408906  0.24357856983198983  1.0000
  H   H728      1.0  0.8315905050014878  0.49511928004202105  0.2600212955924925  1.0000
  H   H729      1.0  0.8106209601763269  0.5141372804663356  0.2372453596533992  1.0000
  H   H730      1.0  0.8504561322679688  0.5323653809097186  0.19460659608140893  1.0000
  H   H731      1.0  0.8231497841074508  0.5205790250633904  0.18835673072723474  1.0000
  H   H732      1.0  0.8536627215688438  0.5069974241026013  0.1758440529389102  1.0000
  N   N42       1.0  0.3613104199619851  0.6439240007875086  0.09494861473031335  1.0000
  C   C525      1.0  0.37599307771142754  0.6626292016387059  0.10021454870625109  1.0000
  C   C526      1.0  0.3430114294487469  0.6560015159388064  0.07566864590130952  1.0000
  C   C527      1.0  0.34784074505191487  0.6333806659074366  0.12029739157986313  1.0000
  C   C528      1.0  0.37834458733187415  0.6236377615836681  0.08354163205588952  1.0000
  H   H733      1.0  0.3902205683156107  0.6541725555823905  0.1144568247700746  1.0000
  H   H734      1.0  0.3637913987222546  0.6782470814436969  0.10884510482027349  1.0000
  H   H735      1.0  0.3862020135933288  0.6709770593442138  0.0813869580125494  1.0000
  H   H736      1.0  0.33108481588493993  0.6425944509364756  0.07194464029658641  1.0000
  H   H737      1.0  0.3303330062645571  0.6719499005670535  0.08313412095252581  1.0000
  H   H738      1.0  0.35245072766540136  0.66335894037772  0.05593330165379702  1.0000
  H   H739      1.0  0.3366680371817019  0.6191179550745802  0.11685531481505072  1.0000
  H   H740      1.0  0.33461680318073433  0.6481264802912126  0.12933312216000648  1.0000
  H   H741      1.0  0.36101632620709573  0.624116384596492  0.13538869338316586  1.0000
  H   H742      1.0  0.3678527285135639  0.60926157219577  0.07914624327218135  1.0000
  H   H743      1.0  0.3923565942649511  0.6140307604064514  0.09758552355788372  1.0000
  H   H744      1.0  0.3888318155325972  0.6309263736138929  0.06440015828739028  1.0000
  N   N43       1.0  0.6704575807293758  0.09977977418786255  0.6355965380811446  1.0000
  C   C529      1.0  0.6717944793987468  0.12158167264800168  0.6485795364764546  1.0000
  C   C530      1.0  0.6921961320061774  0.09616282190709247  0.615424163469215  1.0000
  C   C531      1.0  0.6471166070592824  0.10410772598437301  0.622231086930004  1.0000
  C   C532      1.0  0.6706260975921421  0.07722915518430185  0.6562233810249393  1.0000
  H   H745      1.0  0.6555068693737374  0.12476437223408432  0.6638438288639106  1.0000
  H   H746      1.0  0.6717455125965329  0.1389676906610955  0.6336244869705737  1.0000
  H   H747      1.0  0.6890944489806379  0.1188998342951515  0.6590392276068232  1.0000
  H   H748      1.0  0.6917641568893278  0.07970263117265786  0.605487687477685  1.0000
  H   H749      1.0  0.6925702110080959  0.11266866875728287  0.5993013366379044  1.0000
  H   H750      1.0  0.7101829718445359  0.09291251722210925  0.6247274125001735  1.0000
  H   H751      1.0  0.6303176478120529  0.10671773758925074  0.6369516074315497  1.0000
  H   H752      1.0  0.6455300655536451  0.08804255103412695  0.6121419326660251  1.0000
  H   H753      1.0  0.6462800119797073  0.12105113590080818  0.6066157207079663  1.0000
  H   H754      1.0  0.6882327896284854  0.07293637763898464  0.666281981211233  1.0000
  H   H755      1.0  0.6689393769799835  0.060548163270400135  0.6472908624274251  1.0000
  H   H756      1.0  0.6547560466548363  0.07949154608248743  0.6720480837746803  1.0000
  N   N44       1.0  0.963398429055075  0.41848924562799256  0.754670416042891  1.0000
  C   C533      1.0  0.9834438007588583  0.4040759698441655  0.7706966976828944  1.0000
  C   C534      1.0  0.9605262309242169  0.405268365935847  0.7324349573196894  1.0000
  C   C535      1.0  0.9700285277630188  0.4434660604706583  0.7434957161173564  1.0000
  C   C536      1.0  0.9396186924128362  0.42122742465960183  0.7721052107991958  1.0000
  H   H757      1.0  0.9858412217950874  0.4134241532969378  0.7878625568064358  1.0000
  H   H758      1.0  0.0017746660609334458  0.40214609126673356  0.7583679353209288  1.0000
  H   H759      1.0  0.9793540041676239  0.38494736865042645  0.7791275043206015  1.0000
  H   H760      1.0  0.9451804039587898  0.4153653417699935  0.7203007753120608  1.0000
  H   H761      1.0  0.9778824121858288  0.40355166042844226  0.71847452820958  1.0000
  H   H762      1.0  0.9563398149757569  0.3860013975067131  0.7400020424104072  1.0000
  H   H763      1.0  0.987884744390069  0.44217274949094804  0.7301936467845692  1.0000
  H   H764      1.0  0.9725199642158406  0.4537846267391365  0.7597819517046448  1.0000
  H   H765      1.0  0.9552978005038028  0.4550483703124673  0.7314535858958883  1.0000
  H   H766      1.0  0.9339647573009561  0.4027390912069723  0.7807962388868985  1.0000
  H   H767      1.0  0.9241122220938082  0.43237796202661377  0.7608527289682425  1.0000
  H   H768      1.0  0.9412388303348477  0.43095293232050247  0.7891991143211384  1.0000
  N   N45       1.0  0.09943500079885086  0.567319650865207  0.736433279343133  1.0000
  C   C537      1.0  0.1201133848169128  0.5626337197385834  0.7539152639507337  1.0000
  C   C538      1.0  0.07717765341460352  0.5578525400280571  0.7516595255949768  1.0000
  C   C539      1.0  0.10717813052227369  0.5541964443559152  0.7129743900890807  1.0000
  C   C540      1.0  0.09324929438215192  0.5944527388183566  0.7272167842937564  1.0000
  H   H769      1.0  0.1369986864442265  0.5702357060158203  0.743403759339009  1.0000
  H   H770      1.0  0.12579730820195847  0.5422573792067003  0.7603696283943869  1.0000
  H   H771      1.0  0.11469453822473318  0.5712526568750972  0.7725154131801182  1.0000
  H   H772      1.0  0.07155644078307713  0.5662031507512439  0.7703717435400929  1.0000
  H   H773      1.0  0.06082126402561834  0.5621587187544413  0.7396329151956339  1.0000
  H   H774      1.0  0.08074780289855922  0.5372246190517829  0.7574343470762506  1.0000
  H   H775      1.0  0.09206262949343391  0.5572714520566938  0.6993386590630426  1.0000
  H   H776      1.0  0.1117688538709362  0.5336139857829503  0.7193639236884454  1.0000
  H   H777      1.0  0.12401531391661016  0.5607501566253554  0.7010427541909162  1.0000
  H   H778      1.0  0.07757418826211175  0.5986258294261555  0.7141210968565034  1.0000
  H   H779      1.0  0.10952372761395672  0.6022621602334008  0.7154052118179312  1.0000
  H   H780      1.0  0.08740299113721327  0.6048369800964358  0.7445010531071089  1.0000
  N   N46       1.0  0.5142297780906014  0.9075697385626869  0.35886784560487295  1.0000
  C   C541      1.0  0.4908350255284443  0.9061640381951673  0.3768247214870484  1.0000
  C   C542      1.0  0.5341845663572334  0.8879713903179386  0.36950408079711283  1.0000
  C   C543      1.0  0.5219620626198804  0.9323365024980595  0.35743155893946926  1.0000
  C   C544      1.0  0.5099485577031204  0.9038204957324327  0.33172360807234597  1.0000
  H   H781      1.0  0.4754065969704715  0.9207615080429417  0.36940709077511424  1.0000
  H   H782      1.0  0.49324130602368244  0.9092075609151812  0.3974572995928927  1.0000
  H   H783      1.0  0.4843886668142924  0.8877264443444556  0.378344176813971  1.0000
  H   H784      1.0  0.529308168830565  0.8689468217761854  0.3703254202673772  1.0000
  H   H785      1.0  0.5522638618075271  0.8889665396100984  0.3567636872312346  1.0000
  H   H786      1.0  0.5375883538888988  0.8900632669930271  0.3901457560278901  1.0000
  H   H787      1.0  0.5395876446666531  0.9340177961092487  0.3441361075925093  1.0000
  H   H788      1.0  0.5254663465016433  0.9356806795655814  0.3776151937303234  1.0000
  H   H789      1.0  0.5072556392446714  0.9476525589624618  0.34984532453641  1.0000
  H   H790      1.0  0.5269729837053077  0.9051637949222259  0.31741605362014064  1.0000
  H   H791      1.0  0.49460447070053243  0.9179444204422235  0.323373448281841  1.0000
  H   H792      1.0  0.5046678104095822  0.8850239211467855  0.332021171530621  1.0000
  N   N47       1.0  0.5254979600912141  0.8660571509621663  0.9669960439808123  1.0000
  C   C545      1.0  0.537550672374286  0.844121730378965  0.954479401301166  1.0000
  C   C546      1.0  0.5346309037599973  0.8643878741196896  0.9936164636103082  1.0000
  C   C547      1.0  0.4980928598727781  0.8665934422988518  0.970309846253332  1.0000
  C   C548      1.0  0.5316548439849325  0.8891060222657677  0.9495325624135658  1.0000
  H   H793      1.0  0.5328395787762628  0.8263797137981103  0.9667563628517412  1.0000
  H   H794      1.0  0.5582738139181259  0.8428689544943393  0.9520025517147573  1.0000
  H   H795      1.0  0.5313911475011831  0.8450472588078142  0.9341283594848452  1.0000
  H   H796      1.0  0.5258723267216746  0.8806761759489914  0.003608467559373052  1.0000
  H   H797      1.0  0.5301643512772211  0.8471741660489135  0.0072399647381491405  1.0000
  H   H798      1.0  0.5552676081485641  0.8638970680769364  0.9919276424174851  1.0000
  H   H799      1.0  0.4883220049497627  0.8829631259093111  0.9795714086372728  1.0000
  H   H800      1.0  0.4926986621508148  0.8494464460042118  0.9833368013629191  1.0000
  H   H801      1.0  0.4906142905418129  0.8677937729500027  0.9506193924984356  1.0000
  H   H802      1.0  0.5225975038484291  0.9061617406557928  0.9580312168707937  1.0000
  H   H803      1.0  0.5251516310737302  0.8907839052827159  0.9292114238964974  1.0000
  H   H804      1.0  0.5521604723917366  0.8895351316648845  0.9466278614784733  1.0000
  N   N48       1.0  0.5237590430422079  0.989949752339252  0.26798338713753433  1.0000
  C   C549      1.0  0.5355801885711257  0.9685270190325108  0.2863113948654478  1.0000
  C   C550      1.0  0.5335347101191263  0.012780822693960818  0.27095514593703873  1.0000
  C   C551      1.0  0.49636344104476127  0.993326972347252  0.274765329909063  1.0000
  C   C552      1.0  0.5295720417927255  0.9852407077462033  0.23990156199224807  1.0000
  H   H805      1.0  0.5288165643599995  0.950906545477673  0.28451564804279145  1.0000
  H   H806      1.0  0.5317298626248228  0.9716523189891367  0.30761504709083093  1.0000
  H   H807      1.0  0.5562451531013596  0.9655061178238861  0.28174550801069637  1.0000
  H   H808      1.0  0.5253111726583716  0.029241267780039614  0.25705466360963586  1.0000
  H   H809      1.0  0.5289572644506653  0.01728009455476624  0.29175015854134395  1.0000
  H   H810      1.0  0.5542254059334758  0.01070136170082043  0.26646521679038354  1.0000
  H   H811      1.0  0.4870188769127088  0.0097881416967656  0.26178763034736235  1.0000
  H   H812      1.0  0.49120450391799586  0.9964400932981972  0.29596912977214146  1.0000
  H   H813      1.0  0.488143346261384  0.9768198829107634  0.2718199541464556  1.0000
  H   H814      1.0  0.5216726102809184  0.0015070918195971847  0.2255388355369782  1.0000
  H   H815      1.0  0.5214005257384006  0.9688847470327335  0.2365476270246729  1.0000
  H   H816      1.0  0.550113433752092  0.9813201101901501  0.23447993905143602  1.0000
  N   N49       1.0  0.9594649455202015  0.28302610445125453  0.531432008746218  1.0000
  C   C553      1.0  0.9383986615313649  0.2690742863356836  0.5319492243165493  1.0000
  C   C554      1.0  0.9552797552413982  0.2971455636626126  0.5542930228154037  1.0000
  C   C555      1.0  0.9611368235337844  0.3006386751540443  0.5059997578737756  1.0000
  C   C556      1.0  0.9830088420019407  0.2652912492464965  0.5334106387111588  1.0000
  H   H817      1.0  0.9361428739027067  0.2559634912815705  0.5510582451911894  1.0000
  H   H818      1.0  0.9412405831650904  0.25786962141304764  0.5152184087391309  1.0000
  H   H819      1.0  0.9203931526913232  0.2819312715392677  0.5299496361741918  1.0000
  H   H820      1.0  0.9707860432286448  0.30796385046944025  0.5544635126649969  1.0000
  H   H821      1.0  0.9377310520526975  0.310843493394821  0.5533865818133269  1.0000
  H   H822      1.0  0.9538519514675482  0.2845441102068931  0.5738685447368194  1.0000
  H   H823      1.0  0.9638174218991986  0.29072223238938844  0.48822752620255044  1.0000
  H   H824      1.0  0.976835684663172  0.31151654302484527  0.5047724076603912  1.0000
  H   H825      1.0  0.9437120581868782  0.3144199959993766  0.5039851281158618  1.0000
  H   H826      1.0  0.9992348601319362  0.27516235695880337  0.5334612448894224  1.0000
  H   H827      1.0  0.9868526057900399  0.2544472204908323  0.5163196887261866  1.0000
  H   H828      1.0  0.9822058460851467  0.25155751971868096  0.552236460729117  1.0000
  N   N50       1.0  0.7668049906703829  0.48375441112155465  0.01278120221651887  1.0000
  C   C557      1.0  0.758620116026578  0.48609444307799526  0.04116842263150248  1.0000
  C   C558      1.0  0.7446582365533807  0.488031214309654  0.9974344902302905  1.0000
  C   C559      1.0  0.780541293980198  0.4584405801435784  0.011013389079037624  1.0000
  C   C560      1.0  0.7834421846770905  0.5024453521221023  0.0015817516243170628  1.0000
  H   H829      1.0  0.7748918253870638  0.4829434464321277  0.053317179192917265  1.0000
  H   H830      1.0  0.746172858965082  0.47212446481681986  0.05029106758923154  1.0000
  H   H831      1.0  0.7482821913736755  0.5050340171263644  0.043155449826852224  1.0000
  H   H832      1.0  0.7501010306239498  0.486156353984881  0.9759309124800095  1.0000
  H   H833      1.0  0.7315423987443853  0.4744166142293078  0.005576121016713564  1.0000
  H   H834      1.0  0.7339780387546619  0.5070783184990577  0.9980595158098048  1.0000
  H   H835      1.0  0.768584325090003  0.44383418929646173  0.019260029939444447  1.0000
  H   H836      1.0  0.797158478347588  0.45444979480083997  0.022690885720299644  1.0000
  H   H837      1.0  0.7870776244264761  0.45609834436484975  0.9898402438949779  1.0000
  H   H838      1.0  0.8000979281584654  0.5000406227657603  0.013057513311166983  1.0000
  H   H839      1.0  0.773563693447271  0.5218331537414674  0.0020808879614668823  1.0000
  H   H840      1.0  0.7903520304191352  0.5009012136330917  0.9803148342592218  1.0000
  N   N51       1.0  0.4382559870136843  0.9966704363690493  0.8869030519794664  1.0000
  C   C561      1.0  0.4282944513971803  0.9961746615431458  0.8611799676657036  1.0000
  C   C562      1.0  0.4226599637520576  0.016447791164227343  0.9004769960441392  1.0000
  C   C563      1.0  0.46430266454138847  0.0019707302815910044  0.8817736160910757  1.0000
  C   C564      1.0  0.43770798545878453  0.9721636177593797  0.9042212743501279  1.0000
  H   H841      1.0  0.4087442152722738  0.9919191688357121  0.8644375354837079  1.0000
  H   H842      1.0  0.4395066254673387  0.9815179874833456  0.8503122968453241  1.0000
  H   H843      1.0  0.42816048157296704  0.014465081975114646  0.8477444363071416  1.0000
  H   H844      1.0  0.4296155529140068  0.01746236153509284  0.9199457850343948  1.0000
  H   H845      1.0  0.42273157885403434  0.03517921788473766  0.8878242830986892  1.0000
  H   H846      1.0  0.4028583532311097  0.013094182201636384  0.9046287086258695  1.0000
  H   H847      1.0  0.465493447908508  0.020357389162135364  0.8688555527582138  1.0000
  H   H848      1.0  0.476712567143274  0.9874031775722694  0.8717215058469893  1.0000
  H   H849      1.0  0.47231175874720116  0.002440439419322038  0.9008305580991554  1.0000
  H   H850      1.0  0.4183962681632513  0.9673068295870548  0.9081946399226715  1.0000
  H   H851      1.0  0.44499766272547114  0.9718236184516249  0.9238691050874267  1.0000
  H   H852      1.0  0.44941947189896275  0.9568731584914095  0.8946003181921527  1.0000
  N   N52       1.0  0.6352848849685652  0.25328145709366895  0.03836095199232822  1.0000
  C   C565      1.0  0.6519356337700469  0.27195431011662546  0.03850202882474707  1.0000
  C   C566      1.0  0.612140878919456  0.2588398873880034  0.056127391518287904  1.0000
  C   C567      1.0  0.648122516424021  0.228024024691122  0.04813402411013936  1.0000
  C   C568      1.0  0.6288943467144529  0.2541918083669235  0.010673926983035598  1.0000
  H   H853      1.0  0.6564936672346754  0.27249310792759873  0.059182838905787065  1.0000
  H   H854      1.0  0.6431410099412194  0.2911062601637549  0.03039899724475544  1.0000
  H   H855      1.0  0.6698631699330785  0.26796295213304216  0.02585918541982819  1.0000
  H   H856      1.0  0.6162263041653593  0.25816551954269346  0.07722870996357904  1.0000
  H   H857      1.0  0.6019716054170725  0.27775520643965024  0.049483080782541926  1.0000
  H   H858      1.0  0.5991000899833588  0.24515968568803118  0.0563161591741502  1.0000
  H   H859      1.0  0.6655169546710078  0.2230067030186282  0.03504548050712824  1.0000
  H   H860      1.0  0.6358946101324087  0.21355566487398767  0.04843715670354414  1.0000
  H   H861      1.0  0.6533270233370454  0.22666863236644202  0.06894262044199809  1.0000
  H   H862      1.0  0.6168462748789199  0.23992918899557825  0.009779533873064405  1.0000
  H   H863      1.0  0.6459086433996994  0.25061737852233196  0.996556718556832  1.0000
  H   H864      1.0  0.6185950197506682  0.2727539562947797  0.0028097005272995634  1.0000
  N   N53       1.0  0.34910399441761053  0.953148592654493  0.5194064810088586  1.0000
  C   C569      1.0  0.37423699760776197  0.9388144616978801  0.5144719277799229  1.0000
  C   C570      1.0  0.32992604284050725  0.9388074649997022  0.5143675162310345  1.0000
  C   C571      1.0  0.3471650110073211  0.9773149540299367  0.5011670150780786  1.0000
  C   C572      1.0  0.3449854878068294  0.9576867563892372  0.5476028628439376  1.0000
  H   H865      1.0  0.389142470864202  0.9491892130984185  0.5180072399616727  1.0000
  H   H866      1.0  0.3778052937507974  0.935057633573075  0.4933364995321325  1.0000
  H   H867      1.0  0.3763857665113673  0.9204816973447093  0.5279415240401  1.0000
  H   H868      1.0  0.33174099410506863  0.9357746841979228  0.49301166794243967  1.0000
  H   H869      1.0  0.33110446058339316  0.9202225236504729  0.5273254258994885  1.0000
  H   H870      1.0  0.3107282058840913  0.9488449033718173  0.5186259402110954  1.0000
  H   H871      1.0  0.3282962104168625  0.988458226188696  0.504021762016641  1.0000
  H   H872      1.0  0.3503280652870347  0.9745942218813968  0.47968726418398355  1.0000
  H   H873      1.0  0.36111434842384355  0.9888427205298779  0.5045870889628669  1.0000
  H   H874      1.0  0.3588568139030969  0.9687066445969529  0.5523052345131328  1.0000
  H   H875      1.0  0.34615143919342  0.9399085310183649  0.5620487168750371  1.0000
  H   H876      1.0  0.32606446257476984  0.9682310732048419  0.5518807952964699  1.0000
  N   N54       1.0  0.7299873711818922  0.9505792006219606  0.5866535948815794  1.0000
  C   C573      1.0  0.721010542089655  0.9569615736920163  0.6136698633936585  1.0000
  C   C574      1.0  0.7131803036800504  0.9350635468354981  0.5788429759324742  1.0000
  C   C575      1.0  0.7556067050237623  0.9365303161181329  0.5870536971650702  1.0000
  C   C576      1.0  0.7301676703507558  0.9737646752313276  0.5669724356868489  1.0000
  H   H877      1.0  0.7018272326576229  0.9678765939049925  0.6140493656200816  1.0000
  H   H878      1.0  0.7334302863465787  0.9684639534568658  0.6202817569870942  1.0000
  H   H879      1.0  0.7203361873091217  0.9399316992970995  0.6290250484866209  1.0000
  H   H880      1.0  0.6936526439051994  0.9450645320129598  0.5784859742658874  1.0000
  H   H881      1.0  0.719399313665765  0.9300490771093725  0.558458955486165  1.0000
  H   H882      1.0  0.7127334346707427  0.9173094872980498  0.5931520181692889  1.0000
  H   H883      1.0  0.7627731377902001  0.9310660912256382  0.567063385781763  1.0000
  H   H884      1.0  0.7564030244626575  0.919144210945193  0.6020372776601157  1.0000
  H   H885      1.0  0.7689905084706334  0.9479825690522252  0.592035237956081  1.0000
  H   H886      1.0  0.7426834102418642  0.985943877067305  0.572260541044858  1.0000
  H   H887      1.0  0.7111571262572577  0.9848509893173815  0.5659701851070666  1.0000
  H   H888      1.0  0.7372229010364619  0.9696338286065497  0.5464253912686684  1.0000
  N   N55       1.0  0.4262983359680471  0.7508185784212201  0.9656229633739973  1.0000
  C   C577      1.0  0.40766050001360155  0.7341411771682247  0.9653423843671424  1.0000
  C   C578      1.0  0.43668773921924803  0.7454625472446557  0.9919594895835928  1.0000
  C   C579      1.0  0.41409808699031736  0.7771111136868266  0.9609931147748869  1.0000
  C   C580      1.0  0.44679700331586464  0.7466422394296897  0.9442191638309068  1.0000
  H   H889      1.0  0.40001456083912573  0.737045522550552  0.9454900324518297  1.0000
  H   H890      1.0  0.3914828185284525  0.7374947441097219  0.9805952834508975  1.0000
  H   H891      1.0  0.4158407375215078  0.7140778657692556  0.9698998684428216  1.0000
  H   H892      1.0  0.44443923082995745  0.7253521120774346  0.9971681381851334  1.0000
  H   H893      1.0  0.4521004436493438  0.7563680680294629  0.9921240616944252  1.0000
  H   H894      1.0  0.42224624972704033  0.7504904008887348  0.008384834804712638  1.0000
  H   H895      1.0  0.40604087771078295  0.7818888222163015  0.9412980748779224  1.0000
  H   H896      1.0  0.4275870638495619  0.7901847064535854  0.9611561156346987  1.0000
  H   H897      1.0  0.3987239081412581  0.7810126305325571  0.976976075346535  1.0000
  H   H898      1.0  0.46102958670563143  0.7591891083519052  0.9437841544125403  1.0000
  H   H899      1.0  0.4397050416377893  0.7503862984564563  0.9240212131972706  1.0000
  H   H900      1.0  0.45657948532320125  0.7270413287991981  0.9473373674861907  1.0000
  N   N56       1.0  0.06237267064926415  0.2987913393621949  0.48124568860342415  1.0000
  C   C581      1.0  0.0522695698949837  0.27552245922148033  0.49301534463346847  1.0000
  C   C582      1.0  0.06453318957275951  0.3013726694627309  0.45159741176105117  1.0000
  C   C583      1.0  0.08732463931693984  0.29778445219030575  0.49039510890555704  1.0000
  C   C584      1.0  0.04540536182700922  0.3204862324565696  0.4899948762772141  1.0000
  H   H901      1.0  0.050198584309206644  0.2730599839949174  0.5153721076722232  1.0000
  H   H902      1.0  0.06488421430270173  0.2587842454934808  0.48712136339172596  1.0000
  H   H903      1.0  0.03369373491878141  0.2753543695388575  0.48602494219453374  1.0000
  H   H904      1.0  0.04605680336718146  0.30214375613779565  0.4439932079737193  1.0000
  H   H905      1.0  0.0719483333877261  0.31878917109625493  0.44194375241799005  1.0000
  H   H906      1.0  0.07712676835149862  0.2853179012840723  0.444191137328531  1.0000
  H   H907      1.0  0.09579501704638396  0.3147950731012175  0.4814986251243419  1.0000
  H   H908      1.0  0.10049282725790341  0.2812257099206035  0.4848566973114937  1.0000
  H   H909      1.0  0.08620444610188188  0.29645504694263186  0.512609703491731  1.0000
  H   H910      1.0  0.026337409106396353  0.32180942155970016  0.48360627132711576  1.0000
  H   H911      1.0  0.052276115084396085  0.33840465734524133  0.4811018088645242  1.0000
  H   H912      1.0  0.04356063518854548  0.3194635911568694  0.5122492701959211  1.0000
  N   N57       1.0  0.9989633503071894  0.7910512910816611  0.45714644430734586  1.0000
  C   C585      1.0  0.9752926291806735  0.7897351800140125  0.474613820379916  1.0000
  C   C586      1.0  0.004911376596950193  0.8168057686653656  0.45307444569211547  1.0000
  C   C587      1.0  0.9960858918230834  0.784108366292921  0.4309332630902493  1.0000
  C   C588      1.0  0.019457092711509496  0.7735885052338686  0.46988076855570965  1.0000
  H   H913      1.0  0.9595518157548989  0.8029177913387789  0.4655741326816472  1.0000
  H   H914      1.0  0.9767204821003367  0.7947723384595247  0.4946342963145562  1.0000
  H   H915      1.0  0.9699449890260907  0.7706594471527431  0.4777472730228917  1.0000
  H   H916      1.0  0.022509357118951995  0.8186711692602556  0.43974133404633814  1.0000
  H   H917      1.0  0.989745504689388  0.8305270518325572  0.4437094436786256  1.0000
  H   H918      1.0  0.007450237800464615  0.8226112057164513  0.47240928487557443  1.0000
  H   H919      1.0  0.9922376183281132  0.764564522349537  0.4332225255091698  1.0000
  H   H920      1.0  0.013244572143879437  0.7854675807306887  0.4168671296405055  1.0000
  H   H921      1.0  0.9803546929890141  0.7964444654981092  0.42103072512601525  1.0000
  H   H922      1.0  0.03755748925504587  0.7741947478753  0.45713954536682894  1.0000
  H   H923      1.0  0.015681528439726033  0.7539301474322496  0.47321574130425914  1.0000
  H   H924      1.0  0.022238119762621536  0.778225497014271  0.48971203512008904  1.0000
  N   N58       1.0  0.9858069458217231  0.4465271890617874  0.38657013144076136  1.0000
  C   C589      1.0  0.002758527578099468  0.4636904592295733  0.39058681298060466  1.0000
  C   C590      1.0  0.0007290092606953014  0.4228583698866507  0.38032255441629764  1.0000
  C   C591      1.0  0.970811917803573  0.45807405022573683  0.3639900363383944  1.0000
  C   C592      1.0  0.9689696592938469  0.4413264423397135  0.41133335555327566  1.0000
  H   H925      1.0  0.014389377889533872  0.4554471333403718  0.4074476041083322  1.0000
  H   H926      1.0  0.992126090382997  0.4818184100673897  0.3952739340102333  1.0000
  H   H927      1.0  0.01568993181842515  0.4679240408330836  0.3721921423113915  1.0000
  H   H928      1.0  0.011934306451880428  0.41326601012298975  0.3971278634846819  1.0000
  H   H929      1.0  0.9884185308502692  0.40975504039490296  0.3766963133845475  1.0000
  H   H930      1.0  0.01387373054139518  0.4259812636855198  0.3619041832801814  1.0000
  H   H931      1.0  0.9577091462832042  0.4455999531189042  0.36053875198382906  1.0000
  H   H932      1.0  0.9829593322501936  0.461810664634242  0.3448686732984343  1.0000
  H   H933      1.0  0.9594641086284942  0.4761509361193603  0.3677719489215856  1.0000
  H   H934      1.0  0.9555913544618881  0.42885988370075157  0.40863406495956867  1.0000
  H   H935      1.0  0.9577734659933062  0.45879509535823326  0.41710462000190185  1.0000
  H   H936      1.0  0.979665970587131  0.4317753760942133  0.42858591530386003  1.0000
  N   N59       1.0  0.08857236247720778  0.3789896391103497  0.6310776602750274  1.0000
  C   C593      1.0  0.08976784473557911  0.3958364919149165  0.6505549599422894  1.0000
  C   C594      1.0  0.07172629995848935  0.39186507285246014  0.6105849352342362  1.0000
  C   C595      1.0  0.07892414995761984  0.356197946034755  0.6453559889044296  1.0000
  C   C596      1.0  0.11383746510397542  0.37199663185270093  0.61777810592188  1.0000
  H   H937      1.0  0.07104863599870553  0.40101987154755664  0.6612481617177122  1.0000
  H   H938      1.0  0.09641129530095666  0.4135303579329218  0.6404795338774254  1.0000
  H   H939      1.0  0.10254638801848512  0.3868860824139517  0.666152102681781  1.0000
  H   H940      1.0  0.07026599872798478  0.37958586759789364  0.595653091136519  1.0000
  H   H941      1.0  0.05249456574981425  0.3974918897068044  0.6198962472906075  1.0000
  H   H942      1.0  0.07848404810836455  0.4090855718727103  0.5992994302817031  1.0000
  H   H943      1.0  0.07843275553117049  0.3427628605593788  0.6314182549671923  1.0000
  H   H944      1.0  0.05955432769246247  0.3606134792803777  0.6548021971239403  1.0000
  H   H945      1.0  0.0906658469015571  0.3463823585397828  0.6615678928449733  1.0000
  H   H946      1.0  0.11342049467667441  0.3593868971655571  0.6028274322872749  1.0000
  H   H947      1.0  0.12700136760554015  0.36197565336826626  0.6325793038369844  1.0000
  H   H948      1.0  0.12176370849372523  0.3887300166939886  0.6068471164998138  1.0000
  N   N60       1.0  0.08219038637690063  0.5962931366961761  0.2609440412006864  1.0000
  C   C597      1.0  0.07086511586808149  0.5735898944158804  0.27192368821171875  1.0000
  C   C598      1.0  0.06506955666223206  0.6136231462457968  0.2433683778127381  1.0000
  C   C599      1.0  0.10615723981126599  0.5892716849282308  0.2450544933766447  1.0000
  C   C600      1.0  0.08660945242896727  0.6085713148998139  0.2833360402150302  1.0000
  H   H949      1.0  0.08327168493939764  0.5599295442385593  0.2851312924682639  1.0000
  H   H950      1.0  0.06725373969965984  0.5640586663550333  0.2554847512964779  1.0000
  H   H951      1.0  0.05266652004602457  0.57799340130313  0.2839877129572749  1.0000
  H   H952      1.0  0.0726582144175503  0.6312872875984556  0.23529392231435728  1.0000
  H   H953      1.0  0.061854409324662525  0.6051682264342039  0.22588159478722694  1.0000
  H   H954      1.0  0.046449778033004444  0.6184795812169924  0.25430270502747293  1.0000
  H   H955      1.0  0.11947880951067746  0.5759048830909062  0.2574961522763476  1.0000
  H   H956      1.0  0.11532132936651691  0.6059068816304523  0.23642680103650832  1.0000
  H   H957      1.0  0.10328159146376134  0.5800472064260123  0.22793811333755398  1.0000
  H   H958      1.0  0.09955182807093943  0.5960365428214353  0.2969048679020235  1.0000
  H   H959      1.0  0.06886292465001259  0.6138003708171129  0.29585394893894346  1.0000
  H   H960      1.0  0.094855789248588  0.6259878556130694  0.2758641826389344  1.0000
