data_image0
_chemical_formula_structural       FeS2FeS2FeSFeS3FeS2FeS2FeSFeS3FeS2FeS2FeSFeS3FeS2FeS2FeSFeS3FeS2FeS2FeSFeS3FeS2FeS2FeSFeS3FeS2FeS2FeSFeS3FeS2FeS2FeSFeS3FeS2FeS2FeSFeS3FeS2FeS2FeSFeS3FeS2FeS2FeSFeS3FeS2FeS2FeSFeS3FeS2FeS2FeSFeS3FeS2FeS2FeSFeS3FeS2FeS2FeSFeS3FeS2FeS2FeSFeS3FeS2FeS2FeSFeS3FeS2FeS2FeSFeS3FeS2FeS2FeSFeS3FeS2FeS2FeSFeS3FeS2FeS2FeSFeS3FeS2FeS2FeSFeS3FeS2FeS2FeSFeS3FeS2FeS2FeSFeS3C6H4C6H4C6H4C6H4C6H4C6H4C6H4C6H4C6H4C6H4C6H4C6H4C6H4C6H4C6H4C6H4C6H4C6H4C6H4C6H4C6H4C6H4C6H4C6H4C6H4C6H4C6H4C6H4C6H4C6H4C6H4C6H4C6H4C6H4C6H4C6H4C6H4C6H4C6H4C6H4C6H4C6H4C6H4C6H4C6H4C6H4C6H4C6H4NC4H12NC4H12NC4H12NC4H12NC4H12NC4H12NC4H12NC4H12NC4H12NC4H12NC4H12NC4H12NC4H12NC4H12NC4H12NC4H12NC4H12NC4H12NC4H12NC4H12NC4H12NC4H12NC4H12NC4H12NC4H12NC4H12NC4H12NC4H12NC4H12NC4H12NC4H12NC4H12NC4H12NC4H12NC4H12NC4H12NC4H12NC4H12NC4H12NC4H12NC4H12NC4H12NC4H12NC4H12NC4H12NC4H12NC4H12NC4H12
_chemical_formula_sum              "Fe96 S192 C480 H768 N48"
_cell_length_a       41.74240679662652
_cell_length_b       38.419905141723746
_cell_length_c       47.291523354673366
_cell_angle_alpha    84.45617954221818
_cell_angle_beta     89.95329556845077
_cell_angle_gamma    89.70677788224114

_space_group_name_H-M_alt    "P 1"
_space_group_IT_number       1

loop_
  _space_group_symop_operation_xyz
  'x, y, z'

loop_
  _atom_site_type_symbol
  _atom_site_label
  _atom_site_symmetry_multiplicity
  _atom_site_fract_x
  _atom_site_fract_y
  _atom_site_fract_z
  _atom_site_occupancy
  Fe  Fe1       1.0  0.9376624748352108  0.12816625293919034  0.032641489252124734  1.0000
  S   S1        1.0  0.93343721047688  0.06962259020171742  0.03450568141980259  1.0000
  S   S2        1.0  0.9521667161600055  0.16380732374440915  0.9944852873692398  1.0000
  Fe  Fe2       1.0  0.914023304786862  0.1317052165635499  0.09208205094568811  1.0000
  S   S3        1.0  0.9069402941146952  0.07396985166126538  0.0997403631222944  1.0000
  S   S4        1.0  0.9019585540465359  0.16518050345679974  0.12678673289370201  1.0000
  Fe  Fe3       1.0  0.9544117197610354  0.06998275785474838  0.07817644231142884  1.0000
  S   S5        1.0  0.9888290809896918  0.03130232084438678  0.10039457811650343  1.0000
  Fe  Fe4       1.0  0.8863195140364061  0.07817718290294118  0.055893298302083894  1.0000
  S   S6        1.0  0.8433255163236788  0.04588612053094021  0.04690277085672845  1.0000
  S   S7        1.0  0.9633929347984845  0.12758356684618527  0.07428881016849886  1.0000
  S   S8        1.0  0.8886710255506404  0.13668086765989992  0.050265163413183434  1.0000
  Fe  Fe5       1.0  0.02759409294526738  0.2214612463072264  0.22135035991248414  1.0000
  S   S9        1.0  0.0017628832810034911  0.17493044407793373  0.24249509981570747  1.0000
  S   S10       1.0  0.026515064027168744  0.231531553950871  0.1735410861934491  1.0000
  Fe  Fe6       1.0  0.055426881194774014  0.2411617873118951  0.2771400868591933  1.0000
  S   S11       1.0  0.03164940969134378  0.19622277479554945  0.30264453093514954  1.0000
  S   S12       1.0  0.08997525955621866  0.2735343376654372  0.29996699117712083  1.0000
  Fe  Fe7       1.0  0.04670738654112894  0.1648477157331311  0.26739333228142836  1.0000
  S   S13       1.0  0.06726165812214124  0.11061368252009454  0.27502775833599147  1.0000
  Fe  Fe8       1.0  0.9889254526619854  0.2109977977594948  0.2753267209186565  1.0000
  S   S14       1.0  0.9389762832336971  0.21031076983283464  0.29308447973117585  1.0000
  S   S15       1.0  0.07405711858066244  0.20855722283329844  0.24386096192122467  1.0000
  S   S16       1.0  0.011385662271626629  0.2587574218003646  0.25236230587447817  1.0000
  Fe  Fe9       1.0  0.126344777171793  0.9365644609346064  0.039482938749523244  1.0000
  S   S17       1.0  0.10188986593204914  0.8984361298696054  0.07105887011709688  1.0000
  S   S18       1.0  0.11238906271242134  0.9934592743008368  0.032474410491408534  1.0000
  Fe  Fe10      1.0  0.17324952128310134  0.8812166698781605  0.022242275360760067  1.0000
  S   S19       1.0  0.1525039634046897  0.8387182016139725  0.052493101244942775  1.0000
  S   S20       1.0  0.21605189834647903  0.8710454594225727  0.9956601689694419  1.0000
  Fe  Fe11      1.0  0.10529688980232225  0.8615955212660765  0.03728429430265434  1.0000
  S   S21       1.0  0.06268812268570063  0.8301776733606209  0.026102245003602143  1.0000
  Fe  Fe12      1.0  0.15153249391837645  0.8799821357989571  0.08283612118851891  1.0000
  S   S22       1.0  0.16549466142465652  0.8709550517135171  0.12877116545255918  1.0000
  S   S23       1.0  0.12614260165384442  0.9011687035902217  0.004446668988378422  1.0000
  S   S24       1.0  0.17582706934155762  0.9210965693267792  0.05358813091368875  1.0000
  Fe  Fe13      1.0  0.20705300677902969  0.059282269139130817  0.19559772967086955  1.0000
  S   S25       1.0  0.20726086682789743  0.0011044974777305594  0.1981021376665768  1.0000
  S   S26       1.0  0.16407446615422783  0.08790389656841335  0.1764942763779722  1.0000
  Fe  Fe14      1.0  0.27374954556258146  0.062327641202211126  0.21962194211404537  1.0000
  S   S27       1.0  0.2801262681368085  0.004167992876547677  0.22435283819346968  1.0000
  S   S28       1.0  0.31318353231388835  0.09615439134074788  0.23322358978779462  1.0000
  Fe  Fe15      1.0  0.2574669978658229  0.006792439638960257  0.18148429056044596  1.0000
  S   S29       1.0  0.2760433586993036  0.9759864461179092  0.14696065130652425  1.0000
  Fe  Fe16      1.0  0.22970654125420692  0.0033179774224105785  0.24077803140303747  1.0000
  S   S30       1.0  0.21700285408549294  0.9654600097757271  0.278261015455217  1.0000
  S   S31       1.0  0.2553158581895673  0.06522386591829066  0.17498032993057086  1.0000
  S   S32       1.0  0.2251191032238447  0.06166277252590047  0.24006810673334067  1.0000
  Fe  Fe17      1.0  0.5346559770467229  0.13685644878798037  0.2122983294947505  1.0000
  S   S33       1.0  0.5528185500394395  0.10678086803484987  0.25193287683040405  1.0000
  S   S34       1.0  0.5593278809968508  0.18662985164808574  0.19741448463602748  1.0000
  Fe  Fe18      1.0  0.4848761134421339  0.08252457652997114  0.20165067432374847  1.0000
  S   S35       1.0  0.4998717546469329  0.04684503473119128  0.23976464489363208  1.0000
  S   S36       1.0  0.4450016217622426  0.06862343371145774  0.17284494294532796  1.0000
  Fe  Fe19      1.0  0.5011812595298337  0.0963230430109734  0.26144337673729817  1.0000
  S   S37       1.0  0.47856145388556076  0.09689645617336223  0.3043165352136575  1.0000
  Fe  Fe20      1.0  0.5499719294032083  0.061040157498694514  0.22612527523996825  1.0000
  S   S38       1.0  0.5945126483826989  0.028622078781026294  0.22493952404467382  1.0000
  S   S39       1.0  0.482968584668953  0.13132843894654808  0.2242086668613507  1.0000
  S   S40       1.0  0.5349889966614413  0.0918721650331884  0.1857116164498382  1.0000
  Fe  Fe21      1.0  0.706231873198335  0.012707313732161385  0.3660475194534545  1.0000
  S   S41       1.0  0.6964889840123407  0.028189835678269493  0.40992058830518996  1.0000
  S   S42       1.0  0.7466524506898317  0.0308006212240981  0.3371010894733704  1.0000
  Fe  Fe22      1.0  0.6471746816899048  0.9679310780307803  0.3649174638637008  1.0000
  S   S43       1.0  0.632206759456017  0.9791452140179552  0.40834364441613363  1.0000
  S   S44       1.0  0.6143657868834408  0.9356834663643151  0.34080439350537495  1.0000
  Fe  Fe23      1.0  0.645698251613871  0.03433767038395463  0.39450723959082135  1.0000
  S   S45       1.0  0.6092093528332801  0.07600803675297652  0.40011447403719025  1.0000
  Fe  Fe24      1.0  0.6839434933411912  0.9712931387333483  0.41974400531961487  1.0000
  S   S46       1.0  0.6919875715689539  0.9387053839141516  0.4612890998221048  1.0000
  S   S47       1.0  0.6564653876890005  0.023895875831465352  0.3498955415093101  1.0000
  S   S48       1.0  0.6979081600297778  0.9551816751425688  0.3770552769525456  1.0000
  Fe  Fe25      1.0  0.5418835264314419  0.2622097013131886  0.3604821843387961  1.0000
  S   S49       1.0  0.5826028251516633  0.266649090052862  0.39063505339052546  1.0000
  S   S50       1.0  0.499461000385762  0.22855771966925265  0.37259798660958354  1.0000
  Fe  Fe26      1.0  0.5713077133710877  0.31194101607553676  0.31484895327632034  1.0000
  S   S51       1.0  0.6151850204272685  0.3203987596764405  0.3403433809999442  1.0000
  S   S52       1.0  0.5665023436944019  0.3366227253158888  0.2704105379042203  1.0000
  Fe  Fe27      1.0  0.6133991987838482  0.26270739126754267  0.3523890472083732  1.0000
  S   S53       1.0  0.6555645683945723  0.22651089710049813  0.3530578300661769  1.0000
  Fe  Fe28      1.0  0.5805448648506262  0.3239349556659334  0.37619461549606337  1.0000
  S   S54       1.0  0.5911149559039223  0.36167570743268107  0.40823926116586845  1.0000
  S   S55       1.0  0.572944027154649  0.25389509098532403  0.32328067618804723  1.0000
  S   S56       1.0  0.5364294744161313  0.320129813880926  0.34960781816046027  1.0000
  Fe  Fe29      1.0  0.7923927586672055  0.23808168210514846  0.2114670131817689  1.0000
  S   S57       1.0  0.7753326556666147  0.26580634056876434  0.24825979084006963  1.0000
  S   S58       1.0  0.8413060112911742  0.2458608141995787  0.19255697330674126  1.0000
  Fe  Fe30      1.0  0.7320599721485925  0.19599866129203433  0.20927663427614612  1.0000
  S   S59       1.0  0.7092244410657171  0.220022623031509  0.24551151417531136  1.0000
  S   S60       1.0  0.7069629902401441  0.15220747488273403  0.19102621982627707  1.0000
  Fe  Fe31      1.0  0.7288110450980273  0.2703385222305898  0.22464615742843055  1.0000
  S   S61       1.0  0.7046754431862051  0.322735427703128  0.21897365382280595  1.0000
  Fe  Fe32      1.0  0.7575098736462901  0.21312041315918923  0.2657720387642381  1.0000
  S   S62       1.0  0.7603176757515304  0.19444789056259926  0.31219649585527304  1.0000
  S   S63       1.0  0.7472595262565311  0.24688615128514804  0.1861730413157319  1.0000
  S   S64       1.0  0.7789368530709514  0.1848690893894985  0.23105672103047412  1.0000
  Fe  Fe33      1.0  0.9490051453995422  0.5712844244396406  0.753710186307229  1.0000
  S   S65       1.0  0.9379627537354606  0.5334012699874205  0.7913783292697341  1.0000
  S   S66       1.0  0.9981113376600532  0.5935090250789649  0.7504868155976593  1.0000
  Fe  Fe34      1.0  0.8824036813976434  0.5696054363577564  0.7290288015729007  1.0000
  S   S67       1.0  0.8650537847714335  0.5313706763845767  0.7646651859175128  1.0000
  S   S68       1.0  0.8515692532138313  0.5944054209183453  0.6932882299173971  1.0000
  Fe  Fe35      1.0  0.8924342491580818  0.564003174416734  0.7929754817791529  1.0000
  S   S69       1.0  0.8713180982162824  0.5800794598101539  0.8333170585737757  1.0000
  Fe  Fe36      1.0  0.9121982086684394  0.5042744646974586  0.7596777626437935  1.0000
  S   S70       1.0  0.9160253854470881  0.44617668987022785  0.7592093648195853  1.0000
  S   S71       1.0  0.9057169405455036  0.6048310122821272  0.7580675056722652  1.0000
  S   S72       1.0  0.927287970270593  0.5395874404926388  0.7214753117551308  1.0000
  Fe  Fe37      1.0  0.18478216514079737  0.4156895549395283  0.7683015894521003  1.0000
  S   S73       1.0  0.17280370198166728  0.4043401930234314  0.8145060067048674  1.0000
  S   S74       1.0  0.23212471013747157  0.4038282340909908  0.7489359837273479  1.0000
  Fe  Fe38      1.0  0.1219094037431521  0.4526452165507603  0.7541798872321969  1.0000
  S   S75       1.0  0.10480758740271069  0.44624075622277104  0.7992332264815754  1.0000
  S   S76       1.0  0.08950242241212808  0.4725318928896149  0.7185258727917619  1.0000
  Fe  Fe39      1.0  0.15501380510336896  0.4596550546516831  0.8103816169968118  1.0000
  S   S77       1.0  0.1661161233078322  0.49289740293185025  0.8454580893813709  1.0000
  Fe  Fe40      1.0  0.12380214274260312  0.39173928273425607  0.7990335852663397  1.0000
  S   S78       1.0  0.08939749406272439  0.35066790780560797  0.8164021916333263  1.0000
  S   S79       1.0  0.17040356555090594  0.47218757346649787  0.7651331510550055  1.0000
  S   S80       1.0  0.13761659370771565  0.39709257895368166  0.7531426536732494  1.0000
  Fe  Fe41      1.0  0.0015074816547737686  0.3883229800825162  0.9449917538406817  1.0000
  S   S81       1.0  0.9792412543221866  0.4036542759020457  0.9849875731145092  1.0000
  S   S82       1.0  0.05469137460619625  0.388711641903226  0.939337083309947  1.0000
  Fe  Fe42      1.0  0.9377566073757171  0.37678554122685404  0.9171423452486651  1.0000
  S   S83       1.0  0.9096011897816239  0.3909301170369623  0.9548728366610209  1.0000
  S   S84       1.0  0.9130020464036767  0.35843052982383683  0.8792508263748322  1.0000
  Fe  Fe43      1.0  0.9452228380704911  0.4345093193472727  0.9555723380046496  1.0000
  S   S85       1.0  0.9316357284301633  0.49102048447041446  0.9562395156626127  1.0000
  Fe  Fe44      1.0  0.9460989869966653  0.35862482097003423  0.980640662512283  1.0000
  S   S86       1.0  0.9351691304117624  0.3213914936734102  0.019266024027212447  1.0000
  S   S87       1.0  0.9703286694517107  0.42279317808054034  0.9157768518172947  1.0000
  S   S88       1.0  0.9713902062108024  0.3407647987948994  0.9427565504892248  1.0000
  Fe  Fe45      1.0  0.07266636248863523  0.7037496741217313  0.9114407656010528  1.0000
  S   S89       1.0  0.05025399652212099  0.7055978860143374  0.8684201761032081  1.0000
  S   S90       1.0  0.10426300097581853  0.7469087814655039  0.9233291711034533  1.0000
  Fe  Fe46      1.0  0.05248316982572035  0.6291000892317109  0.9276711354112976  1.0000
  S   S91       1.0  0.02851442508391422  0.6239126922087364  0.8859975935928168  1.0000
  S   S92       1.0  0.055771345284580796  0.5837856740672391  0.9610156578218215  1.0000
  Fe  Fe47      1.0  0.07141767148741669  0.6521269008282522  0.8670254822141218  1.0000
  S   S93       1.0  0.09277756088736033  0.6368083045453923  0.8264464075104853  1.0000
  Fe  Fe48      1.0  0.009411818540546513  0.6775647842568968  0.8911318083998301  1.0000
  S   S94       1.0  0.9586672820538816  0.694074675454869  0.8814526835202016  1.0000
  S   S95       1.0  0.09735265991987255  0.6523652128676938  0.9082998908395647  1.0000
  S   S96       1.0  0.029861320626088705  0.6805090108307558  0.9347868524907894  1.0000
  Fe  Fe49      1.0  0.4454892542956839  0.1439789054224983  0.854998411615653  1.0000
  S   S97       1.0  0.47159974375065944  0.1330410826671436  0.8961908104418606  1.0000
  S   S98       1.0  0.4436050828974177  0.10115168068119756  0.8261182963489718  1.0000
  Fe  Fe50      1.0  0.42506544142716457  0.21616234723653474  0.8670521720311873  1.0000
  S   S99       1.0  0.4494266181578851  0.21220297536687757  0.9094441017933063  1.0000
  S   S100      1.0  0.3973993527829954  0.26577296017175345  0.8548848787910537  1.0000
  Fe  Fe51      1.0  0.48975403653005184  0.18758078889457053  0.8873920605726119  1.0000
  S   S101      1.0  0.540935208844704  0.19757709142719446  0.8982553843698265  1.0000
  Fe  Fe52      1.0  0.4293916433695466  0.1581393118757752  0.9152757417976283  1.0000
  S   S102      1.0  0.4143687943046365  0.136701841194387  0.9589589941445629  1.0000
  S   S103      1.0  0.46771919855926414  0.19665289172807815  0.8440274275036069  1.0000
  S   S104      1.0  0.4009879796280409  0.16395477006062992  0.8748797117576641  1.0000
  Fe  Fe53      1.0  0.5921802241087598  0.9014884071089211  0.8138965558507132  1.0000
  S   S105      1.0  0.5719277653088998  0.8753000579769755  0.8543762397666623  1.0000
  S   S106      1.0  0.6178746475011092  0.8720642399242355  0.7814282132937616  1.0000
  Fe  Fe54      1.0  0.5770370642931181  0.974167349667123  0.8303750231828196  1.0000
  S   S107      1.0  0.555573606498526  0.954214017875918  0.8720932287823574  1.0000
  S   S108      1.0  0.5807439003848083  0.03235957714716631  0.8218434031505213  1.0000
  Fe  Fe55      1.0  0.5969689416248382  0.9171206442908896  0.8755095678689102  1.0000
  S   S109      1.0  0.6213153541825329  0.9057710911053698  0.9177340613302811  1.0000
  Fe  Fe56      1.0  0.5322361273997521  0.9146027702597982  0.8473484515714511  1.0000
  S   S110      1.0  0.4809754420775275  0.9027118131332463  0.8581367881124354  1.0000
  S   S111      1.0  0.6208786782529268  0.9403013431058107  0.8357272042566373  1.0000
  S   S112      1.0  0.5500873612430612  0.9376674119549842  0.8048135901464868  1.0000
  Fe  Fe57      1.0  0.42657136298440657  0.9542296621620141  0.04762253099177993  1.0000
  S   S113      1.0  0.43932324219355773  0.955096774920945  0.0015539880399018102  1.0000
  S   S114      1.0  0.44887729627155926  0.9918310863517064  0.07510131984454871  1.0000
  Fe  Fe58      1.0  0.3770241943192875  0.8973439091869357  0.04483922415689401  1.0000
  S   S115      1.0  0.3853224336589381  0.8932019303900005  0.9983934824415457  1.0000
  S   S116      1.0  0.3389143446036648  0.8690386827726369  0.07148615012963977  1.0000
  Fe  Fe59      1.0  0.43722476497112284  0.8966918340620916  0.009382694878609099  1.0000
  S   S117      1.0  0.4756234790043399  0.8649107569981224  0.9906673813908846  1.0000
  Fe  Fe60      1.0  0.3863735320329588  0.9515697193252534  0.9949227777805411  1.0000
  S   S118      1.0  0.3613798106323765  0.9836988524601878  0.9595239019580072  1.0000
  S   S119      1.0  0.4292376796700893  0.8959782966570882  0.05644444289956452  1.0000
  S   S120      1.0  0.3736069540212397  0.9557967492840913  0.04037148540770841  1.0000
  Fe  Fe61      1.0  0.6219607041922767  0.022447372233402197  0.04978432702287572  1.0000
  S   S121      1.0  0.604732237991195  0.04586569815657392  0.007325786097254872  1.0000
  S   S122      1.0  0.5993788971859375  0.9754662364488822  0.07324860060117322  1.0000
  Fe  Fe62      1.0  0.6704641091306867  0.07948314264043792  0.055350339097787415  1.0000
  S   S123      1.0  0.6569758657837146  0.10880053053114812  0.01364094277728567  1.0000
  S   S124      1.0  0.7081397732988947  0.10011317015323218  0.08316665557756164  1.0000
  Fe  Fe63      1.0  0.60636559240838  0.0964976341490572  0.02694006425634865  1.0000
  S   S125      1.0  0.5623251297589121  0.1299490389784452  0.02383523842632096  1.0000
  Fe  Fe64      1.0  0.6565964887309553  0.05553880314332172  0.9980171103505168  1.0000
  S   S126      1.0  0.6754676716765019  0.047581856999879824  0.9548031281305777  1.0000
  S   S127      1.0  0.6197443438084096  0.07236125232700731  0.0701301495459814  1.0000
  S   S128      1.0  0.6741477249136725  0.026938129172890284  0.0386640150485289  1.0000
  Fe  Fe65      1.0  0.06334549005955115  0.4400432522445237  0.3724296399568303  1.0000
  S   S129      1.0  0.08987132933798386  0.4084538796785232  0.4072972284630303  1.0000
  S   S130      1.0  0.038119967589955506  0.41763944761955735  0.3361930667034223  1.0000
  Fe  Fe66      1.0  0.08101869490918272  0.5092474870526523  0.39488393538275446  1.0000
  S   S131      1.0  0.10950751329797093  0.4832151976508801  0.4309636712654767  1.0000
  S   S132      1.0  0.07676984018551282  0.5672848391841625  0.39568926165435225  1.0000
  Fe  Fe67      1.0  0.12812225986666043  0.4488926062577162  0.39893294885937625  1.0000
  S   S133      1.0  0.17904856403846123  0.43410186053987604  0.39043861885942127  1.0000
  Fe  Fe68      1.0  0.06838456316500219  0.44606814994483357  0.43561335533959666  1.0000
  S   S134      1.0  0.04668170247849668  0.4308846174108383  0.4783244755444749  1.0000
  S   S135      1.0  0.10311455169369359  0.478274955742506  0.362137685363432  1.0000
  S   S136      1.0  0.038361262467905055  0.47431731791719245  0.40156376849434533  1.0000
  Fe  Fe69      1.0  0.12842195129420542  0.7089716579395867  0.29888434824891696  1.0000
  S   S137      1.0  0.14757799249964074  0.7063784849238262  0.3432899171813228  1.0000
  S   S138      1.0  0.10870628656359646  0.6601762436121743  0.2831726705424095  1.0000
  Fe  Fe70      1.0  0.14790280724892024  0.7844765361960762  0.2855160460560161  1.0000
  S   S139      1.0  0.1691373122420515  0.788229363572875  0.32867969315122164  1.0000
  S   S140      1.0  0.14423122836709115  0.8293253111229442  0.2514233339610901  1.0000
  Fe  Fe71      1.0  0.18939161358021236  0.7351625032895455  0.32334904714038565  1.0000
  S   S141      1.0  0.23745548684264142  0.7143843513519318  0.3373841742455644  1.0000
  Fe  Fe72      1.0  0.1251875554460444  0.759190374044669  0.34438017075193705  1.0000
  S   S142      1.0  0.10019059368740879  0.7752789341334831  0.383066000469967  1.0000
  S   S143      1.0  0.17224294547234778  0.7337876091191623  0.2786168820688194  1.0000
  S   S144      1.0  0.10206269418103593  0.7595367088368359  0.30165450959985624  1.0000
  Fe  Fe73      1.0  0.2635159442691324  0.5699305721957079  0.4615584392051173  1.0000
  S   S145      1.0  0.2563751517930788  0.5380411766014334  0.5031712219380527  1.0000
  S   S146      1.0  0.2788042505969176  0.5466026300329582  0.422103121336704  1.0000
  Fe  Fe74      1.0  0.24799940662796038  0.6378642394079267  0.4854678598512195  1.0000
  S   S147      1.0  0.24011365575935792  0.6126352519434041  0.5297145993453979  1.0000
  S   S148      1.0  0.23603058146337086  0.6936029270781636  0.4714018292493902  1.0000
  Fe  Fe75      1.0  0.28368388283199647  0.5809788787643053  0.5210702139880611  1.0000
  S   S149      1.0  0.32006659399482207  0.5639549973066226  0.5544703507594065  1.0000
  Fe  Fe76      1.0  0.2134420201500799  0.5722351889467745  0.5080997069582388  1.0000
  S   S150      1.0  0.165184054337005  0.5508396972457568  0.5214254631170027  1.0000
  S   S151      1.0  0.2944776345746995  0.6102146647119804  0.478797876050909  1.0000
  S   S152      1.0  0.21788642428156096  0.59993026352556  0.4645711220116739  1.0000
  Fe  Fe77      1.0  0.9717551672394636  0.6041220252512799  0.5119849829994381  1.0000
  S   S153      1.0  0.9786462256331159  0.63700188564332  0.5481396543717696  1.0000
  S   S154      1.0  0.9586951072346338  0.5480498924183381  0.5237516018560077  1.0000
  Fe  Fe78      1.0  0.9811720776829452  0.6650958113817103  0.4672603331894021  1.0000
  S   S155      1.0  0.9886987091797469  0.703272764605525  0.4995320076028867  1.0000
  S   S156      1.0  0.9830646833341131  0.6775330279504682  0.41985835222384355  1.0000
  Fe  Fe79      1.0  0.01895482543193272  0.660808586219476  0.5219095040110062  1.0000
  S   S157      1.0  0.06698103778329267  0.6723019239815067  0.5397276691502513  1.0000
  Fe  Fe80      1.0  0.9476634351610411  0.6759364834456483  0.5225780758637926  1.0000
  S   S158      1.0  0.9098501315035508  0.7073456433075598  0.5426554019508935  1.0000
  S   S159      1.0  0.014886738798816967  0.6246875971486245  0.48773477125160364  1.0000
  S   S160      1.0  0.9372607256522616  0.6411886733406973  0.48830689067604577  1.0000
  Fe  Fe81      1.0  0.440408048026467  0.42438607034694087  0.7592333100173014  1.0000
  S   S161      1.0  0.3913892296868913  0.44107699444424947  0.7442191295311833  1.0000
  S   S162      1.0  0.45711742039043207  0.36897388183059504  0.7574553328602268  1.0000
  Fe  Fe82      1.0  0.4587868454909134  0.49674060981613444  0.7731053024023906  1.0000
  S   S163      1.0  0.41133110573357035  0.5205588002655483  0.760053312409897  1.0000
  S   S164      1.0  0.5006698653905601  0.5255000036485449  0.7888602935565333  1.0000
  Fe  Fe83      1.0  0.39047334137538503  0.471704670919031  0.7822890139546012  1.0000
  S   S165      1.0  0.3462903626989414  0.4730080414468818  0.8094796878963193  1.0000
  Fe  Fe84      1.0  0.4158055811008549  0.4884374007172224  0.7231910108609497  1.0000
  S   S166      1.0  0.40280099861962715  0.5132830705228895  0.6800008378011853  1.0000
  S   S167      1.0  0.43771575623550885  0.45083564035925977  0.7993995041526468  1.0000
  S   S168      1.0  0.46530106606784805  0.4688083053045203  0.7341314096560151  1.0000
  Fe  Fe85      1.0  0.49829843941223545  0.48159825598434514  0.48982987684283524  1.0000
  S   S169      1.0  0.4623062778966929  0.4953011825193685  0.5221477827351907  1.0000
  S   S170      1.0  0.48061870095454134  0.45487731391536984  0.4525461163047007  1.0000
  Fe  Fe86      1.0  0.5532619780460051  0.5147082895885693  0.519318864910769  1.0000
  S   S171      1.0  0.5220261994303587  0.5315806338451807  0.5541470207953663  1.0000
  S   S172      1.0  0.6059568902368077  0.5250293921683288  0.523181964994651  1.0000
  Fe  Fe87      1.0  0.5003044153777597  0.47835153920482304  0.5540928658890282  1.0000
  S   S173      1.0  0.49180806522409853  0.44340082729353014  0.5941798348943722  1.0000
  Fe  Fe88      1.0  0.4872005474491707  0.5472081261769931  0.519175151756811  1.0000
  S   S174      1.0  0.4612717103892726  0.5988305590844948  0.5146301364690956  1.0000
  S   S175      1.0  0.5343749482405895  0.45994137845199357  0.5221630782997383  1.0000
  S   S176      1.0  0.5200795052075405  0.5349898853011757  0.4841037969596112  1.0000
  Fe  Fe89      1.0  0.6828590870932346  0.6318537880478796  0.741068511229054  1.0000
  S   S177      1.0  0.6892511810211446  0.6874611527879703  0.7504839800859467  1.0000
  S   S178      1.0  0.7176266285419077  0.5883162509534228  0.7523420779653537  1.0000
  Fe  Fe90      1.0  0.617280184817471  0.6441633629780774  0.7150633740177886  1.0000
  S   S179      1.0  0.6174639444490879  0.7013578655944345  0.7212256388208074  1.0000
  S   S180      1.0  0.5748915060747901  0.6202136007209959  0.6948721601831817  1.0000
  Fe  Fe91      1.0  0.6685355051951543  0.6998342528737466  0.7069279573468156  1.0000
  S   S181      1.0  0.6911226539384737  0.7417441396682658  0.6775392779019779  1.0000
  Fe  Fe92      1.0  0.6377938176281562  0.6845040372211589  0.7641760772564465  1.0000
  S   S182      1.0  0.6162913337801952  0.7072194896801773  0.8018604613735956  1.0000
  S   S183      1.0  0.6665514747877944  0.6443455996522742  0.6961769964402338  1.0000
  S   S184      1.0  0.6334734357736651  0.6274448480260145  0.7594570655593774  1.0000
  Fe  Fe93      1.0  0.7255333578541767  0.7471051001225234  0.479218789295696  1.0000
  S   S185      1.0  0.7290331108523898  0.7372195363874423  0.5267743401633541  1.0000
  S   S186      1.0  0.752427200809471  0.7890771880185087  0.45278188233796696  1.0000
  Fe  Fe94      1.0  0.6835297352234633  0.6843693288626871  0.47350304135882987  1.0000
  S   S187      1.0  0.6837501229060174  0.6687582774964663  0.5202630292756317  1.0000
  S   S188      1.0  0.6540487332155929  0.6547553487125872  0.4445255816995909  1.0000
  Fe  Fe95      1.0  0.6763142646991512  0.7255339230711028  0.524397093459561  1.0000
  S   S189      1.0  0.6360790433567717  0.7340063126851895  0.5544952423041286  1.0000
  Fe  Fe96      1.0  0.7359226716207794  0.6813387731695633  0.5181064682373061  1.0000
  S   S190      1.0  0.7711698716243701  0.6436248857994223  0.5400554086335808  1.0000
  S   S191      1.0  0.6721488471912334  0.7406593672112254  0.4775659535952845  1.0000
  S   S192      1.0  0.73650932482315  0.6918573563871291  0.47074311325992296  1.0000
  C   C1        1.0  0.6750122150381969  0.741312042909082  0.643509002033892  1.0000
  C   C2        1.0  0.6928125447642487  0.754654441626715  0.6198967416703399  1.0000
  C   C3        1.0  0.6808042204936572  0.7526455167210785  0.5924504664541399  1.0000
  C   C4        1.0  0.6506229875299006  0.7381936295336101  0.5886595591026308  1.0000
  C   C5        1.0  0.6323110986427917  0.7260126501988047  0.6123446396975334  1.0000
  C   C6        1.0  0.6446577912628798  0.7271924755378052  0.6397879361838951  1.0000
  H   H1        1.0  0.7161807484201214  0.76589009286338  0.6227625759728342  1.0000
  H   H2        1.0  0.6946859031623576  0.7628144494961467  0.5742335308951302  1.0000
  H   H3        1.0  0.608939510944202  0.7148155628423277  0.609446151022671  1.0000
  H   H4        1.0  0.6307830936201464  0.7168427425530766  0.6579730106896455  1.0000
  C   C7        1.0  0.6218137559410826  0.5563821638088642  0.49762858009395416  1.0000
  C   C8        1.0  0.6036489471348966  0.5698078870157863  0.4742012629677305  1.0000
  C   C9        1.0  0.6146159979690142  0.5987697884031357  0.456583320392034  1.0000
  C   C10       1.0  0.6438242763253895  0.6142515212103221  0.46239725015369765  1.0000
  C   C11       1.0  0.6631182195553113  0.5991654730833905  0.48448596619844875  1.0000
  C   C12       1.0  0.6521086411694909  0.5702756472845929  0.5021282446999162  1.0000
  H   H5        1.0  0.5809234584722109  0.5583501225537874  0.4698974197233465  1.0000
  H   H6        1.0  0.5999247273089735  0.6099329375275547  0.43913224012405344  1.0000
  H   H7        1.0  0.6863973736111425  0.610009020704849  0.4881925120508797  1.0000
  H   H8        1.0  0.6665962422900178  0.5594594517712033  0.5198334799498788  1.0000
  C   C13       1.0  0.5214759018373039  0.5479531300990187  0.7606466993615728  1.0000
  C   C14       1.0  0.5546750649927574  0.5515938323352256  0.7625707098839494  1.0000
  C   C15       1.0  0.5713538759996202  0.5721385026313444  0.7414266989745084  1.0000
  C   C16       1.0  0.5547636695872649  0.5903533306316167  0.7189620349921013  1.0000
  C   C17       1.0  0.5216595890603457  0.5857463667754975  0.7164455442488259  1.0000
  C   C18       1.0  0.5050210327736806  0.5642665030024514  0.7371782894089087  1.0000
  H   H9        1.0  0.5675240752150883  0.5384818475079077  0.780451185277908  1.0000
  H   H10       1.0  0.5970797594600101  0.5738186256205885  0.7425754944177299  1.0000
  H   H11       1.0  0.5087243483572725  0.5995992124565179  0.6989561806867786  1.0000
  H   H12       1.0  0.4793049259742419  0.5614546435474301  0.7356133613489454  1.0000
  C   C19       1.0  0.42461687819266636  0.4924939720261058  0.6548619706364478  1.0000
  C   C20       1.0  0.43665086506109374  0.45873128889704085  0.6618264680854539  1.0000
  C   C21       1.0  0.4562323091413113  0.44308064339654696  0.642543898617959  1.0000
  C   C22       1.0  0.4642266979940733  0.4614139017120489  0.6165245072071204  1.0000
  C   C23       1.0  0.45181490507471533  0.4949377521853351  0.6093741516209054  1.0000
  C   C24       1.0  0.4317026102936519  0.5104069140629055  0.6284078250970385  1.0000
  H   H13       1.0  0.4310173547993172  0.4446641628431794  0.6821332907944371  1.0000
  H   H14       1.0  0.46577177202005904  0.41705323432724556  0.6480580799097991  1.0000
  H   H15       1.0  0.4584651474357327  0.5091844797607673  0.5894883143777434  1.0000
  H   H16       1.0  0.42276665050861656  0.5367128290119476  0.6230639148246235  1.0000
  C   C25       1.0  0.8715352763104081  0.6889930431922087  0.5427929960237323  1.0000
  C   C26       1.0  0.844862149124065  0.7096921050935191  0.5479572046826702  1.0000
  C   C27       1.0  0.8138955311666521  0.6959388772597719  0.5468571467465387  1.0000
  C   C28       1.0  0.8096570044365811  0.6612001162980196  0.5412684664579372  1.0000
  C   C29       1.0  0.836362592808824  0.6402289360280855  0.5368026636898726  1.0000
  C   C30       1.0  0.8672898582129044  0.6542640840726772  0.5371623143853502  1.0000
  H   H17       1.0  0.8481346950848421  0.7365505610577567  0.552427764966401  1.0000
  H   H18       1.0  0.7933672680678217  0.7121159523713949  0.5506448372809233  1.0000
  H   H19       1.0  0.8330742559431095  0.6133200844814423  0.5324588428785176  1.0000
  H   H20       1.0  0.8877909223109399  0.638137926181721  0.5332379725365368  1.0000
  C   C31       1.0  0.3593174770208735  0.5761389325142108  0.5449425861408611  1.0000
  C   C32       1.0  0.3847887618413001  0.5550328607711765  0.5556122323115258  1.0000
  C   C33       1.0  0.4161492247523278  0.562994581697435  0.5469910244762105  1.0000
  C   C34       1.0  0.42233329096504235  0.5920328442295989  0.5277768611430657  1.0000
  C   C35       1.0  0.3970644851453329  0.6139359874164332  0.5177540358799665  1.0000
  C   C36       1.0  0.36547282038046064  0.6058595669326396  0.5262277512005966  1.0000
  H   H21       1.0  0.3803753181103732  0.5318248854715422  0.5698369576212885  1.0000
  H   H22       1.0  0.4356532353498553  0.5465643287312352  0.5551414545613791  1.0000
  H   H23       1.0  0.401788922424448  0.6366048811122093  0.5029550391835046  1.0000
  H   H24       1.0  0.3459741078102233  0.6227163754394001  0.5183974546820984  1.0000
  C   C37       1.0  0.13791902362824365  0.5842637987311813  0.5276742213976383  1.0000
  C   C38       1.0  0.14883247261198113  0.6174634147147787  0.5326607018587876  1.0000
  C   C39       1.0  0.12694199693748426  0.6440870013073123  0.5373836043499903  1.0000
  C   C40       1.0  0.09400387628048412  0.6377721205751286  0.5366833817243407  1.0000
  C   C41       1.0  0.08301300945985295  0.6045062011016248  0.5319507113723365  1.0000
  C   C42       1.0  0.10491862094901322  0.5778340503043752  0.5273701337542968  1.0000
  H   H25       1.0  0.17411972520007493  0.6227624744251957  0.533017832835967  1.0000
  H   H26       1.0  0.13554929749124023  0.6697864338325215  0.5410926494090125  1.0000
  H   H27       1.0  0.05762944057772646  0.5992099587383499  0.5320388338692333  1.0000
  H   H28       1.0  0.09610115908541968  0.5525420058806902  0.5230735943374606  1.0000
  C   C43       1.0  0.06650957722613948  0.7495617498051454  0.3923826055899406  1.0000
  C   C44       1.0  0.05310556829292001  0.750232808717095  0.4194204819800715  1.0000
  C   C45       1.0  0.027420967173977795  0.7282502849503905  0.4278459119525251  1.0000
  C   C46       1.0  0.014747362735592517  0.7058125348542383  0.4091727983969666  1.0000
  C   C47       1.0  0.0276570990709053  0.7057842968433031  0.381823370399741  1.0000
  C   C48       1.0  0.05360855873082904  0.7275577668399436  0.3734882798672255  1.0000
  H   H29       1.0  0.06283742636901679  0.7674383356104627  0.43403756715211655  1.0000
  H   H30       1.0  0.017323112974428678  0.7290122020192084  0.44872747459379797  1.0000
  H   H31       1.0  0.017872008036954545  0.6886718789971766  0.3671630734255126  1.0000
  H   H32       1.0  0.06346193897886732  0.7275386478620413  0.35238420421155975  1.0000
  C   C49       1.0  0.23773231668153127  0.709192714083943  0.37461170423289797  1.0000
  C   C50       1.0  0.21790680314452768  0.7300304753970455  0.3899649284098829  1.0000
  C   C51       1.0  0.21811797354129983  0.7258379121874848  0.4197412869516556  1.0000
  C   C52       1.0  0.23716690638815885  0.6998470966488766  0.4342003806342573  1.0000
  C   C53       1.0  0.2562182650468497  0.6782468543933017  0.4188166775894897  1.0000
  C   C54       1.0  0.256976020391578  0.6833673207793234  0.389048960577604  1.0000
  H   H33       1.0  0.2030018160072366  0.7500220385982074  0.37893618861491923  1.0000
  H   H34       1.0  0.20342855474549637  0.7426560575180218  0.43154731450223416  1.0000
  H   H35       1.0  0.2710050447997578  0.6581676653451545  0.42986600517919055  1.0000
  H   H36       1.0  0.2723310384325599  0.6672037613607646  0.3772490467633749  1.0000
  C   C55       1.0  0.20675527736886576  0.46496810599253474  0.39998689990325104  1.0000
  C   C56       1.0  0.1997744191226913  0.48646433450856635  0.4214484238559345  1.0000
  C   C57       1.0  0.22218558872190097  0.5111450073626393  0.4287221356444464  1.0000
  C   C58       1.0  0.25134455182877435  0.5147535836768756  0.41415685588461415  1.0000
  C   C59       1.0  0.25829184477126543  0.4933704208168449  0.39262060654672176  1.0000
  C   C60       1.0  0.23613814584451842  0.468240796112572  0.3857385848855346  1.0000
  H   H37       1.0  0.1775090630408177  0.4834882157557813  0.4329863462832765  1.0000
  H   H38       1.0  0.21683964613729176  0.5272938892743416  0.44562497958724295  1.0000
  H   H39       1.0  0.2808879477893507  0.4960567476555437  0.38141200993640056  1.0000
  H   H40       1.0  0.24170186595281115  0.45149514501113985  0.3692628648904488  1.0000
  C   C61       1.0  0.021764514677121483  0.463875105667465  0.4896463413992442  1.0000
  C   C62       1.0  0.0006296650298971418  0.4555789565779316  0.5122063789659366  1.0000
  C   C63       1.0  0.9812496740238955  0.4815861542059801  0.522280526209326  1.0000
  C   C64       1.0  0.9833582336788562  0.516240443259223  0.5103003624572896  1.0000
  C   C65       1.0  0.004733691834549969  0.5247407058513127  0.4878685586025864  1.0000
  C   C66       1.0  0.02370820060577783  0.4985040750250726  0.4773138490899034  1.0000
  H   H41       1.0  0.998990681441345  0.42889066125156994  0.5217565098610709  1.0000
  H   H42       1.0  0.9646988693185646  0.4748407225162745  0.5395431491342882  1.0000
  H   H43       1.0  0.0065389812333833675  0.5514186199434898  0.47864031177157534  1.0000
  H   H44       1.0  0.040329370785887386  0.5051981038919588  0.4601110479776548  1.0000
  C   C67       1.0  0.08070184308457766  0.5921305535189132  0.3629927317653125  1.0000
  C   C68       1.0  0.08702869293003816  0.576487608773631  0.3380478487119365  1.0000
  C   C69       1.0  0.09387958978130317  0.5974606404318875  0.3127986280668177  1.0000
  C   C70       1.0  0.09447581251625711  0.6339007625879648  0.3127256787148101  1.0000
  C   C71       1.0  0.08618246392117118  0.649314210908581  0.3372677931495762  1.0000
  C   C72       1.0  0.07926988705759556  0.6284987445917792  0.36237934788428416  1.0000
  H   H45       1.0  0.08752061387465583  0.5483797531599909  0.33831020086422053  1.0000
  H   H46       1.0  0.09995278502189844  0.5854979524865117  0.2936895755516889  1.0000
  H   H47       1.0  0.08543557124262313  0.6773950970682459  0.33688171921843585  1.0000
  H   H48       1.0  0.07345310950984962  0.6406266243669144  0.38145106206597074  1.0000
  C   C73       1.0  0.4906064398695925  0.98714113999116  0.07496339265524288  1.0000
  C   C74       1.0  0.5093093233026064  0.012745872335389041  0.05997019599306941  1.0000
  C   C75       1.0  0.5427889836582817  0.009940521661858881  0.06039722293382743  1.0000
  C   C76       1.0  0.5576661370452833  0.9809043536650287  0.07511486643032983  1.0000
  C   C77       1.0  0.5389284865277664  0.9552000854666249  0.09011572989852557  1.0000
  C   C78       1.0  0.5053832390326466  0.9583014215513556  0.09003250587045009  1.0000
  H   H49       1.0  0.4978426694340234  0.03467785758002462  0.04791886086078656  1.0000
  H   H50       1.0  0.5569506845126101  0.030174658483894445  0.04911545454821509  1.0000
  H   H51       1.0  0.5503141073337005  0.9327178785124866  0.1015807479574411  1.0000
  H   H52       1.0  0.49095774538732695  0.9384260695300981  0.10166707615065329  1.0000
  C   C79       1.0  0.6169349232748341  0.8262735618830411  0.7874037912392667  1.0000
  C   C80       1.0  0.5945387533927416  0.8092668966755413  0.8058400310317185  1.0000
  C   C81       1.0  0.5946979904971804  0.7726386539988894  0.8106499448781681  1.0000
  C   C82       1.0  0.6166783477082927  0.7529487672511813  0.7963853305760771  1.0000
  C   C83       1.0  0.6388550439213732  0.7699057745432774  0.7777240519756815  1.0000
  C   C84       1.0  0.639243653645723  0.8065195058770777  0.773558158901341  1.0000
  H   H53       1.0  0.57660298273339  0.8242039438607138  0.8158850518306694  1.0000
  H   H54       1.0  0.5772769525343477  0.7595747824699625  0.8248726594328176  1.0000
  H   H55       1.0  0.6560482463647354  0.7548160110186877  0.7668285144247641  1.0000
  H   H56       1.0  0.6570282709776127  0.8195396462705955  0.7597513025470679  1.0000
  C   C85       1.0  0.6372567554264331  0.944786314955478  0.9280341817618899  1.0000
  C   C86       1.0  0.645310632033673  0.9474299080851545  0.95647928258594  1.0000
  C   C87       1.0  0.6567684252509257  0.9791492034005901  0.9649081771086139  1.0000
  C   C88       1.0  0.6615524366907017  0.007685835458226098  0.9446408050165143  1.0000
  C   C89       1.0  0.6542179358778574  0.004747100960986295  0.916139495843361  1.0000
  C   C90       1.0  0.641423695632154  0.9736145344397364  0.9079688219703871  1.0000
  H   H57       1.0  0.642225763582149  0.925171874574332  0.9720691574722675  1.0000
  H   H58       1.0  0.6624637416493929  0.9812919678655215  0.9869828324471687  1.0000
  H   H59       1.0  0.6579555996418543  0.026689293771117617  0.9003683770467404  1.0000
  H   H60       1.0  0.6352353086183037  0.9719153255069778  0.8860127509609349  1.0000
  C   C91       1.0  0.4783590009389815  0.8885296964479976  0.8944195210336111  1.0000
  C   C92       1.0  0.5055981345586106  0.8760146491195389  0.9093491027815997  1.0000
  C   C93       1.0  0.5040197946309278  0.8667442412299599  0.938651255358433  1.0000
  C   C94       1.0  0.47562892271341384  0.8717749393109453  0.9534574162358244  1.0000
  C   C95       1.0  0.4483008922343102  0.8843296433798516  0.9385748674120806  1.0000
  C   C96       1.0  0.449459951384448  0.8917466430529024  0.908936946431292  1.0000
  H   H61       1.0  0.5278827709759959  0.8731421102722704  0.8983671630608702  1.0000
  H   H62       1.0  0.5250346455620208  0.8563218669386381  0.9498217796169185  1.0000
  H   H63       1.0  0.42616245208865916  0.8878414223530959  0.9497726968338611  1.0000
  H   H64       1.0  0.4281672688719713  0.9006034156655665  0.8973158878591471  1.0000
  C   C97       1.0  0.439977681410457  0.3400917936355819  0.7840310065671736  1.0000
  C   C98       1.0  0.44553786011983254  0.3040673017244823  0.7843718615803689  1.0000
  C   C99       1.0  0.4325952371007869  0.28086533915938056  0.8061215838732189  1.0000
  C   C100      1.0  0.413952982354104  0.29374288897127737  0.8273979882917477  1.0000
  C   C101      1.0  0.4082527434975721  0.3296829817003151  0.8269208370309298  1.0000
  C   C102      1.0  0.42121459504767844  0.3528254452918058  0.8052693669926577  1.0000
  H   H65       1.0  0.45990703867637694  0.29411667887819076  0.7678330639144682  1.0000
  H   H66       1.0  0.43662912087809946  0.25304569606224636  0.8061373749813081  1.0000
  H   H67       1.0  0.3939485341191142  0.3396851699675399  0.8434797904594694  1.0000
  H   H68       1.0  0.41661103151390055  0.3804998436217858  0.8050411205872168  1.0000
  C   C103      1.0  0.5472046921981953  0.18119715428723449  0.9337893208583955  1.0000
  C   C104      1.0  0.5210360059108405  0.17210651086644876  0.951415982794859  1.0000
  C   C105      1.0  0.5258892721275759  0.15723382803666325  0.9792962667090401  1.0000
  C   C106      1.0  0.5569409103084513  0.15043780310737057  0.9894452159341467  1.0000
  C   C107      1.0  0.5832389200378595  0.15926775015522318  0.9718471022640335  1.0000
  C   C108      1.0  0.5783734508589711  0.17517516818807272  0.9441543129118941  1.0000
  H   H69       1.0  0.49690306033256426  0.17633570668358994  0.9437010407665056  1.0000
  H   H70       1.0  0.5054527233506825  0.15032695184321504  0.9927575010678227  1.0000
  H   H71       1.0  0.6072950606162707  0.15436892733383092  0.9797347159923349  1.0000
  H   H72       1.0  0.5987061275334392  0.1822134180065957  0.9306324876304004  1.0000
  C   C109      1.0  0.39753422320765647  0.09508679494575543  0.9594894951144356  1.0000
  C   C110      1.0  0.3808460954422287  0.08510987286617414  0.9359538850156319  1.0000
  C   C111      1.0  0.3680603534083419  0.051336168837462295  0.9365877786848522  1.0000
  C   C112      1.0  0.3730648105730772  0.027231974642086824  0.960325736931312  1.0000
  C   C113      1.0  0.3895581709383905  0.03732128220039078  0.9838939879158293  1.0000
  C   C114      1.0  0.40139452816382576  0.07137289143091122  0.983615708505476  1.0000
  H   H73       1.0  0.37752946211633465  0.10356188072934545  0.9174099859102297  1.0000
  H   H74       1.0  0.35512748999420163  0.04367907637317424  0.9183812119640443  1.0000
  H   H75       1.0  0.3935059815820616  0.018906177106105645  0.0023098985414600204  1.0000
  H   H76       1.0  0.41425564055635117  0.07911394238211869  0.001841759360598827  1.0000
  C   C115      1.0  0.48174063099122927  0.08273178449308743  0.82271202633183  1.0000
  C   C116      1.0  0.48475136803970986  0.04714759757437692  0.8190119884573009  1.0000
  C   C117      1.0  0.5151612897854868  0.031508003366487625  0.8186867277514775  1.0000
  C   C118      1.0  0.5426384868191455  0.051812273626789196  0.8206403858877208  1.0000
  C   C119      1.0  0.5396388724849378  0.08767070615159578  0.8231342747866599  1.0000
  C   C120      1.0  0.5092095330749501  0.10296229016028133  0.8249553231935496  1.0000
  H   H77       1.0  0.4635672974833999  0.03154271622540272  0.8168199672058163  1.0000
  H   H78       1.0  0.5172967587956115  0.0038604339410730493  0.8165019939512613  1.0000
  H   H79       1.0  0.5608626219167855  0.10354810242289236  0.824010171180674  1.0000
  H   H80       1.0  0.5069820495943952  0.13055258537949485  0.8274880484364333  1.0000
  C   C121      1.0  0.02076522226467481  0.5586889737268503  0.9607714613079542  1.0000
  C   C122      1.0  0.9925443825972764  0.573057440879218  0.9485491107223913  1.0000
  C   C123      1.0  0.9650146893674891  0.5523489058206459  0.9475832226312662  1.0000
  C   C124      1.0  0.9658897211113835  0.5170525512138261  0.9582249338426952  1.0000
  C   C125      1.0  0.9942701182021932  0.5026500200911118  0.9700473944056743  1.0000
  C   C126      1.0  0.021515002342755718  0.5235408963584597  0.9716990532738631  1.0000
  H   H81       1.0  0.9917151306340408  0.6002707074332507  0.9402070453141498  1.0000
  H   H82       1.0  0.9431371291388795  0.5636641602502238  0.9384130409912327  1.0000
  H   H83       1.0  0.9950954730571634  0.4755993197207138  0.9785413577668969  1.0000
  H   H84       1.0  0.043261286768788085  0.5123139577036055  0.9811928034568581  1.0000
  C   C127      1.0  0.2622488662177172  0.42588956348355894  0.7655261468814137  1.0000
  C   C128      1.0  0.2618672425184554  0.42720673509712054  0.7949778680639965  1.0000
  C   C129      1.0  0.2873979393373977  0.44254934537842366  0.8084029199350367  1.0000
  C   C130      1.0  0.31303879257296297  0.4570556669792278  0.7923172917310004  1.0000
  C   C131      1.0  0.3123841519178099  0.4576335733539672  0.7627176657054698  1.0000
  C   C132      1.0  0.28737774390079096  0.4413586527547927  0.7493690178521997  1.0000
  H   H85       1.0  0.2425575320517395  0.41514460342201914  0.8075550289364798  1.0000
  H   H86       1.0  0.2877651215752872  0.44209234151440163  0.8313204635682083  1.0000
  H   H87       1.0  0.3312266402108589  0.4704400874465105  0.7500841378356548  1.0000
  H   H88       1.0  0.28743018221359456  0.4408544606587805  0.726529957158011  1.0000
  C   C133      1.0  0.1467673013760517  0.5333451282030678  0.8397193441294082  1.0000
  C   C134      1.0  0.14355352394909549  0.5542087312811322  0.8621920017692719  1.0000
  C   C135      1.0  0.12688561356138972  0.5860179734693481  0.8581920418853746  1.0000
  C   C136      1.0  0.114322179513059  0.5975134749129797  0.8315054776251491  1.0000
  C   C137      1.0  0.1186457847504992  0.5772184202141754  0.8087538748876002  1.0000
  C   C138      1.0  0.13446938197170724  0.5448624652342622  0.8129563897435866  1.0000
  H   H89       1.0  0.1534373423517222  0.5455126621839566  0.8828398904527631  1.0000
  H   H90       1.0  0.124135942303632  0.6018045718842683  0.8756838090391265  1.0000
  H   H91       1.0  0.10930802003603117  0.5862640516937935  0.7879775295028308  1.0000
  H   H92       1.0  0.13722442285893335  0.5289774776096202  0.7954535138007613  1.0000
  C   C139      1.0  0.08020399879091127  0.35903536000279357  0.8512089015220745  1.0000
  C   C140      1.0  0.1033927060362426  0.37328908094571867  0.8679712112277223  1.0000
  C   C141      1.0  0.09574174497217401  0.3812185466104181  0.8954773176233048  1.0000
  C   C142      1.0  0.06453131645702499  0.37634995183744996  0.9057613540826919  1.0000
  C   C143      1.0  0.04123755717654176  0.36231274395462587  0.8889518419293527  1.0000
  C   C144      1.0  0.049242747722866964  0.35301812132514754  0.8618799101420845  1.0000
  H   H93       1.0  0.12738979242758627  0.3777611226152443  0.8598833462046119  1.0000
  H   H94       1.0  0.11386562648825352  0.3918470471288552  0.9085062980572983  1.0000
  H   H95       1.0  0.017037096116342635  0.35859643114955275  0.8966921175494763  1.0000
  H   H96       1.0  0.03124670382326578  0.3419473486688766  0.8490043240851765  1.0000
  C   C145      1.0  0.8112921275766013  0.5902908015296785  0.7035461151684447  1.0000
  C   C146      1.0  0.8009763799802122  0.5595150149039456  0.7189039932789708  1.0000
  C   C147      1.0  0.7709848846120471  0.5583420715135171  0.7322051776735623  1.0000
  C   C148      1.0  0.7511339874144933  0.5879137768498273  0.7300657038251271  1.0000
  C   C149      1.0  0.7603125534082099  0.6179432268617655  0.7128793121503265  1.0000
  C   C150      1.0  0.7904943819691409  0.6191285700553506  0.6995902371137771  1.0000
  H   H97       1.0  0.8165396333390662  0.5368488093487268  0.7212915631438797  1.0000
  H   H98       1.0  0.7638043735809382  0.5349700042911563  0.7452470900113829  1.0000
  H   H99       1.0  0.7450312784201508  0.6408783499648418  0.7112611130920529  1.0000
  H   H100      1.0  0.7984858612137645  0.6430327815067071  0.6877596580742704  1.0000
  C   C151      1.0  0.896105663512812  0.6106707147395971  0.8474673964540026  1.0000
  C   C152      1.0  0.8826742642006224  0.6352736875446576  0.8639915367601886  1.0000
  C   C153      1.0  0.9020243263875425  0.6609499873994004  0.874279482740486  1.0000
  C   C154      1.0  0.9350081882055992  0.6612335637009875  0.8690026850238272  1.0000
  C   C155      1.0  0.9485210337822884  0.6360876183398704  0.8530497011872891  1.0000
  C   C156      1.0  0.9290070893607513  0.6112066578017389  0.8417919478030776  1.0000
  H   H101      1.0  0.8572934936819188  0.6348739931985148  0.8685484771265451  1.0000
  H   H102      1.0  0.8915576191555054  0.6803332591289464  0.8867011578763525  1.0000
  H   H103      1.0  0.9738956393117679  0.6362444169730326  0.8489951652705265  1.0000
  H   H104      1.0  0.9395277589881394  0.5922445389124278  0.8290515363866684  1.0000
  C   C157      1.0  0.9158951319002699  0.42262482194084194  0.7928697151261396  1.0000
  C   C158      1.0  0.8999583152458143  0.3906227488930316  0.7964161940004433  1.0000
  C   C159      1.0  0.8995124730634663  0.37113068829795676  0.8229924749656492  1.0000
  C   C160      1.0  0.9157422326404157  0.3830029557950555  0.8460259136512618  1.0000
  C   C161      1.0  0.9329348262082083  0.41432704485337174  0.8422196814921515  1.0000
  C   C162      1.0  0.9325872005260568  0.4344707190046373  0.8157488905335057  1.0000
  H   H105      1.0  0.8873671768020727  0.38115195615013414  0.7787010969711375  1.0000
  H   H106      1.0  0.8864166984551544  0.3467841560425658  0.8257289484690021  1.0000
  H   H107      1.0  0.9463601723120544  0.4230300831424616  0.859629284786406  1.0000
  H   H108      1.0  0.945777330087591  0.45866479241884534  0.812880881856058  1.0000
  C   C163      1.0  0.024136043489358053  0.5606521783524334  0.7412974693529351  1.0000
  C   C164      1.0  0.017508369305679228  0.5427486473803572  0.71763734365172  1.0000
  C   C165      1.0  0.0381862286820569  0.5162294689879496  0.7103659244764473  1.0000
  C   C166      1.0  0.0650072637263908  0.5069683480688169  0.7271887204778158  1.0000
  C   C167      1.0  0.07141346619505144  0.524506759218928  0.7511242430574017  1.0000
  C   C168      1.0  0.05112336888732857  0.5516625381582759  0.7580093822068175  1.0000
  H   H109      1.0  0.9967909579973627  0.549816625725285  0.7045949247028662  1.0000
  H   H110      1.0  0.033243038190981185  0.5026675772230248  0.6918437993185943  1.0000
  H   H111      1.0  0.09216107073077624  0.5174259823464832  0.7640928337444718  1.0000
  H   H112      1.0  0.05602641429869367  0.5653199649516141  0.776470808110828  1.0000
  C   C169      1.0  0.5610284644090032  0.3908708998569744  0.41709506088719894  1.0000
  C   C170      1.0  0.5303311159126042  0.39062669068067063  0.405205027354257  1.0000
  C   C171      1.0  0.5056914483644732  0.4108945498778329  0.4157046502655087  1.0000
  C   C172      1.0  0.5119022808112742  0.43184736889344566  0.43773391343870427  1.0000
  C   C173      1.0  0.5429386066717891  0.433300612668787  0.4485592199622259  1.0000
  C   C174      1.0  0.567356311575306  0.4126855021092871  0.43842759226090905  1.0000
  H   H113      1.0  0.5254124083568743  0.37450021399546757  0.38828126802250934  1.0000
  H   H114      1.0  0.48180332270020804  0.41013962147354066  0.4069479197238652  1.0000
  H   H115      1.0  0.5482253391357279  0.4501708802215865  0.46488085672878005  1.0000
  H   H116      1.0  0.5911242838738368  0.4132584939177668  0.4475132899284121  1.0000
  C   C175      1.0  0.60373410797067  0.3314835156244787  0.25421525920483445  1.0000
  C   C176      1.0  0.6160735671550698  0.3582678784923958  0.23528342190477072  1.0000
  C   C177      1.0  0.6470138014818246  0.3551984389228469  0.22417791866850836  1.0000
  C   C178      1.0  0.6651252449006362  0.3248278311939515  0.23116501496346714  1.0000
  C   C179      1.0  0.6521151171600986  0.29741594924500797  0.2490231849090674  1.0000
  C   C180      1.0  0.6218464480572038  0.30109555258563453  0.2611577853892334  1.0000
  H   H117      1.0  0.6022253341722522  0.38189042673639384  0.23001826752728408  1.0000
  H   H118      1.0  0.656991979827327  0.37647296175766126  0.21030910309271142  1.0000
  H   H119      1.0  0.6655200064594424  0.27366163601772003  0.25396654099907  1.0000
  H   H120      1.0  0.6125953214689716  0.2803019398163241  0.27578753306705683  1.0000
  C   C181      1.0  0.7103078510716676  0.8977603356638634  0.4594235751556955  1.0000
  C   C182      1.0  0.7032598707790633  0.8703570803130566  0.48020756219541927  1.0000
  C   C183      1.0  0.7164169926758855  0.836949075961378  0.47845325406569794  1.0000
  C   C184      1.0  0.7371794084661779  0.8310720568516222  0.4561730483137599  1.0000
  C   C185      1.0  0.7447308408900569  0.8586054021978365  0.43566664808709543  1.0000
  C   C186      1.0  0.7310812823735515  0.8918616884781215  0.43714890567879994  1.0000
  H   H121      1.0  0.6872277014878789  0.8748859250565576  0.49749075361615447  1.0000
  H   H122      1.0  0.7104773126494403  0.8157887863492379  0.49433762169136136  1.0000
  H   H123      1.0  0.7608109726832643  0.8541333480627792  0.41841767462823337  1.0000
  H   H124      1.0  0.7370153860208679  0.9130689647817865  0.42133031952272015  1.0000
  C   C187      1.0  0.7484352871532389  0.07633925045157186  0.33035344432654296  1.0000
  C   C188      1.0  0.755577252291482  0.0910006105392811  0.30288293123130744  1.0000
  C   C189      1.0  0.7584849813877421  0.12727560355460765  0.297169116055007  1.0000
  C   C190      1.0  0.7553408541589907  0.1490447251860214  0.3190417546250311  1.0000
  C   C191      1.0  0.7486512813060994  0.13434437738229876  0.3466629787837787  1.0000
  C   C192      1.0  0.7444938350172984  0.09805414542843693  0.3522257141532847  1.0000
  H   H125      1.0  0.7587089195593681  0.07423042000007385  0.28595537955011147  1.0000
  H   H126      1.0  0.7636090953719042  0.1381468815021203  0.2758862557319085  1.0000
  H   H127      1.0  0.7464788078662368  0.1510164499688238  0.3637546847424048  1.0000
  H   H128      1.0  0.7392036008032677  0.08678880336857953  0.3735749310788234  1.0000
  C   C193      1.0  0.6227237956955517  0.11782739164668765  0.38803411024806583  1.0000
  C   C194      1.0  0.6006390284522318  0.1453647842433179  0.3842522651138017  1.0000
  C   C195      1.0  0.6107831194404519  0.17882894863996635  0.3737829529375895  1.0000
  C   C196      1.0  0.6431090773262169  0.18497802095154353  0.3673889165295771  1.0000
  C   C197      1.0  0.6652229896712415  0.15746124413188817  0.37131729694250376  1.0000
  C   C198      1.0  0.6550269312625482  0.12376114463266119  0.3813669681695634  1.0000
  H   H129      1.0  0.5755897167786144  0.1408136663362296  0.38920654403777577  1.0000
  H   H130      1.0  0.5934051223191188  0.19966217304666234  0.3704711449473696  1.0000
  H   H131      1.0  0.690177608209732  0.16224931378528848  0.36645261417250596  1.0000
  H   H132      1.0  0.6721933150455647  0.10252890054315267  0.3842320478394416  1.0000
  C   C199      1.0  0.599771018549869  0.0016796363010616044  0.25659170686548516  1.0000
  C   C200      1.0  0.6304320406476515  0.9974676149604637  0.2683552934009068  1.0000
  C   C201      1.0  0.6349458027421363  0.9767299362847978  0.2940719702895109  1.0000
  C   C202      1.0  0.608994546930567  0.9592670765490068  0.3075762548761908  1.0000
  C   C203      1.0  0.5784505842820283  0.9626547244434505  0.29541416891887523  1.0000
  C   C204      1.0  0.5736946947251078  0.9844907008212164  0.27019358565040175  1.0000
  H   H133      1.0  0.6506338169720105  0.01070291393922096  0.25787759877541105  1.0000
  H   H134      1.0  0.6586329513566048  0.9740010225545896  0.3033438160432409  1.0000
  H   H135      1.0  0.5584335022987998  0.9488954769742395  0.3057247467990517  1.0000
  H   H136      1.0  0.5500253825329495  0.9874294969269651  0.26093771598265175  1.0000
  C   C205      1.0  0.6003761819354051  0.17741585538466584  0.1948537614407688  1.0000
  C   C206      1.0  0.6225313468708775  0.20457209644959715  0.19005841782823707  1.0000
  C   C207      1.0  0.6554163304520215  0.19696336330116204  0.18871576494191328  1.0000
  C   C208      1.0  0.6660507801232218  0.16218733051956044  0.19193269244437453  1.0000
  C   C209      1.0  0.6439831869389033  0.13521803732332222  0.19727834138899947  1.0000
  C   C210      1.0  0.6112250603192816  0.1427415239544771  0.19858084856897099  1.0000
  H   H137      1.0  0.6143367513512095  0.23147298255194432  0.18743810613578696  1.0000
  H   H138      1.0  0.6724536929471193  0.21804009650061257  0.18492111180527548  1.0000
  H   H139      1.0  0.6522806589430586  0.10852799359218852  0.20098173925646623  1.0000
  H   H140      1.0  0.5944853985061472  0.12158251005487165  0.202595877031057  1.0000
  C   C211      1.0  0.49488274525447673  0.19158915025122555  0.35366998327893134  1.0000
  C   C212      1.0  0.4661258129189629  0.17307331861628047  0.3562304629916859  1.0000
  C   C213      1.0  0.4613536276797499  0.144128659855254  0.3408782708226408  1.0000
  C   C214      1.0  0.48498623008285807  0.13401670474258118  0.3223233818281339  1.0000
  C   C215      1.0  0.5139472938087692  0.15220984856067798  0.31980621462469394  1.0000
  C   C216      1.0  0.5190836556257863  0.18054928113868832  0.33591636294701965  1.0000
  H   H141      1.0  0.4474343411498808  0.18113298286721402  0.3701074936023898  1.0000
  H   H142      1.0  0.4390834884738822  0.12980492254308423  0.343136822993385  1.0000
  H   H143      1.0  0.5326917226569868  0.14378404766184105  0.3062000515595538  1.0000
  H   H144      1.0  0.5419935403974258  0.19313388766836526  0.33510169609983004  1.0000
  C   C217      1.0  0.4081665462445089  0.07503382113589452  0.1897708239438712  1.0000
  C   C218      1.0  0.37925223762936944  0.07119503081918865  0.17538348136853468  1.0000
  C   C219      1.0  0.3498957972206623  0.07674655231411887  0.18888439790583064  1.0000
  C   C220      1.0  0.3494810240860203  0.08727146810216335  0.21644678501131975  1.0000
  C   C221      1.0  0.3783792662560511  0.0911139313917122  0.23072623919030683  1.0000
  C   C222      1.0  0.4075916363478589  0.08436852735682843  0.21762915154904988  1.0000
  H   H145      1.0  0.3795343623486593  0.0643833453445175  0.15374595096194305  1.0000
  H   H146      1.0  0.32763410201176135  0.07391358660077807  0.17771439325577507  1.0000
  H   H147      1.0  0.37815906907640073  0.09879081791151245  0.2521542428019591  1.0000
  H   H148      1.0  0.4295887030891885  0.08630030983490156  0.22928997569219267  1.0000
  C   C223      1.0  0.19954953177424162  0.9270911064767902  0.26830401143072136  1.0000
  C   C224      1.0  0.1763010504026285  0.928551932126061  0.246936258064067  1.0000
  C   C225      1.0  0.16018220341902417  0.8980920843291312  0.24116678069610745  1.0000
  C   C226      1.0  0.1671255263171114  0.8661971661652181  0.2568756317616748  1.0000
  C   C227      1.0  0.19116887019931075  0.8644727070509971  0.2775087664220869  1.0000
  C   C228      1.0  0.20723301941322245  0.8949444846857281  0.28333163858104177  1.0000
  H   H149      1.0  0.1697675541600742  0.9533687257270761  0.23568441984782168  1.0000
  H   H150      1.0  0.14163887712506823  0.8994768275782499  0.2251057995250351  1.0000
  H   H151      1.0  0.1973224693093493  0.8398018205122825  0.2891397813986866  1.0000
  H   H152      1.0  0.22538738656468738  0.8937278021863791  0.2997406481094004  1.0000
  C   C229      1.0  0.19928983772406392  0.8957370179542667  0.1352348757929204  1.0000
  C   C230      1.0  0.20381626713493503  0.9076613229995812  0.16193594720367593  1.0000
  C   C231      1.0  0.22937338038029087  0.930004912055236  0.1662823458081675  1.0000
  C   C232      1.0  0.24957716620121848  0.9414915164531099  0.1437138876362589  1.0000
  C   C233      1.0  0.24635132862375464  0.9277418685804749  0.11761538373432684  1.0000
  C   C234      1.0  0.22138114044875942  0.9045668966107485  0.11355831683040848  1.0000
  H   H153      1.0  0.1873010745818004  0.9002737033334884  0.17909729818351205  1.0000
  H   H154      1.0  0.23328012006735424  0.9385372403937763  0.18707952042481443  1.0000
  H   H155      1.0  0.2625515719213124  0.9356581133939972  0.10033419844194338  1.0000
  H   H156      1.0  0.21906911559830333  0.8937735498632065  0.09356692261511322  1.0000
  C   C235      1.0  0.24959747032921448  0.8613911947960969  0.017361857717267615  1.0000
  C   C236      1.0  0.24685213011526796  0.8600826711178735  0.04692019038049455  1.0000
  C   C237      1.0  0.27447606402044533  0.8604148286907028  0.06384869628765788  1.0000
  C   C238      1.0  0.30480330472710937  0.8617281673300319  0.05114926193920666  1.0000
  C   C239      1.0  0.3073947859944366  0.8596845271119318  0.02188331413872957  1.0000
  C   C240      1.0  0.27986647565605005  0.8594047587110312  0.005001550146290112  1.0000
  H   H157      1.0  0.22342513058405614  0.8601549454249819  0.056545309723726955  1.0000
  H   H158      1.0  0.27233560806911417  0.8611343900726728  0.08658312801703372  1.0000
  H   H159      1.0  0.33057245594345247  0.8583624191122669  0.012161804808387133  1.0000
  H   H160      1.0  0.28209879528069387  0.8591605926806726  0.9822186655319227  1.0000
  C   C241      1.0  0.07335929602388651  0.8075371498138032  0.9970042944775391  1.0000
  C   C242      1.0  0.10485928199071569  0.8091497818805292  0.9869821797845536  1.0000
  C   C243      1.0  0.11381295221381851  0.7908962697939823  0.964012427834207  1.0000
  C   C244      1.0  0.09140046201997931  0.7707471476362917  0.9510121894654308  1.0000
  C   C245      1.0  0.059742657262483866  0.7691726690136683  0.9608314124051046  1.0000
  C   C246      1.0  0.05070627156134271  0.7876087678806194  0.983889137735186  1.0000
  H   H161      1.0  0.12253873410709108  0.824384767258562  0.9969083684375811  1.0000
  H   H162      1.0  0.13829704981732857  0.7922663924061492  0.9564047149723995  1.0000
  H   H163      1.0  0.0422421132932429  0.7539927626437133  0.9505778847156515  1.0000
  H   H164      1.0  0.026256490815607107  0.7864423829571358  0.9915057003157587  1.0000
  C   C247      1.0  0.0919857545997679  0.10185830519103409  0.24666160705520898  1.0000
  C   C248      1.0  0.09079143510156815  0.12351420812802821  0.22120522201267126  1.0000
  C   C249      1.0  0.11218754843075773  0.11827120003646026  0.19917175440820672  1.0000
  C   C250      1.0  0.13524175687019904  0.09170480356527362  0.20284032630109397  1.0000
  C   C251      1.0  0.13603208144590453  0.06945455030770166  0.22807259255758014  1.0000
  C   C252      1.0  0.11421003532000279  0.07438542114554691  0.2499229832844082  1.0000
  H   H165      1.0  0.07369270682957839  0.14472320050634258  0.2187036150350373  1.0000
  H   H166      1.0  0.11170880782711044  0.13566926803756532  0.17975438452395195  1.0000
  H   H167      1.0  0.15365639161911201  0.04866554088191566  0.23091167969385978  1.0000
  H   H168      1.0  0.11517228798708179  0.05754568308147257  0.26962339442435923  1.0000
  C   C253      1.0  0.07212044716178045  0.3112401099582798  0.31157312540623405  1.0000
  C   C254      1.0  0.08148081567812593  0.3226013974450048  0.33755861152254013  1.0000
  C   C255      1.0  0.07000003955242429  0.35448530464549366  0.34591000331308924  1.0000
  C   C256      1.0  0.04931604150573632  0.37537074933015363  0.3281821272900205  1.0000
  C   C257      1.0  0.03909615872534311  0.3634073434077616  0.30260625133205454  1.0000
  C   C258      1.0  0.05039432997376969  0.33136676856381375  0.2943391124457711  1.0000
  H   H169      1.0  0.09774413586727371  0.306743868146382  0.35122909146633186  1.0000
  H   H170      1.0  0.0774419801401589  0.3629629992648678  0.3659125565253217  1.0000
  H   H171      1.0  0.02297251334749184  0.3793299949492765  0.28883034338360947  1.0000
  H   H172      1.0  0.04308009662744161  0.32284553588987525  0.2742028957381023  1.0000
  C   C259      1.0  0.9118682285483488  0.2231912029895313  0.2657466897199003  1.0000
  C   C260      1.0  0.922942550989924  0.2355933581981888  0.23880048450650776  1.0000
  C   C261      1.0  0.9013345396926157  0.24289580216157472  0.2162845972102992  1.0000
  C   C262      1.0  0.8684904009971299  0.238099819045532  0.22081910210156402  1.0000
  C   C263      1.0  0.857352347934855  0.22687127542848373  0.24810293668389302  1.0000
  C   C264      1.0  0.878994223122479  0.21972283577835452  0.2705475386171267  1.0000
  H   H173      1.0  0.9482108404785102  0.23961746662937203  0.2354162792199355  1.0000
  H   H174      1.0  0.9102231418241277  0.25188129808619986  0.1954500378196447  1.0000
  H   H175      1.0  0.8321182837565514  0.22348436690358892  0.25204903416209773  1.0000
  H   H176      1.0  0.8703199294924848  0.21144006476712787  0.29156764375585775  1.0000
  C   C265      1.0  0.023648536248252805  0.02237230515787969  0.08173244530868562  1.0000
  C   C266      1.0  0.031742321790300565  0.04192238785104907  0.05627061170142422  1.0000
  C   C267      1.0  0.0594798221002755  0.033401814080630476  0.04148327446726374  1.0000
  C   C268      1.0  0.07875359757077223  0.005045910223063554  0.05190786231935096  1.0000
  C   C269      1.0  0.07074991148882889  0.9859302580003755  0.07756530757632873  1.0000
  C   C270      1.0  0.043389494287059446  0.9947039894059182  0.09252054518628916  1.0000
  H   H177      1.0  0.016570493280442466  0.06341820524304476  0.047887764861294535  1.0000
  H   H178      1.0  0.06563872369094789  0.048366799090690415  0.021665366595020386  1.0000
  H   H179      1.0  0.08570504151314629  0.9645677790336026  0.08615690187161262  1.0000
  H   H180      1.0  0.03723330539475489  0.9796644604146533  0.11230821447284112  1.0000
  C   C271      1.0  0.9358015290592823  0.18610035910680486  0.13873710009192236  1.0000
  C   C272      1.0  0.9609147347496654  0.19654950565934975  0.12025140521576944  1.0000
  C   C273      1.0  0.9884551919445365  0.21185809380157755  0.13066642145262006  1.0000
  C   C274      1.0  0.9908021722515707  0.21663231384894657  0.15956166569938582  1.0000
  C   C275      1.0  0.9651771245359604  0.20730919646722465  0.17760386852589774  1.0000
  C   C276      1.0  0.9377044786493657  0.19214922727395342  0.167288000075685  1.0000
  H   H181      1.0  0.9590761715375399  0.1931270670976909  0.09793951701989956  1.0000
  H   H182      1.0  0.00815243950445188  0.2193370271195377  0.11650639957962614  1.0000
  H   H183      1.0  0.9667421665340564  0.21141289814970526  0.19966793706921993  1.0000
  H   H184      1.0  0.9182073349401969  0.184504831678003  0.18165151221993278  1.0000
  C   C277      1.0  0.8069428280993682  0.06053644575256478  0.06013316545296332  1.0000
  C   C278      1.0  0.8022717927029412  0.09581745496106357  0.06406489523447512  1.0000
  C   C279      1.0  0.7718764626684731  0.10774074141825103  0.07151944300085877  1.0000
  C   C280      1.0  0.7463276185433309  0.08436303878775772  0.07560483069640145  1.0000
  C   C281      1.0  0.7512368548642205  0.048894700106222336  0.07260285067439187  1.0000
  C   C282      1.0  0.7814957071061529  0.03704486393290685  0.06473232689303265  1.0000
  H   H185      1.0  0.8216874444050183  0.11412967063479998  0.06014922341054807  1.0000
  H   H186      1.0  0.7677634708861591  0.1352762927025499  0.07311222793982486  1.0000
  H   H187      1.0  0.7316854795094495  0.030630632692576487  0.07599959934208411  1.0000
  H   H188      1.0  0.785099913088297  0.009702421948353452  0.061796239490757854  1.0000
  C   C283      1.0  0.9369804567211946  0.27735353762422676  0.012294470774588673  1.0000
  C   C284      1.0  0.941471978270557  0.25130924611759  0.03478483867446491  1.0000
  C   C285      1.0  0.9451728558431817  0.21628430511793809  0.02935062571320013  1.0000
  C   C286      1.0  0.9449279800210894  0.2072088602428454  0.0014163463809038213  1.0000
  C   C287      1.0  0.939719354153145  0.23310266876602062  0.9789738408294043  1.0000
  C   C288      1.0  0.9354429326933045  0.2680862252728082  0.9844330771301734  1.0000
  H   H189      1.0  0.9429266593243099  0.2582138501137218  0.056356361227483776  1.0000
  H   H190      1.0  0.9490076379899541  0.19642842162462307  0.04674117638768349  1.0000
  H   H191      1.0  0.9387554165028417  0.22607277808517245  0.957375320109848  1.0000
  H   H192      1.0  0.9306117459882803  0.28777218634791724  0.9670822274475476  1.0000
  N   N1        1.0  0.3771974317691358  0.964690526287285  0.13951415484308582  1.0000
  C   C289      1.0  0.35671877592338913  0.9511607442108782  0.16359225758351137  1.0000
  C   C290      1.0  0.40608901695702926  0.9810528101582228  0.15045530598868195  1.0000
  C   C291      1.0  0.35910959096453643  0.9910208693425515  0.12096638328454179  1.0000
  C   C292      1.0  0.3867837966367031  0.9355567527070122  0.12298464687863686  1.0000
  H   H193      1.0  0.3352676145467543  0.9375714441927242  0.1560949890870562  1.0000
  H   H194      1.0  0.34777892306217534  0.9727053777377168  0.17575918917531919  1.0000
  H   H195      1.0  0.3699015023087835  0.9321992996629609  0.178644417226689  1.0000
  H   H196      1.0  0.3997165829503252  0.002484219598084092  0.1637198427743889  1.0000
  H   H197      1.0  0.4208634789815333  0.9617716101399157  0.16386910792547482  1.0000
  H   H198      1.0  0.42162804321725555  0.9925876875322486  0.13284921199572297  1.0000
  H   H199      1.0  0.3371948508744321  0.9794547470960153  0.11231948655788981  1.0000
  H   H200      1.0  0.37396428816392596  0.0019663084135455033  0.1026661614847506  1.0000
  H   H201      1.0  0.3510723867005496  0.01314864767088153  0.13286263835563195  1.0000
  H   H202      1.0  0.36555909702580014  0.9229442950357172  0.11399991295702061  1.0000
  H   H203      1.0  0.40012590357930305  0.9149109871151112  0.1363308264247085  1.0000
  H   H204      1.0  0.402583426354406  0.9448260019410124  0.10487666192201739  1.0000
  N   N2        1.0  0.09759886899403714  0.6757309717164799  0.008691781777366847  1.0000
  C   C293      1.0  0.11146039000016662  0.6830406658627262  0.979998909466876  1.0000
  C   C294      1.0  0.07794369324122025  0.6437191796175489  0.009682387040898188  1.0000
  C   C295      1.0  0.07725615099396338  0.7055412593004099  0.015199767441282042  1.0000
  C   C296      1.0  0.12374402142703786  0.67071761432807  0.029756363410339493  1.0000
  H   H205      1.0  0.12654752094653124  0.7070114540024744  0.9783205970886422  1.0000
  H   H206      1.0  0.09237446210127888  0.6875003765587766  0.9636934669225323  1.0000
  H   H207      1.0  0.1265516356346359  0.6609601512941234  0.9739920896379473  1.0000
  H   H208      1.0  0.05798476888654842  0.6466841083997081  0.9939775891202594  1.0000
  H   H209      1.0  0.09236633302060258  0.6206981220046757  0.004485316477833345  1.0000
  H   H210      1.0  0.06706358710378583  0.6372121277197053  0.031002955574528368  1.0000
  H   H211      1.0  0.05693004512187209  0.7095582297965479  0.9999792499007341  1.0000
  H   H212      1.0  0.0911071876018213  0.7303903817812974  0.013800978509021622  1.0000
  H   H213      1.0  0.06687789313355066  0.7014145851669564  0.036929223903190644  1.0000
  H   H214      1.0  0.13963372713841862  0.6485192140395666  0.02531684050179961  1.0000
  H   H215      1.0  0.11417295468279792  0.6650949632254105  0.0516888850218884  1.0000
  H   H216      1.0  0.13891163963835315  0.6945491915284352  0.02945457497751347  1.0000
  N   N3        1.0  0.8474265861657654  0.7442870952238044  0.45914859416288034  1.0000
  C   C297      1.0  0.8539164489810318  0.7255747033469624  0.4338498712446693  1.0000
  C   C298      1.0  0.8197613201846622  0.7280899622557817  0.4747828328928398  1.0000
  C   C299      1.0  0.840004034365782  0.7813858657466806  0.4501754810478057  1.0000
  C   C300      1.0  0.8759423242467888  0.7420287223810039  0.47775250363222327  1.0000
  H   H217      1.0  0.87475877166859  0.7370104249601271  0.42158258443823027  1.0000
  H   H218      1.0  0.8328513227669885  0.7267716528021184  0.41932879007903706  1.0000
  H   H219      1.0  0.8594462091162144  0.6974518452363637  0.4399588751195119  1.0000
  H   H220      1.0  0.8136198751336583  0.7420744352943396  0.4936276256159541  1.0000
  H   H221      1.0  0.7980184917721945  0.7289656879855231  0.46113109019154663  1.0000
  H   H222      1.0  0.8245746062149754  0.7002192827729122  0.4824422192538192  1.0000
  H   H223      1.0  0.8339955623749564  0.7959992926157755  0.4687315850636427  1.0000
  H   H224      1.0  0.8188997144798824  0.7839447736651333  0.43569537003083186  1.0000
  H   H225      1.0  0.8605248069434838  0.7947680316809218  0.4388082641785676  1.0000
  H   H226      1.0  0.882503742635833  0.7143386782028681  0.4844918514296692  1.0000
  H   H227      1.0  0.8717569602731493  0.7551573908608176  0.4974347895646701  1.0000
  H   H228      1.0  0.8972412091042786  0.7544323631386305  0.46687163336702064  1.0000
  N   N4        1.0  0.038244770238367705  0.26461120356794654  0.9721543978010792  1.0000
  C   C301      1.0  0.053760426366249295  0.2949210190326205  0.9560931830627198  1.0000
  C   C302      1.0  0.020116844942910994  0.27649167550832715  0.9963636187818499  1.0000
  C   C303      1.0  0.06299320209783106  0.23907775436053233  0.9829575074267096  1.0000
  C   C304      1.0  0.01613050946227279  0.24779588521772886  0.9532568373229954  1.0000
  H   H229      1.0  0.06814944634569876  0.2869897762751326  0.9379312168714102  1.0000
  H   H230      1.0  0.0699371858939407  0.3089955835420783  0.9697939873963682  1.0000
  H   H231      1.0  0.03578819533475719  0.3143283588835962  0.947090318459801  1.0000
  H   H232      1.0  0.007633381848645372  0.2543444225287164  0.008635285357782685  1.0000
  H   H233      1.0  0.036005611588515014  0.2890260461134688  0.011264536094311994  1.0000
  H   H234      1.0  0.0014292212673900902  0.2960964541666003  0.9891321389407117  1.0000
  H   H235      1.0  0.05202247324492119  0.2159360020513728  0.9952646681889087  1.0000
  H   H236      1.0  0.08017716763384593  0.2509225006353833  0.9972182442892005  1.0000
  H   H237      1.0  0.0770013827563981  0.22937072622121074  0.9652446431521168  1.0000
  H   H238      1.0  0.02875524641144978  0.239464861411339  0.9342823367486857  1.0000
  H   H239      1.0  0.9964316224850455  0.2658925811518135  0.9454781767998198  1.0000
  H   H240      1.0  0.00476594952646181  0.22413033393283682  0.9644630348328257  1.0000
  N   N5        1.0  0.15394983193080689  0.3982295831684614  0.3143139172328718  1.0000
  C   C305      1.0  0.17334950058955145  0.3765649842193994  0.29651962640882407  1.0000
  C   C306      1.0  0.15008718458913592  0.37951494815132436  0.3429056002672524  1.0000
  C   C307      1.0  0.1221279129820546  0.40486824619827927  0.3011173779648225  1.0000
  C   C308      1.0  0.17023405420538304  0.43187694944326027  0.3167715174714072  1.0000
  H   H241      1.0  0.17679994645555433  0.3898672902795852  0.2747749111804665  1.0000
  H   H242      1.0  0.16149649761492885  0.35102130742243315  0.29425739698675896  1.0000
  H   H243      1.0  0.19743504913344723  0.37086293207068566  0.30600975825551047  1.0000
  H   H244      1.0  0.17343399673672005  0.3758513399718844  0.3542013578760832  1.0000
  H   H245      1.0  0.13411698855002332  0.39419857613348885  0.35647827666865495  1.0000
  H   H246      1.0  0.13957803923960577  0.35319853700505766  0.34183743131796207  1.0000
  H   H247      1.0  0.12393726027229296  0.4198678938135581  0.2798696709030312  1.0000
  H   H248      1.0  0.10633219756441349  0.4200755684507847  0.314496741988914  1.0000
  H   H249      1.0  0.10956988852387392  0.37997928247453716  0.29818038847102113  1.0000
  H   H250      1.0  0.17376716888712132  0.44674194551818636  0.29564822521739126  1.0000
  H   H251      1.0  0.19409219528398852  0.42787550808066893  0.3271608931500407  1.0000
  H   H252      1.0  0.15608664593712482  0.44869045423610737  0.33011239528397796  1.0000
  N   N6        1.0  0.38554940529129894  0.5276233462659402  0.46010442301581345  1.0000
  C   C309      1.0  0.40146983571193084  0.49415605315801103  0.4554992862401569  1.0000
  C   C310      1.0  0.3636321200191813  0.5379542195571498  0.4361775000223152  1.0000
  C   C311      1.0  0.41005852354332895  0.5549615542210857  0.46191216314760764  1.0000
  C   C312      1.0  0.3670171352442584  0.5234522554696908  0.4868590854290772  1.0000
  H   H253      1.0  0.4162889330480071  0.4964712480185297  0.4358030298720639  1.0000
  H   H254      1.0  0.383782323208957  0.4729403757746514  0.4536520365618141  1.0000
  H   H255      1.0  0.41792572856329385  0.4853617768085495  0.4733186768911216  1.0000
  H   H256      1.0  0.3509292350485133  0.5629468592300247  0.43910965894428317  1.0000
  H   H257      1.0  0.3767192099918663  0.5415632097252941  0.4156101748932954  1.0000
  H   H258      1.0  0.344805170930155  0.5178838711817836  0.43417976978241396  1.0000
  H   H259      1.0  0.4269068573683869  0.5480597737625167  0.4798379376845658  1.0000
  H   H260      1.0  0.39897964706285993  0.5806138200809682  0.46541198911874626  1.0000
  H   H261      1.0  0.4247115715871968  0.5586889657797154  0.44219410589082486  1.0000
  H   H262      1.0  0.35447788731933627  0.5481723235179268  0.4908217515174574  1.0000
  H   H263      1.0  0.38281781605358106  0.516063719527208  0.505460907917749  1.0000
  H   H264      1.0  0.34836369776322246  0.5029300916665261  0.48634402187869424  1.0000
  N   N7        1.0  0.8049716535667188  0.1562277544621322  0.14338981030934048  1.0000
  C   C313      1.0  0.8298128944399186  0.15102106746278995  0.16570542147027403  1.0000
  C   C314      1.0  0.7839322693034643  0.18564353907375195  0.14932046867809418  1.0000
  C   C315      1.0  0.7855536970283027  0.12416362464701354  0.14316094057555323  1.0000
  C   C316      1.0  0.8204993845641095  0.16428038620832885  0.1154532552818291  1.0000
  H   H265      1.0  0.846494062855672  0.1293423203058869  0.16166180286182863  1.0000
  H   H266      1.0  0.8190293886147875  0.14490951336656097  0.1871180362776262  1.0000
  H   H267      1.0  0.8446907194943728  0.17493750409492081  0.16661126038158047  1.0000
  H   H268      1.0  0.7654274791499303  0.19114154503264816  0.13251257874554992  1.0000
  H   H269      1.0  0.770865698441654  0.17961416540164182  0.16965748907365333  1.0000
  H   H270      1.0  0.7978781521481725  0.21003195213005507  0.15093037655580846  1.0000
  H   H271      1.0  0.765638766044546  0.1278474196138476  0.12747614147929043  1.0000
  H   H272      1.0  0.7742552949446153  0.1169367260142089  0.16425779296476484  1.0000
  H   H273      1.0  0.8003354580903662  0.10158688933398705  0.13762063772485336  1.0000
  H   H274      1.0  0.8025668243257755  0.16929079292722976  0.09819145563641228  1.0000
  H   H275      1.0  0.8362496775791266  0.14236913845688526  0.11006028889946164  1.0000
  H   H276      1.0  0.8358070690456886  0.1879457149338692  0.11526648576845538  1.0000
  N   N8        1.0  0.6462079832690975  0.1366078355737136  0.28735673586314836  1.0000
  C   C317      1.0  0.6760423299875953  0.14801556106163763  0.3004128901978151  1.0000
  C   C318      1.0  0.6532232684603692  0.10624787177332913  0.27133052968383636  1.0000
  C   C319      1.0  0.6331836500586513  0.16569920471408398  0.2679219751156179  1.0000
  C   C320      1.0  0.6224816075514829  0.12654240824881302  0.30983571280419  1.0000
  H   H277      1.0  0.6721062227745414  0.1718091424573633  0.31170385424060126  1.0000
  H   H278      1.0  0.6949057548480435  0.15452072844234868  0.28417646624981013  1.0000
  H   H279      1.0  0.6858908462008795  0.1272710809160252  0.3161519948067285  1.0000
  H   H280      1.0  0.6313331922548903  0.09705280410277764  0.26087185505996313  1.0000
  H   H281      1.0  0.6713496484873487  0.11293222118599289  0.25438457812504434  1.0000
  H   H282      1.0  0.6629603416722254  0.08382021071054548  0.2855164515443781  1.0000
  H   H283      1.0  0.6503354827303868  0.17367094240034928  0.2505111959494252  1.0000
  H   H284      1.0  0.628211866714357  0.18921566010288304  0.27931139539492256  1.0000
  H   H285      1.0  0.6104508565208928  0.15827417936146562  0.25786373541221913  1.0000
  H   H286      1.0  0.5998991153040283  0.11712852490976107  0.30082080466391176  1.0000
  H   H287      1.0  0.6162471254501072  0.14909331943048876  0.32190193688401864  1.0000
  H   H288      1.0  0.6318923475585512  0.10534638487832593  0.3254180085824737  1.0000
  N   N9        1.0  0.011427680175303934  0.923705488561712  0.02633918189536244  1.0000
  C   C321      1.0  0.016874365248095824  0.9082067170479725  0.055796663389701795  1.0000
  C   C322      1.0  0.04253521727768783  0.9293135467049376  0.011703143034857089  1.0000
  C   C323      1.0  0.994570911120879  0.9575876786630582  0.026821027021583843  1.0000
  C   C324      1.0  0.9918468672783267  0.8996176077151972  0.011045081720796102  1.0000
  H   H289      1.0  0.9939057357248993  0.903452151092644  0.06744881051786011  1.0000
  H   H290      1.0  0.03155360785372552  0.9256787116597608  0.06798116756163597  1.0000
  H   H291      1.0  0.029740854885556  0.8826692567896293  0.05622923630780163  1.0000
  H   H292      1.0  0.05545712786299295  0.9041402148222761  0.010311123571099978  1.0000
  H   H293      1.0  0.039498958277100815  0.9417803935312746  0.9896349286082947  1.0000
  H   H294      1.0  0.058414196437700516  0.9464793662527549  0.023059109123696908  1.0000
  H   H295      1.0  0.9711579349805126  0.9545276458855959  0.038060586578809064  1.0000
  H   H296      1.0  0.9899055025024059  0.9700388710754169  0.004968047474722459  1.0000
  H   H297      1.0  0.008992778034003113  0.9763273861210962  0.03799174185149501  1.0000
  H   H298      1.0  0.9681487364059977  0.8947479961836635  0.021429681747775486  1.0000
  H   H299      1.0  0.0040443595655745845  0.8737629906450369  0.010492197871691644  1.0000
  H   H300      1.0  0.9875486095458064  0.9102748713440907  0.9886356967323344  1.0000
  N   N10       1.0  0.9786279378809289  0.5741487766974507  0.4005375051408452  1.0000
  C   C325      1.0  0.002206851660184972  0.5891743038606612  0.41911222736456644  1.0000
  C   C326      1.0  0.9539998834665964  0.6008094308315914  0.39180489430178206  1.0000
  C   C327      1.0  0.9634225583141396  0.5434415186240759  0.4163134547032787  1.0000
  C   C328      1.0  0.9949862371671413  0.5633540164042738  0.3750382592958094  1.0000
  H   H301      1.0  0.02013230995897608  0.5693146398110535  0.42754364820746543  1.0000
  H   H302      1.0  0.9902514663829853  0.5995068575933458  0.4375589247712286  1.0000
  H   H303      1.0  0.01558135918952197  0.6112136804276911  0.4075574360512439  1.0000
  H   H304      1.0  0.9356659740390164  0.590501714254274  0.3777874779413217  1.0000
  H   H305      1.0  0.9414821025987345  0.6099412631607877  0.41057041630947166  1.0000
  H   H306      1.0  0.9649604693962976  0.6243767527145819  0.3800755607268939  1.0000
  H   H307      1.0  0.9452364922324736  0.5314420705953236  0.403127830210904  1.0000
  H   H308      1.0  0.9513567152182583  0.5506533326876241  0.4359750983931205  1.0000
  H   H309      1.0  0.9814796865227872  0.5228123253011001  0.4230563808767112  1.0000
  H   H310      1.0  0.9779627210344488  0.551862772727115  0.3604743965077553  1.0000
  H   H311      1.0  0.01384391543937702  0.5434433681662714  0.3808716080802649  1.0000
  H   H312      1.0  0.0071069380160189155  0.5858878066018003  0.36291676225324776  1.0000
  N   N11       1.0  0.7655397726102049  0.08310249930301683  0.9754017261985426  1.0000
  C   C329      1.0  0.7444222034515283  0.11328599756718834  0.9667868513661284  1.0000
  C   C330      1.0  0.796701105068897  0.09572693218942352  0.9851002374484154  1.0000
  C   C331      1.0  0.7706040087125435  0.06235826959529215  0.9510199115104552  1.0000
  C   C332      1.0  0.7503341944517419  0.06092627460153988  0.9988430116861736  1.0000
  H   H313      1.0  0.7206574519857141  0.1045710539818243  0.9594819044448497  1.0000
  H   H314      1.0  0.7550915644277367  0.13064784695109427  0.9490904736113898  1.0000
  H   H315      1.0  0.7399393961931164  0.12934431491147247  0.9847988606350663  1.0000
  H   H316      1.0  0.8090533087312156  0.1125268972961634  0.9680025448058365  1.0000
  H   H317      1.0  0.7936972255136656  0.11130950383654616  0.0035955697445781976  1.0000
  H   H318      1.0  0.8131484407630442  0.0735725545828262  0.9920273144502371  1.0000
  H   H319      1.0  0.7862452950086486  0.0392354101573049  0.9569504785605343  1.0000
  H   H320      1.0  0.782115884978882  0.07821735086953874  0.9328934468982064  1.0000
  H   H321      1.0  0.7474453347548241  0.052466865717357015  0.9432587350004015  1.0000
  H   H322      1.0  0.7662192047147041  0.03876257321055431  0.006813162751475366  1.0000
  H   H323      1.0  0.7275200076224322  0.049541186608173866  0.9920455155597412  1.0000
  H   H324      1.0  0.7446175992902673  0.07627122013963959  0.01695665906722721  1.0000
  N   N12       1.0  0.16291875098876132  0.01228115043883804  0.11750121415737416  1.0000
  C   C333      1.0  0.19533900846905103  0.025715508087412964  0.12251096663967057  1.0000
  C   C334      1.0  0.14953689134093073  0.9958578178838782  0.14448240433181747  1.0000
  C   C335      1.0  0.16496284295376315  0.9859638333592468  0.0967976038861933  1.0000
  C   C336      1.0  0.1419018588587263  0.04143935686769451  0.10620340558095892  1.0000
  H   H325      1.0  0.20634540131203727  0.037886861904355085  0.10256138106396098  1.0000
  H   H326      1.0  0.21169625041615772  0.004441956726604301  0.13137250951082027  1.0000
  H   H327      1.0  0.19480008613361807  0.04587306874986652  0.13787483166870165  1.0000
  H   H328      1.0  0.1647250794044093  0.9735358676310069  0.15345617869951664  1.0000
  H   H329      1.0  0.14788748338764407  0.014958528074723976  0.16073580510855484  1.0000
  H   H330      1.0  0.12508293842331417  0.9854452165287845  0.14143994486558548  1.0000
  H   H331      1.0  0.1741658379169912  0.9975024352069937  0.07588308835537028  1.0000
  H   H332      1.0  0.14114334778582044  0.9745621346410126  0.09293817600573794  1.0000
  H   H333      1.0  0.18113017217716723  0.963984644057436  0.10455064728520823  1.0000
  H   H334      1.0  0.14013664623093738  0.06188848608708719  0.1213452543671641  1.0000
  H   H335      1.0  0.11723010989923997  0.03218462003582023  0.1022355106278959  1.0000
  H   H336      1.0  0.1511204653847105  0.05417300314569107  0.08567991013617403  1.0000
  N   N13       1.0  0.49309564005641054  0.10752618030940342  0.09599899664232714  1.0000
  C   C337      1.0  0.48641861502825035  0.10589573674912632  0.06545253914626414  1.0000
  C   C338      1.0  0.46542714389307205  0.12342175359317668  0.10956918191717069  1.0000
  C   C339      1.0  0.5219693486456484  0.1289616537130327  0.09916643300520223  1.0000
  C   C340      1.0  0.498567092373022  0.07179985752682307  0.1098127908261004  1.0000
  H   H337      1.0  0.48174038367989164  0.13235668970904266  0.054399498377430744  1.0000
  H   H338      1.0  0.4651853615860236  0.08929800283067349  0.062163499886632945  1.0000
  H   H339      1.0  0.5071999205661311  0.09486126025441956  0.05447694794936586  1.0000
  H   H340      1.0  0.469991471656506  0.1257561847240969  0.1325246461254901  1.0000
  H   H341      1.0  0.4599401231254844  0.15005264392399148  0.09928278373768396  1.0000
  H   H342      1.0  0.44351003368051867  0.10717005808110378  0.10843961612497521  1.0000
  H   H343      1.0  0.5432334155122529  0.11781146587440358  0.08889478163083053  1.0000
  H   H344      1.0  0.5278679001915314  0.1307290467149902  0.12194405694721966  1.0000
  H   H345      1.0  0.518646662135865  0.15607309498215516  0.08892150882322425  1.0000
  H   H346      1.0  0.47769291715805823  0.054505704984463894  0.10690229246062666  1.0000
  H   H347      1.0  0.5021142646336443  0.07189252304719704  0.1331131971018047  1.0000
  H   H348      1.0  0.5200978145011323  0.05947500393417143  0.10106686192341674  1.0000
  N   N14       1.0  0.5753998506265312  0.08010875653180577  0.908458062140019  1.0000
  C   C341      1.0  0.5739497025698757  0.11018639968072226  0.8865041781945155  1.0000
  C   C342      1.0  0.6053702454500642  0.08167719308496132  0.9248442440667913  1.0000
  C   C343      1.0  0.5746809249101924  0.04718347706862702  0.8946762838877442  1.0000
  C   C344      1.0  0.5477036479629808  0.08142242133859268  0.9278292287059796  1.0000
  H   H349      1.0  0.5501797733163424  0.11222224944869143  0.8758346351758874  1.0000
  H   H350      1.0  0.5925398438224179  0.10818609439692824  0.8698291491019691  1.0000
  H   H351      1.0  0.5778173321782932  0.13530500051293706  0.8957695762510641  1.0000
  H   H352      1.0  0.6268103114495694  0.08143576584304806  0.910844270657004  1.0000
  H   H353      1.0  0.6065426357348541  0.10582411104213073  0.9360295365986099  1.0000
  H   H354      1.0  0.607559208907913  0.05902667356421273  0.9412356363803721  1.0000
  H   H355      1.0  0.5757294554950544  0.023836718760155123  0.9105025286805687  1.0000
  H   H356      1.0  0.5954703424811394  0.04527978078943606  0.8800836359790568  1.0000
  H   H357      1.0  0.5526669662801845  0.04542291491989636  0.8816267888776781  1.0000
  H   H358      1.0  0.5483746761762813  0.0595566693889316  0.9450342830132288  1.0000
  H   H359      1.0  0.5246441970968742  0.08014504085348352  0.9162010507960378  1.0000
  H   H360      1.0  0.5473753784023135  0.10619133106893795  0.9382128040503169  1.0000
  N   N15       1.0  0.6473755356524852  0.8516525104241197  0.39665710905402485  1.0000
  C   C345      1.0  0.6204871697912758  0.8400389268652864  0.3796072840183159  1.0000
  C   C346      1.0  0.6583792011935707  0.8222889041552142  0.4168829890019943  1.0000
  C   C347      1.0  0.6366112815039766  0.8808971813973125  0.4125382680208301  1.0000
  C   C348      1.0  0.6740409945055629  0.8634950279424898  0.37756276936892647  1.0000
  H   H361      1.0  0.6118051364427307  0.8616263841855956  0.36398765880251066  1.0000
  H   H362      1.0  0.5998058489431277  0.8312574561374602  0.39329732074602314  1.0000
  H   H363      1.0  0.6277561196283402  0.8179227276481398  0.36740135163188214  1.0000
  H   H364      1.0  0.6388702892058287  0.8124690363827143  0.43154918227640965  1.0000
  H   H365      1.0  0.6673085618821335  0.7999170516980482  0.40572978802140464  1.0000
  H   H366      1.0  0.6783248914015039  0.830452197510727  0.4302451316459764  1.0000
  H   H367      1.0  0.6170912491417943  0.8728135653176347  0.4277544095029437  1.0000
  H   H368      1.0  0.6274849420088207  0.9031612170976762  0.3979326810679263  1.0000
  H   H369      1.0  0.6565228182925064  0.8910619967937385  0.4249984627967441  1.0000
  H   H370      1.0  0.6946408315296019  0.8727402048052874  0.3897125969691163  1.0000
  H   H371      1.0  0.6664640216979005  0.8855748595606078  0.3619316210862997  1.0000
  H   H372      1.0  0.6829792674451213  0.8420799237724788  0.36535852376475414  1.0000
  N   N16       1.0  0.16366226094959146  0.1686582140417925  0.27896952851378615  1.0000
  C   C349      1.0  0.1619210883278055  0.2066918207570725  0.28153889333733556  1.0000
  C   C350      1.0  0.16064510715582103  0.1621911182236535  0.2487764178252302  1.0000
  C   C351      1.0  0.1372959478340683  0.15103856539331595  0.2954990138629412  1.0000
  C   C352      1.0  0.19472672710117767  0.15460934300632267  0.2900567111968343  1.0000
  H   H373      1.0  0.18139608714528843  0.2209749835668271  0.26934036110414583  1.0000
  H   H374      1.0  0.16379862430597414  0.2125051483296858  0.30409181191792706  1.0000
  H   H375      1.0  0.13866896963488018  0.21803947400788837  0.27339842431049394  1.0000
  H   H376      1.0  0.17995854515560383  0.1753317538724859  0.23555105506301766  1.0000
  H   H377      1.0  0.1621709579640378  0.13375935904605551  0.2460915879652479  1.0000
  H   H378      1.0  0.13729883700406886  0.17186814654568683  0.23973929851145756  1.0000
  H   H379      1.0  0.11353619812393778  0.16160847439756965  0.2881266773317855  1.0000
  H   H380      1.0  0.1391087670612534  0.1546782961125932  0.3184943117302259  1.0000
  H   H381      1.0  0.13708055993847124  0.12240388824748072  0.29341950320413995  1.0000
  H   H382      1.0  0.21520237104367368  0.1670970530468081  0.27790822885513417  1.0000
  H   H383      1.0  0.19662014646980874  0.1258978096042993  0.2884514381702754  1.0000
  H   H384      1.0  0.19797203975871036  0.15901441419839468  0.3127939917774416  1.0000
  N   N17       1.0  0.5082188210613175  0.30951602549538376  0.8631725567499067  1.0000
  C   C353      1.0  0.47744133621922596  0.2946332063880622  0.8738635113859115  1.0000
  C   C354      1.0  0.5161549864642062  0.3401355787865957  0.8784462022959687  1.0000
  C   C355      1.0  0.5055356379619674  0.3204562205182835  0.8324322092952948  1.0000
  C   C356      1.0  0.5336899495842979  0.28274885947893574  0.8679719613275023  1.0000
  H   H385      1.0  0.47045380465505615  0.2717865177727616  0.8624989138342872  1.0000
  H   H386      1.0  0.4575811072504911  0.31409047813069174  0.8709254139539385  1.0000
  H   H387      1.0  0.478714297437298  0.28549888559758835  0.8969023632836879  1.0000
  H   H388      1.0  0.5393023089917645  0.3519908644661876  0.8709560787836065  1.0000
  H   H389      1.0  0.49733500984910234  0.36080441677685293  0.875151543599963  1.0000
  H   H390      1.0  0.5182293990097884  0.3327513657242629  0.9017369530507812  1.0000
  H   H391      1.0  0.5282509374507173  0.3319646889713348  0.8235762555923385  1.0000
  H   H392      1.0  0.4863548039949651  0.34047609806120843  0.8279813979307925  1.0000
  H   H393      1.0  0.49966327265939586  0.29790973294379713  0.8202722690033863  1.0000
  H   H394      1.0  0.5363962146112066  0.2738089800303731  0.8909762750225457  1.0000
  H   H395      1.0  0.5573156568057512  0.2927796388820584  0.8600523574389823  1.0000
  H   H396      1.0  0.5282085289829384  0.25910996623137544  0.8569426616278106  1.0000
  N   N18       1.0  0.8017928988709553  0.6389529513594899  0.7924409541382171  1.0000
  C   C357      1.0  0.7927842015284607  0.6348817096105288  0.8228015677218457  1.0000
  C   C358      1.0  0.7766902273600955  0.6591063225092078  0.775894724945661  1.0000
  C   C359      1.0  0.8049369851873579  0.6040711525842096  0.7820698931058653  1.0000
  C   C360      1.0  0.8326757724593374  0.657556489397463  0.7888613302281048  1.0000
  H   H397      1.0  0.8111077934718818  0.6193531016747515  0.8357466824260056  1.0000
  H   H398      1.0  0.7695245384680669  0.6209688818215968  0.8260612880785416  1.0000
  H   H399      1.0  0.7904786854645436  0.6606514755209294  0.8315092223088303  1.0000
  H   H400      1.0  0.7829910007121991  0.6628939532411952  0.7529296720804385  1.0000
  H   H401      1.0  0.7532428810355782  0.6452757740040144  0.7775322285149161  1.0000
  H   H402      1.0  0.7730926059393632  0.6854035254265755  0.7833869959404393  1.0000
  H   H403      1.0  0.8128984651563022  0.6061172450613215  0.759579607612652  1.0000
  H   H404      1.0  0.7818468669347525  0.5896317062201779  0.7836759785844919  1.0000
  H   H405      1.0  0.8228328838873936  0.5875370901165705  0.7944273617084827  1.0000
  H   H406      1.0  0.8521268228301215  0.6430494181395324  0.8010883339537588  1.0000
  H   H407      1.0  0.83122314036471  0.6840679653288229  0.7963795131839991  1.0000
  H   H408      1.0  0.8403170956348912  0.6605425986117404  0.7661798272704787  1.0000
  N   N19       1.0  0.19842644506589693  0.5984311003832037  0.3631417198916673  1.0000
  C   C361      1.0  0.20748813731857296  0.6048453528523073  0.39235921946565255  1.0000
  C   C362      1.0  0.21189735438306778  0.5644980041410534  0.3565473796570824  1.0000
  C   C363      1.0  0.21114581537817811  0.6267336736752288  0.3429331967424542  1.0000
  C   C364      1.0  0.16314193298285687  0.5976654124020881  0.3607711099670851  1.0000
  H   H409      1.0  0.19790027146130376  0.5840895117071081  0.4080984422936879  1.0000
  H   H410      1.0  0.19840702660312506  0.6306028705032013  0.39795636004234947  1.0000
  H   H411      1.0  0.23403047624123763  0.6049551536847808  0.3950536117865569  1.0000
  H   H412      1.0  0.20623454496561588  0.5591188405003068  0.3344165512652261  1.0000
  H   H413      1.0  0.23845403746983806  0.563827409964058  0.35906312848849786  1.0000
  H   H414      1.0  0.2020956257956038  0.5425347312451485  0.3710411066113948  1.0000
  H   H415      1.0  0.20495231774439607  0.6228280668951122  0.32058186010810125  1.0000
  H   H416      1.0  0.23769045964921587  0.6287238381645182  0.3444489224300651  1.0000
  H   H417      1.0  0.20108993892504484  0.6525402346812843  0.34724983309219953  1.0000
  H   H418      1.0  0.1524975206478799  0.5766666232010528  0.37574888513731264  1.0000
  H   H419      1.0  0.1555529656733924  0.5929432836481708  0.3389219214552301  1.0000
  H   H420      1.0  0.15213140451985274  0.6229266014561381  0.36544973304208067  1.0000
  N   N20       1.0  0.014772340020434704  0.4059640099885668  0.7634703669185575  1.0000
  C   C365      1.0  0.008787106413560952  0.4440964571126  0.7597644370952663  1.0000
  C   C366      1.0  0.016311143006333406  0.3939618713941661  0.7940933407637719  1.0000
  C   C367      1.0  0.045493216541015125  0.39807940930569874  0.7498344501065979  1.0000
  C   C368      1.0  0.9885455443695901  0.38764249978564336  0.750167859745287  1.0000
  H   H421      1.0  0.007358503314853104  0.45394436865963367  0.7368735810081309  1.0000
  H   H422      1.0  0.02832654518239197  0.45877822662905854  0.7692683643886766  1.0000
  H   H423      1.0  0.9857931332677814  0.4510592448420925  0.7697714045563997  1.0000
  H   H424      1.0  0.02098590277246659  0.3653005113459553  0.7975738668317954  1.0000
  H   H425      1.0  0.03603457031128987  0.4070193606102309  0.8047933798765207  1.0000
  H   H426      1.0  0.9934939482497602  0.39932014572829955  0.8051052062305853  1.0000
  H   H427      1.0  0.051225345316163295  0.3696152327442796  0.75266341784198  1.0000
  H   H428      1.0  0.0656850247067231  0.4117881825389178  0.7591558152130065  1.0000
  H   H429      1.0  0.045292687157696854  0.4067568796083617  0.7266722127128578  1.0000
  H   H430      1.0  0.9926667977341217  0.35887588132828685  0.7520457410565389  1.0000
  H   H431      1.0  0.9860659484640942  0.39681801665726596  0.7272154668311194  1.0000
  H   H432      1.0  0.9651121406155609  0.39233377138350534  0.7604005700378256  1.0000
  N   N21       1.0  0.3249848823877252  0.33424318649412704  0.7797260979031615  1.0000
  C   C369      1.0  0.2946017205339622  0.338595082733002  0.7636789864451176  1.0000
  C   C370      1.0  0.321864526523524  0.30528127642393166  0.8025316404945901  1.0000
  C   C371      1.0  0.33221035696415924  0.36697843759276605  0.7924041636625601  1.0000
  C   C372      1.0  0.3512154269418881  0.32626336483355295  0.7602944038501878  1.0000
  H   H433      1.0  0.2960707298578125  0.3603608180537244  0.7463631306229073  1.0000
  H   H434      1.0  0.274289562649389  0.34498380736652867  0.7776292920530042  1.0000
  H   H435      1.0  0.288132677603325  0.31445530049712866  0.7538107650646166  1.0000
  H   H436      1.0  0.3165854521635482  0.2800788691583171  0.7937499807197866  1.0000
  H   H437      1.0  0.3443475887407998  0.3013726600251712  0.8151712248323726  1.0000
  H   H438      1.0  0.3022917461213583  0.31044700561628535  0.8175983177642725  1.0000
  H   H439      1.0  0.3545678657210524  0.36474266376202696  0.8051001297320469  1.0000
  H   H440      1.0  0.3126802185463444  0.37410031413641914  0.8068134767351643  1.0000
  H   H441      1.0  0.33542270402860286  0.38919900950938846  0.7757808446631035  1.0000
  H   H442      1.0  0.34622892356497953  0.30216106479858484  0.7497998700905039  1.0000
  H   H443      1.0  0.3742985637358821  0.32193064988302517  0.7718611580118101  1.0000
  H   H444      1.0  0.35498537763672056  0.3480765186888417  0.7433448904109317  1.0000
  N   N22       1.0  0.715945697037194  0.3068721327711769  0.318163103770265  1.0000
  C   C373      1.0  0.7004126702497158  0.33847184342433645  0.30380271203704823  1.0000
  C   C374      1.0  0.7070031731592069  0.3028391862356376  0.34855076575013455  1.0000
  C   C375      1.0  0.7511148835626852  0.3100364190472397  0.31549547703324743  1.0000
  C   C376      1.0  0.7052936873016448  0.27587919342566486  0.30465322615150153  1.0000
  H   H445      1.0  0.7074535389565898  0.3624669658164133  0.31360881331327617  1.0000
  H   H446      1.0  0.6738189242186747  0.33658090626091147  0.304811582661874  1.0000
  H   H447      1.0  0.7069073024081127  0.34223802311657386  0.28082937843549605  1.0000
  H   H448      1.0  0.7182245741295268  0.2790283734860045  0.3598201021116686  1.0000
  H   H449      1.0  0.7143019315172073  0.3258641680767789  0.35953292553277993  1.0000
  H   H450      1.0  0.6807057045849663  0.2997039843095682  0.35131892957409655  1.0000
  H   H451      1.0  0.7634344503244732  0.28584662265820643  0.324948329364947  1.0000
  H   H452      1.0  0.7602054811346716  0.33246106185757407  0.32632948370706966  1.0000
  H   H453      1.0  0.7585312264613675  0.3142831809383454  0.29280193778342317  1.0000
  H   H454      1.0  0.7154773669519641  0.2512977929365643  0.3155393165758868  1.0000
  H   H455      1.0  0.7126755019110008  0.2776268643562843  0.2819983388003724  1.0000
  H   H456      1.0  0.6787641011451517  0.2732466627164957  0.3055218597355434  1.0000
  N   N23       1.0  0.8557021359369622  0.1349550927898242  0.33819008861066274  1.0000
  C   C377      1.0  0.8356894559809384  0.10612849539662722  0.32960967126000934  1.0000
  C   C378      1.0  0.8369336621263875  0.1678275882376489  0.3354116726646054  1.0000
  C   C379      1.0  0.8843122210515397  0.13895132356599363  0.3197256409842528  1.0000
  C   C380      1.0  0.8658430880869484  0.1270159374801334  0.36806550840843577  1.0000
  H   H457      1.0  0.8490490796640011  0.08088248712433006  0.33120331355965066  1.0000
  H   H458      1.0  0.8272049394097661  0.11154271134350499  0.30729475135801815  1.0000
  H   H459      1.0  0.8140229040398834  0.10224744269689891  0.3432862794582924  1.0000
  H   H460      1.0  0.8154078315689175  0.1660406883641628  0.3493955780639171  1.0000
  H   H461      1.0  0.851430689134768  0.19037540656090168  0.3411133133825321  1.0000
  H   H462      1.0  0.8282220879827608  0.17424625295964455  0.31325334742446775  1.0000
  H   H463      1.0  0.8999985384619782  0.16044088658518027  0.3257306119687172  1.0000
  H   H464      1.0  0.8776483521558072  0.14542806309829628  0.2970201186406751  1.0000
  H   H465      1.0  0.8991075150493849  0.11468662596790623  0.32113729301272276  1.0000
  H   H466      1.0  0.8800708588727487  0.10234528213418  0.3709730773149315  1.0000
  H   H467      1.0  0.8447871959278155  0.12392618150942339  0.3825731169155903  1.0000
  H   H468      1.0  0.8809877145383159  0.14833057690445683  0.37517093578424987  1.0000
  N   N24       1.0  0.27286918192623044  0.9698376174020095  0.99932312369562  1.0000
  C   C381      1.0  0.240683869456139  0.9815665206910398  0.9892977556813114  1.0000
  C   C382      1.0  0.2702883748094419  0.9513910077799601  0.02815108670716282  1.0000
  C   C383      1.0  0.294106491703018  0.00039899219501871025  0.00012042364095554703  1.0000
  C   C384      1.0  0.28632200389222834  0.9458863925842297  0.9796593047028629  1.0000
  H   H469      1.0  0.2242073142157471  0.9588936900867322  0.9883517431473297  1.0000
  H   H470      1.0  0.2417632714519342  0.9955251340432256  0.9675671520085118  1.0000
  H   H471      1.0  0.2295772806959044  0.9994898433746494  0.0036637584713001825  1.0000
  H   H472      1.0  0.29369400074854013  0.9398517095925562  0.035668174915833184  1.0000
  H   H473      1.0  0.2620000211431313  0.969131800138679  0.0439219051458255  1.0000
  H   H474      1.0  0.2528283159730618  0.9296392129896146  0.02858020718903087  1.0000
  H   H475      1.0  0.29725888593103705  0.014500966943847393  0.9785877947324665  1.0000
  H   H476      1.0  0.3184459264407912  0.9922776583760523  0.007845126542892045  1.0000
  H   H477      1.0  0.28456335633797  0.01937078568409456  0.014377723286690847  1.0000
  H   H478      1.0  0.309695789891754  0.9345633667351361  0.9874297285697742  1.0000
  H   H479      1.0  0.29066146547701405  0.9595562008228095  0.9581663405315158  1.0000
  H   H480      1.0  0.2697832918712615  0.9238225672406386  0.9769900013145619  1.0000
  N   N25       1.0  0.11137290583921056  0.4615527051263967  0.5378967988770568  1.0000
  C   C385      1.0  0.10635937429057818  0.4791798981411447  0.5090617311146994  1.0000
  C   C386      1.0  0.10481028188970898  0.4863274033395972  0.5592780099091816  1.0000
  C   C387      1.0  0.14491246807969915  0.44917888150681157  0.5406404132612419  1.0000
  C   C388      1.0  0.0893759422390088  0.43149483439298447  0.5424798327208834  1.0000
  H   H481      1.0  0.10950378908779035  0.46062966194697536  0.4926016377736838  1.0000
  H   H482      1.0  0.1235209993205042  0.5009080604481735  0.5040848241077924  1.0000
  H   H483      1.0  0.08183310409023647  0.490388943403739  0.5065630221411506  1.0000
  H   H484      1.0  0.10731365000783222  0.47352871679131275  0.5812912833529172  1.0000
  H   H485      1.0  0.12175895259455749  0.5087006429285315  0.557116642722484  1.0000
  H   H486      1.0  0.08009293432836473  0.4973239985704121  0.5570037623844816  1.0000
  H   H487      1.0  0.16199380244796324  0.4714299966075283  0.5370771104342327  1.0000
  H   H488      1.0  0.1506183733523947  0.43050795790250745  0.524725245285939  1.0000
  H   H489      1.0  0.14971787702508288  0.4358252333275777  0.5621556152932324  1.0000
  H   H490      1.0  0.09321693183659963  0.41253403280114354  0.5263725912821249  1.0000
  H   H491      1.0  0.06388945133606971  0.44014135499783774  0.5404788555137255  1.0000
  H   H492      1.0  0.09255614506884835  0.4172111217158474  0.5638893580186669  1.0000
  N   N26       1.0  0.06515381067951106  0.4967116430610005  0.8925772110763339  1.0000
  C   C389      1.0  0.058791673023889  0.5099385903344849  0.8626883975416241  1.0000
  C   C390      1.0  0.09369301958399777  0.4736850159330966  0.8939793513199433  1.0000
  C   C391      1.0  0.03724779606236561  0.4766619814910546  0.9042993115335384  1.0000
  C   C392      1.0  0.07082406827453118  0.5265106832626957  0.9094282508415338  1.0000
  H   H493      1.0  0.07946659584691781  0.5250933402421176  0.8532346111211853  1.0000
  H   H494      1.0  0.037517505096857695  0.5276068335822566  0.8608896863037503  1.0000
  H   H495      1.0  0.05441934989659603  0.48814324921493923  0.8493073822618962  1.0000
  H   H496      1.0  0.09776025582752253  0.46109515414030705  0.9159145910080293  1.0000
  H   H497      1.0  0.09117013763877627  0.45243108486777767  0.879754055122675  1.0000
  H   H498      1.0  0.11571128654227489  0.4883865649674911  0.8873031399527458  1.0000
  H   H499      1.0  0.04117091036095055  0.46664104249613797  0.9269622528004026  1.0000
  H   H500      1.0  0.0327292024020891  0.45348902105896793  0.8924621674276033  1.0000
  H   H501      1.0  0.015136794935993958  0.49306444169605007  0.9035728433203579  1.0000
  H   H502      1.0  0.07575619364454055  0.5175631550608866  0.9321100660863615  1.0000
  H   H503      1.0  0.04968610988205076  0.5443320531345617  0.9088654001911306  1.0000
  H   H504      1.0  0.09161191807487389  0.5424117881951365  0.9012947863128394  1.0000
  N   N27       1.0  0.11781824384320046  0.8876382453034151  0.3367106158011677  1.0000
  C   C393      1.0  0.11046085763949925  0.8690364109437951  0.31157110364274176  1.0000
  C   C394      1.0  0.11530291168944622  0.8630737711414379  0.3626671727917662  1.0000
  C   C395      1.0  0.09481118452043948  0.9167436453287854  0.33830458220733434  1.0000
  C   C396      1.0  0.15071508030871467  0.9016787885651887  0.33427475409454666  1.0000
  H   H505      1.0  0.11220945229005932  0.8866595733631079  0.2915036090560025  1.0000
  H   H506      1.0  0.08596090658003402  0.8576905348069738  0.31275693265072985  1.0000
  H   H507      1.0  0.12745491639145204  0.8470564201229479  0.30960092365319747  1.0000
  H   H508      1.0  0.12040801565275298  0.8761156823028555  0.3821639338561648  1.0000
  H   H509      1.0  0.0909611025280127  0.8513749524755885  0.36502515920199424  1.0000
  H   H510      1.0  0.13257760396123736  0.840934014091264  0.3622510755277941  1.0000
  H   H511      1.0  0.06973688746192762  0.9070234789044788  0.34012764594259576  1.0000
  H   H512      1.0  0.09623086635064747  0.9357548357181805  0.31900040998221624  1.0000
  H   H513      1.0  0.09966062090730365  0.9313647545346689  0.3570454704015732  1.0000
  H   H514      1.0  0.1536463194956491  0.9200973108427418  0.31475436881476426  1.0000
  H   H515      1.0  0.16870931083658633  0.8803412528979524  0.3332346295171164  1.0000
  H   H516      1.0  0.157100117379634  0.9161139174777843  0.3527550485494139  1.0000
  N   N28       1.0  0.5196531188719848  0.29728568388851223  0.45705301509614066  1.0000
  C   C397      1.0  0.4902383810871486  0.28219331670628367  0.4705055620850082  1.0000
  C   C398      1.0  0.5141487836419446  0.30507183625606366  0.42623162874866793  1.0000
  C   C399      1.0  0.5463957294781853  0.27198934322705537  0.4616624855793622  1.0000
  C   C400      1.0  0.5278909586956958  0.3298568354296361  0.46967331346589913  1.0000
  H   H517      1.0  0.4697499241314151  0.30087211436088823  0.4674867614326111  1.0000
  H   H518      1.0  0.49354154820562723  0.27563525613719364  0.49376730650254536  1.0000
  H   H519      1.0  0.48325169817101593  0.25777709043145636  0.4611814960190194  1.0000
  H   H520      1.0  0.5359669250524778  0.3162291516957605  0.41547276801605726  1.0000
  H   H521      1.0  0.5078255821621885  0.28110484712980327  0.4159562403989206  1.0000
  H   H522      1.0  0.4944297962532669  0.324433086372559  0.42177925944826783  1.0000
  H   H523      1.0  0.5510754165061721  0.2651111586344682  0.4846865417133264  1.0000
  H   H524      1.0  0.5690149577191583  0.2829652307340936  0.4519823432972143  1.0000
  H   H525      1.0  0.5413403239602933  0.2473537471678185  0.4518571929618748  1.0000
  H   H526      1.0  0.5510356586568457  0.34071148962698344  0.46118769064745135  1.0000
  H   H527      1.0  0.5305045714728158  0.3253941587284094  0.493149937164647  1.0000
  H   H528      1.0  0.5093597206885364  0.350593442737444  0.46495229451579617  1.0000
  N   N29       1.0  0.013816165446821405  0.10098979159781396  0.1593181592371846  1.0000
  C   C401      1.0  0.021076063057668515  0.12662736728506907  0.17974070329241668  1.0000
  C   C402      1.0  0.021662010038633106  0.11622551135747972  0.13026194179836842  1.0000
  C   C403      1.0  0.9793633327654668  0.09221685288553338  0.16096693124563444  1.0000
  C   C404      1.0  0.033228790997374524  0.0690175689512138  0.16626675313682335  1.0000
  H   H529      1.0  0.04572301904257259  0.13713568724152148  0.17669206414945193  1.0000
  H   H530      1.0  0.01878571625704395  0.11500802168029067  0.202156214710191  1.0000
  H   H531      1.0  0.004578075973686646  0.14939850719553882  0.17705856172159937  1.0000
  H   H532      1.0  0.04748208328641801  0.12308746752081445  0.12820663068041202  1.0000
  H   H533      1.0  0.01630737542590399  0.09761405036138981  0.11426837321639258  1.0000
  H   H534      1.0  0.007642259660410211  0.14055577036091815  0.12445351218421234  1.0000
  H   H535      1.0  0.9731001308897467  0.07240147602821545  0.14622024580882148  1.0000
  H   H536      1.0  0.9640777330945793  0.11568425365568324  0.15511850113468975  1.0000
  H   H537      1.0  0.9724568941769248  0.08147250204749446  0.18279755453008403  1.0000
  H   H538      1.0  0.028662778873350003  0.04932388145494726  0.15091800712926065  1.0000
  H   H539      1.0  0.02759431264136003  0.05652243175591143  0.1879150690488607  1.0000
  H   H540      1.0  0.05932926492948698  0.07498735939247525  0.16577192820234898  1.0000
  N   N30       1.0  0.5699258236249034  0.6562903952912389  0.5190194835563484  1.0000
  C   C405      1.0  0.5466932707026003  0.6322967805580905  0.5075621205498839  1.0000
  C   C406      1.0  0.5836917975737856  0.6796779140184677  0.4954865126931899  1.0000
  C   C407      1.0  0.5959596299670278  0.6357761162741428  0.5339076645095585  1.0000
  C   C408      1.0  0.5535195809009273  0.6774697525105827  0.53918961694982  1.0000
  H   H541      1.0  0.5264435583210294  0.6467660661183192  0.49643357043674485  1.0000
  H   H542      1.0  0.5360808595481116  0.613944808494427  0.5246786403959904  1.0000
  H   H543      1.0  0.5582084338327746  0.616112757239646  0.4920961070273127  1.0000
  H   H544      1.0  0.6016537031495597  0.6977984357012553  0.5034095083501094  1.0000
  H   H545      1.0  0.59617905621731  0.6645287791177593  0.47979685382064935  1.0000
  H   H546      1.0  0.5648519717765832  0.6957668869107424  0.48378695599239196  1.0000
  H   H547      1.0  0.6133468896721606  0.6530498327362644  0.5435838814490337  1.0000
  H   H548      1.0  0.6096130771278893  0.6206878137875375  0.5190009425093681  1.0000
  H   H549      1.0  0.5865024884165775  0.6165952202454785  0.5509811483018157  1.0000
  H   H550      1.0  0.5430511185385983  0.6605983528237908  0.5572987035821345  1.0000
  H   H551      1.0  0.5336096079337906  0.6931740166626559  0.5286830350801193  1.0000
  H   H552      1.0  0.5704062431449571  0.6960138339706505  0.5480833494868351  1.0000
  N   N31       1.0  0.9093544737315766  0.5969258126204191  0.6118697202721147  1.0000
  C   C409      1.0  0.92079435228566  0.5769878334709285  0.588543019262552  1.0000
  C   C410      1.0  0.8739357686737889  0.5977947668660876  0.6119717699390115  1.0000
  C   C411      1.0  0.9216810688918735  0.6330699941936003  0.6076480222896378  1.0000
  C   C412      1.0  0.9209534611045866  0.5799280718002264  0.6393882075665749  1.0000
  H   H553      1.0  0.912650454050839  0.5891259203588783  0.5674078879250765  1.0000
  H   H554      1.0  0.9119263304131543  0.5495889763382755  0.5908769743705562  1.0000
  H   H555      1.0  0.9474495774310538  0.5757178871688694  0.5877909651161508  1.0000
  H   H556      1.0  0.864305535635684  0.6107772933944209  0.5916605342598626  1.0000
  H   H557      1.0  0.8637826312022618  0.5709578696780121  0.6150099577656005  1.0000
  H   H558      1.0  0.8645521254908529  0.6123343125331282  0.629540344245394  1.0000
  H   H559      1.0  0.9483482080669557  0.6335123451818646  0.6078230607198597  1.0000
  H   H560      1.0  0.9131076764555498  0.6490505997381391  0.6245865223261106  1.0000
  H   H561      1.0  0.9137559301916338  0.646574110789268  0.5869140044893508  1.0000
  H   H562      1.0  0.9476045184972951  0.578721042271585  0.6401267598897694  1.0000
  H   H563      1.0  0.9118720802181071  0.5526961253588853  0.64341651430638  1.0000
  H   H564      1.0  0.9127192318777886  0.594342920503801  0.6574463191993616  1.0000
  N   N32       1.0  0.5402981596613133  0.5043175993230985  0.6620065581795935  1.0000
  C   C413      1.0  0.545771982291516  0.5101136593224458  0.6310126393974318  1.0000
  C   C414      1.0  0.5100250131428596  0.521481219882517  0.6692154408344683  1.0000
  C   C415      1.0  0.5670464927859689  0.5193372357817048  0.6772134292939846  1.0000
  C   C416      1.0  0.5382072907990791  0.4663548710780722  0.6705975006342605  1.0000
  H   H565      1.0  0.568136969122204  0.4970296627724652  0.6246294992685147  1.0000
  H   H566      1.0  0.5476004703197496  0.5384448621979688  0.6237128243860128  1.0000
  H   H567      1.0  0.5257842329930374  0.49935546705320105  0.6189762128146744  1.0000
  H   H568      1.0  0.5050434486106187  0.5176351026784897  0.6924168965565737  1.0000
  H   H569      1.0  0.5105523909094695  0.5501226789391432  0.6628515310088612  1.0000
  H   H570      1.0  0.48937781538307706  0.5106085051358082  0.6583057172404791  1.0000
  H   H571      1.0  0.5634870434514344  0.5155111152091288  0.7006633854407327  1.0000
  H   H572      1.0  0.5691842742186085  0.5480171141306306  0.6712562127059346  1.0000
  H   H573      1.0  0.5903422682137706  0.5070574245080993  0.6723265679679395  1.0000
  H   H574      1.0  0.5608840141220596  0.4526029880801849  0.6660469298333239  1.0000
  H   H575      1.0  0.518840891199389  0.45410030736101853  0.6588329378634963  1.0000
  H   H576      1.0  0.5329377225639638  0.4609567031748066  0.6936949881128952  1.0000
  N   N33       1.0  0.44129289191467314  0.004258614992941334  0.8955194186730115  1.0000
  C   C417      1.0  0.41313124039034554  0.980977174002332  0.8973421056735835  1.0000
  C   C418      1.0  0.46781470140630155  0.9875304449607736  0.8810176552855312  1.0000
  C   C419      1.0  0.45156941040980864  0.010897881934488263  0.924404138521772  1.0000
  C   C420      1.0  0.4326719663917188  0.03774378221888175  0.8792768246721892  1.0000
  H   H577      1.0  0.40665501239885593  0.9726329722880469  0.8761899307068297  1.0000
  H   H578      1.0  0.3917508362099818  0.9941534757808418  0.9054968906241642  1.0000
  H   H579      1.0  0.41748033962876363  0.9570483318474816  0.912020763605285  1.0000
  H   H580      1.0  0.4755822974060335  0.9627130051952499  0.8931711037790976  1.0000
  H   H581      1.0  0.4605866526660322  0.9809033455243716  0.8594965403204454  1.0000
  H   H582      1.0  0.4890173489694098  0.004925064278984648  0.8781120708018233  1.0000
  H   H583      1.0  0.45762549494630145  0.9860848863668012  0.9374796770765238  1.0000
  H   H584      1.0  0.43227826325062163  0.023955820942897832  0.9357349890830692  1.0000
  H   H585      1.0  0.4727976409307477  0.028303913323507235  0.9237392687381005  1.0000
  H   H586      1.0  0.4246657401507497  0.03381927292136089  0.8573565340887515  1.0000
  H   H587      1.0  0.4533222099576615  0.055989035390263675  0.8774126016552581  1.0000
  H   H588      1.0  0.41286817214538796  0.051366997759886734  0.889542652450211  1.0000
  N   N34       1.0  0.5381696187812801  0.030955642147908025  0.3535335224272477  1.0000
  C   C421      1.0  0.5228475979604982  0.05532845882352988  0.3718678114910273  1.0000
  C   C422      1.0  0.5589227100876187  0.05086255272325757  0.33247328543747195  1.0000
  C   C423      1.0  0.513297633714933  0.012397955415384798  0.33867616561698505  1.0000
  C   C424      1.0  0.5577507724288857  0.005156796420032972  0.371190767779855  1.0000
  H   H589      1.0  0.5410545488486803  0.06994153799445302  0.3832022370828643  1.0000
  H   H590      1.0  0.5072086565230992  0.04128871434511794  0.3882007034432998  1.0000
  H   H591      1.0  0.5077014112026923  0.07505274564517461  0.3592584118355013  1.0000
  H   H592      1.0  0.5447661415546668  0.07049118327733361  0.31875840930499605  1.0000
  H   H593      1.0  0.5778723774599268  0.06513227854153092  0.3431842591060422  1.0000
  H   H594      1.0  0.5710767561974721  0.03329034067373082  0.31837390301555835  1.0000
  H   H595      1.0  0.4979480784210394  0.03091648870618946  0.32514862460595917  1.0000
  H   H596      1.0  0.497225306562211  0.9971358672887097  0.353948187187456  1.0000
  H   H597      1.0  0.5241189455731818  0.9940478035401634  0.3245285210674495  1.0000
  H   H598      1.0  0.5700331012042332  0.9866792230852873  0.3580096210226239  1.0000
  H   H599      1.0  0.5429553374873701  0.9895077297367465  0.38727484094992254  1.0000
  H   H600      1.0  0.5765636813351374  0.018245914774780436  0.38287028514300836  1.0000
  N   N35       1.0  0.5267806860627919  0.6481196334652154  0.7993623723607648  1.0000
  C   C425      1.0  0.5080482567146887  0.6154331765880321  0.8029365718980258  1.0000
  C   C426      1.0  0.5502327984067132  0.6461105071018786  0.7761569623890253  1.0000
  C   C427      1.0  0.5439476106678898  0.6527599945339968  0.8260593502212237  1.0000
  C   C428      1.0  0.5050170085087706  0.678147629219305  0.7922570123083204  1.0000
  H   H601      1.0  0.49514483572617507  0.6106998586394451  0.783073087479803  1.0000
  H   H602      1.0  0.4898620214518213  0.6159256851229193  0.8200979059820815  1.0000
  H   H603      1.0  0.5237756758090044  0.592256680910928  0.8084994354601681  1.0000
  H   H604      1.0  0.5651689781152733  0.6701111342077085  0.7730861217173317  1.0000
  H   H605      1.0  0.5667803700148104  0.6234993277748341  0.7807395589597519  1.0000
  H   H606      1.0  0.5382123456837984  0.6428612541432088  0.7555727690012266  1.0000
  H   H607      1.0  0.5613741927561043  0.6310866752152584  0.8314833656536104  1.0000
  H   H608      1.0  0.5270936089249977  0.6534751314502572  0.8442350128817655  1.0000
  H   H609      1.0  0.5577752269711278  0.6775850688554103  0.8243135865602224  1.0000
  H   H610      1.0  0.518551253528766  0.7031719952580879  0.7892745994642698  1.0000
  H   H611      1.0  0.4870428792898864  0.6805871512621284  0.8093647187677145  1.0000
  H   H612      1.0  0.4916936357144954  0.6753458693268848  0.772207711409413  1.0000
  N   N36       1.0  0.5102968979766462  0.25066283647627396  0.2544738159531699  1.0000
  C   C429      1.0  0.5052999526131984  0.2789593371220449  0.23138957697061785  1.0000
  C   C430      1.0  0.4990661223720771  0.2624319009104483  0.2816698433814641  1.0000
  C   C431      1.0  0.5447789013361425  0.2420181074307175  0.2565313393112315  1.0000
  C   C432      1.0  0.49225695026160426  0.2192944906206724  0.24822363575048828  1.0000
  H   H613      1.0  0.513620293237021  0.27090418957943885  0.2105806539656079  1.0000
  H   H614      1.0  0.5189592278241716  0.30287042081100757  0.23542970975259506  1.0000
  H   H615      1.0  0.4795856184807858  0.2864472631513719  0.2292200403488099  1.0000
  H   H616      1.0  0.5027556467415176  0.24187742001940826  0.29964226252700515  1.0000
  H   H617      1.0  0.5121440350706827  0.2862133353706695  0.2869032730248892  1.0000
  H   H618      1.0  0.4730774341468765  0.26898781193706656  0.2809500610713678  1.0000
  H   H619      1.0  0.5544519177776442  0.23495861850961264  0.23597034349481008  1.0000
  H   H620      1.0  0.5494766674683671  0.21970920339063693  0.2728071277592627  1.0000
  H   H621      1.0  0.5589147172102655  0.2647916665662178  0.2620352414615852  1.0000
  H   H622      1.0  0.4954188231504017  0.19749017920542  0.2653392622221985  1.0000
  H   H623      1.0  0.5004935782861225  0.209615442039498  0.22796032571196004  1.0000
  H   H624      1.0  0.4661206106736077  0.22481405293837042  0.2462457175543664  1.0000
  N   N37       1.0  0.6582061849699504  0.0433773179233683  0.15161963188591174  1.0000
  C   C433      1.0  0.6276222754686294  0.024857174886366185  0.14839202854567712  1.0000
  C   C434      1.0  0.682634312015001  0.030055562398797253  0.13269002291544263  1.0000
  C   C435      1.0  0.6691384090663864  0.037273501031158895  0.18141921527237875  1.0000
  C   C436      1.0  0.6534912711627967  0.0813293806174904  0.1440917383580056  1.0000
  H   H625      1.0  0.6086717751922669  0.03416198872704079  0.16252886621569704  1.0000
  H   H626      1.0  0.6303011242365895  0.9961804402290435  0.1540184362703482  1.0000
  H   H627      1.0  0.6185685512828961  0.028729752630671568  0.1261827649063872  1.0000
  H   H628      1.0  0.7057220573601496  0.04422653227122031  0.13401237142048963  1.0000
  H   H629      1.0  0.6873201877539785  0.0016653850642938117  0.13812674459759114  1.0000
  H   H630      1.0  0.6748544973169024  0.03366682264568621  0.11007602291472508  1.0000
  H   H631      1.0  0.6723336706357492  0.008894199709884809  0.1881227523225873  1.0000
  H   H632      1.0  0.6513970928364684  0.047398089309524716  0.19617297927223823  1.0000
  H   H633      1.0  0.6922639668174208  0.050645000117683914  0.18466126256900955  1.0000
  H   H634      1.0  0.6751659622481673  0.09656019586312059  0.14889248283259934  1.0000
  H   H635      1.0  0.6328634892733785  0.09152935983346677  0.15573904379133816  1.0000
  H   H636      1.0  0.6486565884075113  0.08751182191636886  0.1211078761782006  1.0000
  N   N38       1.0  0.6295203318169135  0.8298000294610227  0.6838341700047279  1.0000
  C   C437      1.0  0.6380400086869732  0.8569610355820905  0.7026101387097915  1.0000
  C   C438      1.0  0.5977310221183805  0.8378838759466363  0.6710181809866839  1.0000
  C   C439      1.0  0.6284733815916848  0.7953091360362023  0.7006087750793094  1.0000
  C   C440      1.0  0.6537822607264446  0.8289545168027569  0.6610936753096888  1.0000
  H   H637      1.0  0.6621041808030569  0.8519853307486971  0.7123292259150374  1.0000
  H   H638      1.0  0.6205117482654586  0.8579026504079752  0.7203372316511274  1.0000
  H   H639      1.0  0.6385030593290845  0.883464614361831  0.6908130109908515  1.0000
  H   H640      1.0  0.5977028637299064  0.8636341340299324  0.6579962918346972  1.0000
  H   H641      1.0  0.5904476539076464  0.8177117210285498  0.6568985290214127  1.0000
  H   H642      1.0  0.5789163921097157  0.8389603391157434  0.6876447505766161  1.0000
  H   H643      1.0  0.6226804361926936  0.7741474570081845  0.6869636420904744  1.0000
  H   H644      1.0  0.6102013228080019  0.7947277095527608  0.7178186435592491  1.0000
  H   H645      1.0  0.6520227939528025  0.7884467160185462  0.7107793624662937  1.0000
  H   H646      1.0  0.6475752214206679  0.809389086307275  0.6460912476614031  1.0000
  H   H647      1.0  0.6778660615283673  0.8215215128007579  0.6699632123718446  1.0000
  H   H648      1.0  0.6559979958158317  0.8548063034981236  0.6484531008604948  1.0000
  N   N39       1.0  0.7184001895431296  0.640141154573001  0.6135213419661328  1.0000
  C   C441      1.0  0.7354618326898625  0.6715444538151271  0.6009418601058311  1.0000
  C   C442      1.0  0.7318484701450386  0.6291671893312659  0.6419264117936825  1.0000
  C   C443      1.0  0.7222582877144607  0.6115074599632546  0.5950197368205691  1.0000
  C   C444      1.0  0.6840028899528551  0.6484683243142724  0.6162140007705028  1.0000
  H   H649      1.0  0.73309718443943  0.6936501825695576  0.6143920976616408  1.0000
  H   H650      1.0  0.7258708413168528  0.6806113324015765  0.5795124935323716  1.0000
  H   H651      1.0  0.7614820461570849  0.666167912999983  0.5982808224645378  1.0000
  H   H652      1.0  0.7192990659715021  0.6058078862459279  0.6523187562121121  1.0000
  H   H653      1.0  0.7577442133155581  0.6223525131452351  0.640626835089828  1.0000
  H   H654      1.0  0.729632292656949  0.6503837418468218  0.6562990035734513  1.0000
  H   H655      1.0  0.7126493486419152  0.619064728924359  0.5732970972452592  1.0000
  H   H656      1.0  0.7096108748712391  0.5874079005935083  0.6037593232618677  1.0000
  H   H657      1.0  0.7479773200075919  0.60460584236754  0.5924143666115999  1.0000
  H   H658      1.0  0.6701320497137913  0.6252163309501821  0.6249857222337619  1.0000
  H   H659      1.0  0.6733444118834016  0.6581082713555161  0.5952844405810139  1.0000
  H   H660      1.0  0.6803089451538732  0.6692039863582127  0.6307237468225831  1.0000
  N   N40       1.0  0.12391792417618719  0.6719985085333005  0.44842173784774647  1.0000
  C   C445      1.0  0.12387290842835252  0.685167649182608  0.4180184902517186  1.0000
  C   C446      1.0  0.09998749400925644  0.6916235218333345  0.46367486436796806  1.0000
  C   C447      1.0  0.15602467345128823  0.676955278001009  0.46049119055221915  1.0000
  C   C448      1.0  0.11579550714761311  0.6343976498575097  0.4515234245033821  1.0000
  H   H661      1.0  0.14110054384247062  0.6704729790502715  0.4056898200118162  1.0000
  H   H662      1.0  0.13071291015200548  0.7132860503698196  0.4149337108115541  1.0000
  H   H663      1.0  0.09971742146637474  0.6829610198508751  0.40845493521388965  1.0000
  H   H664      1.0  0.10078878230326738  0.6839928076535683  0.48691849230303597  1.0000
  H   H665      1.0  0.10425943075579447  0.7203089212161948  0.4604525466197025  1.0000
  H   H666      1.0  0.07521052628366509  0.6867014919011772  0.4564569356710573  1.0000
  H   H667      1.0  0.16248650470609993  0.7051277825865266  0.45946158222301153  1.0000
  H   H668      1.0  0.1749371415451484  0.6636090225121651  0.448915158737588  1.0000
  H   H669      1.0  0.15742692587249674  0.6664321543861156  0.48320715078942245  1.0000
  H   H670      1.0  0.11492368719608437  0.6239580710795318  0.4742998615023597  1.0000
  H   H671      1.0  0.13376351359786676  0.6185954115114423  0.44089741420225387  1.0000
  H   H672      1.0  0.0919386508538389  0.6296100697394863  0.4421138300166464  1.0000
  N   N41       1.0  0.8804016275222533  0.4865384500643269  0.8815184975709952  1.0000
  C   C449      1.0  0.9130426254527089  0.5000922157605586  0.8754748292640726  1.0000
  C   C450      1.0  0.8822997504184286  0.45247063280955624  0.8988320621147715  1.0000
  C   C451      1.0  0.8638155048704785  0.4819510497523202  0.8545205891818048  1.0000
  C   C452      1.0  0.8624671718568048  0.5115824393966466  0.897453266364161  1.0000
  H   H673      1.0  0.9272557690250092  0.4821999233127067  0.8632468716995221  1.0000
  H   H674      1.0  0.9263376715356237  0.503403890431794  0.895435233618921  1.0000
  H   H675      1.0  0.9123489310899531  0.5260865037147224  0.8628468432232912  1.0000
  H   H676      1.0  0.8960838163725134  0.4329035037691538  0.8879020294580273  1.0000
  H   H677      1.0  0.8942293743518196  0.45507119139705793  0.9194822702650659  1.0000
  H   H678      1.0  0.8581354503379206  0.44128543676096305  0.9035518095045353  1.0000
  H   H679      1.0  0.8623416075598423  0.5069424875161145  0.8406288458351856  1.0000
  H   H680      1.0  0.8389678062524876  0.4722581316222919  0.8582941133416339  1.0000
  H   H681      1.0  0.8765747927722849  0.4627172381439665  0.8423162161354955  1.0000
  H   H682      1.0  0.8377598184289006  0.5022881429526338  0.9025589679426065  1.0000
  H   H683      1.0  0.860602160873369  0.5376894684420416  0.8851593452406249  1.0000
  H   H684      1.0  0.8746426689433149  0.5154694865437051  0.9179071149342354  1.0000
  N   N42       1.0  0.5508478777581161  0.9317751061381098  0.9982432737397313  1.0000
  C   C453      1.0  0.5757875707689665  0.9580872628972898  0.001873424686841929  1.0000
  C   C454      1.0  0.5332450057260787  0.9242025286492768  0.025243483360226637  1.0000
  C   C455      1.0  0.5659908286568094  0.8992926506797949  0.9902340190469447  1.0000
  C   C456      1.0  0.528385215831121  0.9456465066861186  0.9757165143292251  1.0000
  H   H685      1.0  0.5884905141008995  0.9657672906540921  0.9815889071891772  1.0000
  H   H686      1.0  0.5940369402640205  0.9480377095385535  0.017840426264833953  1.0000
  H   H687      1.0  0.5652457774163488  0.9821085246483078  0.009495864202557769  1.0000
  H   H688      1.0  0.5497519042970918  0.9153552815526843  0.04300982753790916  1.0000
  H   H689      1.0  0.5200938921137249  0.94765288487464  0.031153936428978568  1.0000
  H   H690      1.0  0.5151647377761642  0.9032856814007453  0.023843083718942726  1.0000
  H   H691      1.0  0.5839890576511096  0.8889676910797045  0.006293203852769436  1.0000
  H   H692      1.0  0.5783650936530156  0.903567302850375  0.9693112544400172  1.0000
  H   H693      1.0  0.5478554286579183  0.8784196749400068  0.9887462213808775  1.0000
  H   H694      1.0  0.5085850992220359  0.9270391297013533  0.9731820009050176  1.0000
  H   H695      1.0  0.5406322133263053  0.9502236095224809  0.9547712382238304  1.0000
  H   H696      1.0  0.5172243425634357  0.9706339798123096  0.9808613818192188  1.0000
  N   N43       1.0  0.31457140883026863  0.5330108447217525  0.6399470541386579  1.0000
  C   C457      1.0  0.30852036543756023  0.4983461686108941  0.6553880642519782  1.0000
  C   C458      1.0  0.3217450719523616  0.5585363703226931  0.660511144774425  1.0000
  C   C459      1.0  0.2860488861381854  0.5447616918537103  0.6230345476376855  1.0000
  C   C460      1.0  0.34219937018755575  0.5304375030088468  0.6207412745210888  1.0000
  H   H697      1.0  0.30345280269711766  0.4784131682577838  0.6404108608691117  1.0000
  H   H698      1.0  0.28770822211855146  0.4991241906646536  0.6700404220841837  1.0000
  H   H699      1.0  0.3297532506675827  0.48897809018847643  0.6683566043595675  1.0000
  H   H700      1.0  0.3433138514474928  0.5505137620714495  0.6734409357160894  1.0000
  H   H701      1.0  0.32670488492808575  0.5848950581391662  0.6494812186857383  1.0000
  H   H702      1.0  0.30143598346823425  0.5611403138955824  0.6754019731644658  1.0000
  H   H703      1.0  0.2900608063982682  0.5708419535270457  0.6110824439388979  1.0000
  H   H704      1.0  0.26452685218196914  0.5468262905575754  0.63666007632045  1.0000
  H   H705      1.0  0.2803799723881474  0.5264575453890789  0.6068570914609346  1.0000
  H   H706      1.0  0.3370136703381413  0.5129765323099549  0.6038650161478055  1.0000
  H   H707      1.0  0.36367485226442814  0.5197598374492268  0.6323501791559594  1.0000
  H   H708      1.0  0.34879192493005945  0.5565001701250107  0.6100408611487674  1.0000
  N   N44       1.0  0.01315241178808213  0.6823346186935785  0.786977015824963  1.0000
  C   C461      1.0  0.001451308194297507  0.6811829037129287  0.7576015186291412  1.0000
  C   C462      1.0  0.04453827230173579  0.7000495248394693  0.7863163521587756  1.0000
  C   C463      1.0  0.016805807993411692  0.6463220128804774  0.8006570460135021  1.0000
  C   C464      1.0  0.9898843252518874  0.701585204551079  0.8032890946950766  1.0000
  H   H709      1.0  0.9780883748738802  0.6673541672957254  0.7572333131259228  1.0000
  H   H710      1.0  0.018543200493451817  0.6666965888125204  0.7448333548265067  1.0000
  H   H711      1.0  0.998260194523915  0.7078638708439611  0.7465836228032675  1.0000
  H   H712      1.0  0.05426648293022618  0.7011839127380898  0.8080687706276599  1.0000
  H   H713      1.0  0.06268272787877138  0.6856824179629002  0.7745434047590073  1.0000
  H   H714      1.0  0.042893629678587564  0.7272845133681043  0.7760627707201172  1.0000
  H   H715      1.0  0.035015924513054575  0.6313085036699617  0.7895009544321426  1.0000
  H   H716      1.0  0.9939372132674473  0.6315990610819551  0.8005903396562472  1.0000
  H   H717      1.0  0.024814073898969058  0.6462194149050362  0.8230465095638227  1.0000
  H   H718      1.0  0.9866904346593293  0.7290199126969158  0.7938393730300433  1.0000
  H   H719      1.0  0.9977721360209667  0.7025532073378951  0.8256866794339784  1.0000
  H   H720      1.0  0.9659824856261015  0.6887842426927139  0.8041455719756498  1.0000
  N   N45       1.0  0.8997216540788052  0.29241561350303014  0.12218007992807195  1.0000
  C   C465      1.0  0.8946694845472607  0.3110990599884015  0.09367598493583418  1.0000
  C   C466      1.0  0.9344421512774284  0.28754824280848557  0.1274381468329935  1.0000
  C   C467      1.0  0.8840445692927253  0.25788138616941814  0.12363517251437062  1.0000
  C   C468      1.0  0.8857141510748738  0.3130621352830176  0.14399093797176718  1.0000
  H   H721      1.0  0.8687678492311669  0.3157035231483904  0.0891101780580421  1.0000
  H   H722      1.0  0.9044519120497975  0.2960332871093879  0.07661596080743838  1.0000
  H   H723      1.0  0.9067991297859259  0.3369707047918153  0.0915232770379848  1.0000
  H   H724      1.0  0.9457626616115434  0.27217059377858516  0.11129198419175634  1.0000
  H   H725      1.0  0.9471156921571591  0.3130324830259488  0.1266961891440033  1.0000
  H   H726      1.0  0.9391399470526921  0.27328863065573195  0.14868503625102406  1.0000
  H   H727      1.0  0.8937938326210905  0.2416565531762748  0.10730368454463671  1.0000
  H   H728      1.0  0.8577305137454437  0.2604880069096996  0.12037842410576213  1.0000
  H   H729      1.0  0.8877365743722199  0.24291554468390159  0.1447739086700179  1.0000
  H   H730      1.0  0.8891526269674801  0.29976011908127687  0.16576217718508418  1.0000
  H   H731      1.0  0.8594140365966138  0.31671903187216416  0.14098511635936695  1.0000
  H   H732      1.0  0.896818756670934  0.3393819417001391  0.14348501692009558  1.0000
  N   N46       1.0  0.2078400219765936  0.7968471620959825  0.19230664189987778  1.0000
  C   C469      1.0  0.1745232330288555  0.8089198238109655  0.18689668611872268  1.0000
  C   C470      1.0  0.21826269406417004  0.8062445018823279  0.22045276908617195  1.0000
  C   C471      1.0  0.2291447200681059  0.8137219627375556  0.1701012564543809  1.0000
  C   C472      1.0  0.20935536888060066  0.7584718995489799  0.19179813856443362  1.0000
  H   H733      1.0  0.16634581791815484  0.8040715386402006  0.16523717945165872  1.0000
  H   H734      1.0  0.17196803998883547  0.8374918899359397  0.1886708053018893  1.0000
  H   H735      1.0  0.15752458620610238  0.7954122539536467  0.202368353582129  1.0000
  H   H736      1.0  0.24343218142714695  0.7979950609159915  0.2251603384854639  1.0000
  H   H737      1.0  0.21669830282460553  0.8350195152484206  0.22175082715100491  1.0000
  H   H738      1.0  0.2028925297709552  0.7936975397936907  0.2377425879436914  1.0000
  H   H739      1.0  0.2541615968660758  0.8037705941913537  0.17249987604858696  1.0000
  H   H740      1.0  0.22999519032361304  0.8424645327633908  0.17112341588580104  1.0000
  H   H741      1.0  0.22071290845492056  0.8093545654058103  0.14837633275788464  1.0000
  H   H742      1.0  0.23409654009502334  0.7483286113914082  0.19597028166361685  1.0000
  H   H743      1.0  0.2016250863236199  0.7506006336299661  0.17081573830558572  1.0000
  H   H744      1.0  0.19342110932981416  0.7450386313261237  0.20830745758426605  1.0000
  N   N47       1.0  0.6586302373883377  0.8220572693142253  0.874949169155755  1.0000
  C   C473      1.0  0.6799044049035908  0.8259386488032661  0.8994129465512074  1.0000
  C   C474      1.0  0.6709821869642104  0.7941466346618293  0.8583707353377347  1.0000
  C   C475      1.0  0.6574731480571587  0.8554341500319997  0.8566138640260901  1.0000
  C   C476      1.0  0.6260743523403425  0.8128677136331701  0.8854041754440678  1.0000
  H   H745      1.0  0.6709325584796932  0.8468344651615204  0.9122939739518292  1.0000
  H   H746      1.0  0.7046127299923522  0.833260414446487  0.8923477179283025  1.0000
  H   H747      1.0  0.6814557004023947  0.8012764434289974  0.9137743092154471  1.0000
  H   H748      1.0  0.655518821197444  0.7910216001144473  0.8395885820972949  1.0000
  H   H749      1.0  0.695570767426532  0.8001060233322099  0.850244765545415  1.0000
  H   H750      1.0  0.671779276966382  0.7684161815939701  0.8713742328275311  1.0000
  H   H751      1.0  0.6490136707359843  0.877231573827396  0.868623111035355  1.0000
  H   H752      1.0  0.6409274462600504  0.8539203604528797  0.8383748761956926  1.0000
  H   H753      1.0  0.6814260243314539  0.8628406646083263  0.8476963881053479  1.0000
  H   H754      1.0  0.6261036966072826  0.7880909113909973  0.899675838796284  1.0000
  H   H755      1.0  0.6094402834244452  0.8093018850363342  0.8675271971260685  1.0000
  H   H756      1.0  0.6157885342492795  0.8337032170018218  0.897612394209502  1.0000
  N   N48       1.0  0.24976358514220295  0.5429615476755194  0.8156176183374654  1.0000
  C   C477      1.0  0.24811674751787283  0.5749177206228544  0.7955742410903824  1.0000
  C   C478      1.0  0.23302787611730044  0.5142275461526989  0.803207288632599  1.0000
  C   C479      1.0  0.23417816115602536  0.5496488150491908  0.8426606983078836  1.0000
  C   C480      1.0  0.28363099275132825  0.5330740670845759  0.8209916901529215  1.0000
  H   H757      1.0  0.2604565590563747  0.5971939104823463  0.8042559182075097  1.0000
  H   H758      1.0  0.22279347484987289  0.5830282042390525  0.7910984143624621  1.0000
  H   H759      1.0  0.25958072549470923  0.5706887068891924  0.7749074328324284  1.0000
  H   H760      1.0  0.20761817516113484  0.5212787412274437  0.7982291840010308  1.0000
  H   H761      1.0  0.2447080688275074  0.507481067331511  0.7832571176308232  1.0000
  H   H762      1.0  0.23264076515355328  0.49000102884652375  0.8181870731977747  1.0000
  H   H763      1.0  0.23342374038043157  0.5255182048073731  0.8577578678167496  1.0000
  H   H764      1.0  0.20897426188096457  0.5585536586616362  0.8391495911148196  1.0000
  H   H765      1.0  0.2468716751956912  0.5701946172097729  0.8532739281380887  1.0000
  H   H766      1.0  0.28576044050631  0.5087744782014654  0.8357612218171234  1.0000
  H   H767      1.0  0.29705268164251786  0.5539289039218087  0.8305843663375818  1.0000
  H   H768      1.0  0.2962172773588034  0.5280754380679686  0.8010011308099669  1.0000
