data_image0
_chemical_formula_structural       CHCHSHSH2FeS2FeS2FeSHCSHC2SFeSC3SH4CH2NSC4H2CH2FeHCHCH3SHSH2CH3FeC3HC3H5C2HC3HNHC2HCHCHSC5HCNC2NH4CFeCH2SFeH5CHSH3C2HCH2CSH3SHNH2CHFeH3NHFeCH4CHSCH3CH2CSC2H9C2HCNH2CH9FeSC3HCHNCH3C2H2SCFeHSH3S2C2H5CFeC2H2C2HCFeNSH2CHCHFeHSCH2CHCFeC2H3NH2C2HCS2CHFeCSHSFeCSCHCHCS2NCH3FeC3HCHSH3SH6CNHSCSFeHCH3CH2SCH5CH4CHC2H2CHFeCSFeSHFeSFeSFeS3FeS2CS2H3Fe2HCSFeSC2H2C2H3C6H4C7H3NCHC6H5FeCHCHCH2C2NH4FeNHC2HSCHSH2SFe2H3SCH5CHCHCH4SHSH2SH6NSH3C2SCH2CHNHCHC2HCNC2H3C4H8CSCHCNCHCH5SHCH4CHC2SHSH2CHCHCH3CHC2HSHCH2SC3SH3C2HFeSFeS2FeSFeHS2CHC6H7SH3CH2NCH2CHCNHC2H2CHCHCFeH3CH2C2H2C2H2CSH2SCH2CFeHSHS5Fe2SHCH3FeHFeCSFeCSFeH2SC3H2SHSHCHCH2C6H8SHSHC2H3C3HSH3CHSC3HSFe2C3SCH2C2H6C3NHCNCHCHFeSH3SC2HCHCHC2FeHSCH2C3HSHCH4C4H7SCHCNHCHNHC2HC2H7SH2C2H4FeCHCSHSH2SH2NH5FeC2H3NCH2C3H2C2H3C2SH2CH2CHC2SCSFeNSFeS2HFeHS2HC3HCSHC2H2FeH3CHCHCH2C2H2CH2C3HSH3CH2FeHC2H3C2NH3CSCH4CHSCHCH5SCFeS3CSC2H4C2SH4CH6FeHCH3CNC2H3SHC3H2FeCHSHCHC2HFeCFeCHSHC2HCH3C3H2SHNHCH3CHSHCHCH3NH2FeHC2SCHCSHCH2CHC2H3CFeS2CHCSH5FeSH2SH2S2H2NFeCH2C4H3CH4CHCHFeS2HSHSCSHSFe2SCFeSFeSFeS3C6H2SCSC6H4CHSCSH3NCHC4H6CHCHC2HS3HNH3CH4C2H2NCH2SHCFeH8FeSH2FeNC2H4CH2CSH2FeH2C2H4CH4SCHCH4CH4CHCH2FeHCH2FeSCH4CFeHSCH2C2HCSHNH2CHNH6CSCHCHCH2C3HFeH2C2SC2H3CH5CNCH2CSHCHFeS2FeHFeS3CHCH7NSHSH2FeS2FeCH2CS2CFeHSFeCSH2C2S2HFeHC4NH3C6H6CS2NFeHC2HC4SH3CSH5SH2C2HCSHFeH3CSC4H10SCH3SH2FeH2C2H4Fe2C2NSCHC2HC2FeHC2FeC2H2SHSHCFeH3SNHCHCHSC3H6CNCS2HSC2H2C2NFeC3SH10C2HSHN2H3CHCHCHCNHC2HCHFeH4CHFeHCSCHSH2CH6CHCH3CH3CHSFeS2FeSHSFe2HSHSHNH2C2NH3CHC3H5CH4C2HCHSNH2C7H4CSC2H2CFeCS2H7CFeHNH7CH2CH2SH3CHC2HC2HC2H2SHS2CSH2CH5C3SCH2SCH3CFeCSH2SCSCHSHCSCHSCHS2HCHFeH5SH5FeCHNCH2FeH3C2H2FeHNSFeH2SCH2CSFeHCFeH3CHFeC3H2CFeCHCHC2SCH7C2N2H2CFeS2FeS2FeHFeS4FeSFeH3S2NCSHSHFeHSH7SHCHCHCSHFeSFeH2CH2CH2C4HC2FeH2CH3CH5CH2CHCSC3H3C6H5C6H4NS2C6HSH6C3NC4H13C2NSFe2HFe2HSHNH2C3HC2HCHCSHFeS2HFeCS2CHCHNCFeHC2FeHCH5SCHSH2S2CH2CHSH2CH5CSNCH4C2H2SC2H2CHCH3CHSHFeH3FeC2FeHSH2NHSCHCSH5CH3CHFeH3SCHCHSC2HCNHCHC2HCHC2H4C2H2SH2C2H4CHCHS2HCSH2FeH4SHFeH3CFeS2FeHFeHSFeSFeS7H3C6HCH5CH2CH2CSH2FeC2HCHSC3H4C7H5C2HSHCH2FeSH10C2H2NH3CFeH3CHCH2SNH3CHCH3CHC2HCHCHNC4HS2CHCHCHNC4HC2HCHNC2H2CH2NH5SFeCSNHFe2SFeCH5C5H3SCH2FeHC2FeHC6H4C2HSH3CH3FeSNCSC4H3CHCH4SH4FeH2C4SCH2FeSHFeHSH2NHS2H2CHC3HCSCHNHC2FeH2FeC2SC2HC5H4SCHCFeHSH6C3SCH3CHSH2CH6C2H2CH2CHCHCHNSC2HSH7FeS2FeS2FeHFeS3H2CH2FeSNFeS2FeSFeS3HFeSCFeNFeCSC3HC2H2CH4SHCSCHC6H4C2HC3H4SC2HCH4C6H4C2H3CHCHCH2C3HN2H7SCH2CHNSH2CH2SHC2HNHC5HNC4H11SCH3CSNCH5CH2CH4SH4CH6SHCNCSHC2H4CHC2HC3H2C3HCFeCHSH8C2H4FeH2CSHCFeSFeSCFeSFeHS2CHSH2NHCHCSCSH2CHCH2C3HC2H4CHSH3CS2HCHC4H3CHCH4FeH2NCH2CHFeC3H4SC2HCH4CSH2CHCH4FeCH2SH2CFeSCFeSCHSH2C2SHFeSFeH2C2H2CSHC3FeSCH2NHSNCHNSC2HCHCH3SHCHSHFeC3HC6H4C3H2FeHSHFeH2CSHCH4CHSNHSFeNH2C3H2C2HC2SHCFeSH4SHCSH2NC4H12SHCFeH2CFeCH2C3H6NH2FeHCH4SCHCHCHCH5C2H2C2H2CSH5CH2SH
_chemical_formula_sum              "C960 H1536 S384 Fe192 N96"
_cell_length_a       62.9836
_cell_length_b       63.8461
_cell_length_c       65.4754
_cell_angle_alpha    75.8045
_cell_angle_beta     80.2118
_cell_angle_gamma    78.9717

_space_group_name_H-M_alt    "P 1"
_space_group_IT_number       1

loop_
  _space_group_symop_operation_xyz
  'x, y, z'

loop_
  _atom_site_type_symbol
  _atom_site_label
  _atom_site_symmetry_multiplicity
  _atom_site_fract_x
  _atom_site_fract_y
  _atom_site_fract_z
  _atom_site_occupancy
  C   C1        1.0  0.03342  0.43035  0.05794  1.0000
  H   H1        1.0  0.31772  0.42945  0.03309  1.0000
  C   C2        1.0  0.13596  0.44317  0.11888  1.0000
  H   H2        1.0  0.44043  0.12979  0.12293  1.0000
  S   S1        1.0  0.30016  0.41890  0.07790  1.0000
  H   H3        1.0  0.31944  0.44451  0.10418  1.0000
  S   S2        1.0  0.03146  0.39474  0.12761  1.0000
  H   H4        1.0  0.03043  0.47104  0.11787  1.0000
  H   H5        1.0  0.36802  0.18805  0.03690  1.0000
  Fe  Fe1       1.0  0.45715  0.06858  0.07364  1.0000
  S   S3        1.0  0.44744  0.04629  0.05639  1.0000
  S   S4        1.0  0.46477  0.05673  0.10724  1.0000
  Fe  Fe2       1.0  0.45606  0.10684  0.03586  1.0000
  S   S5        1.0  0.44642  0.08828  0.01484  1.0000
  S   S6        1.0  0.45663  0.14307  0.02752  1.0000
  Fe  Fe3       1.0  0.42361  0.07544  0.04336  1.0000
  S   S7        1.0  0.38900  0.07219  0.04209  1.0000
  H   H6        1.0  0.15164  0.44983  0.11433  1.0000
  C   C3        1.0  0.00906  0.48419  0.08373  1.0000
  S   S8        1.0  0.43096  0.09632  0.06331  1.0000
  H   H7        1.0  0.44221  0.02189  0.13220  1.0000
  C   C4        1.0  0.05266  0.42251  0.06717  1.0000
  C   C5        1.0  0.47911  0.17502  0.00355  1.0000
  S   S9        1.0  0.30471  0.47289  0.03696  1.0000
  Fe  Fe4       1.0  0.47092  0.06056  0.02930  1.0000
  S   S10       1.0  0.35343  0.35931  0.01635  1.0000
  C   C6        1.0  0.11778  0.47343  0.09472  1.0000
  C   C7        1.0  0.42174  0.22978  0.01007  1.0000
  C   C8        1.0  0.35207  0.47652  0.06804  1.0000
  S   S11       1.0  0.08235  0.46454  0.05214  1.0000
  H   H8        1.0  0.06684  0.40543  0.09557  1.0000
  H   H9        1.0  0.49477  0.12673  0.11085  1.0000
  H   H10       1.0  0.35726  0.26590  0.01315  1.0000
  H   H11       1.0  0.36802  0.17041  0.08406  1.0000
  C   C9        1.0  0.18207  0.46421  0.02772  1.0000
  H   H12       1.0  0.39992  0.14658  0.02928  1.0000
  H   H13       1.0  0.33951  0.40629  0.00927  1.0000
  N   N1        1.0  0.34703  0.45619  0.08319  1.0000
  S   S12       1.0  0.08472  0.47749  0.00068  1.0000
  C   C10       1.0  0.37397  0.13217  0.00436  1.0000
  C   C11       1.0  0.35115  0.13553  0.00712  1.0000
  C   C12       1.0  0.05192  0.41108  0.08841  1.0000
  C   C13       1.0  0.38346  0.16773  0.07324  1.0000
  H   H14       1.0  0.32247  0.12111  0.02166  1.0000
  H   H15       1.0  0.38244  0.02227  0.06135  1.0000
  C   C14       1.0  0.37462  0.09614  0.02781  1.0000
  H   H16       1.0  0.13287  0.48105  0.09050  1.0000
  H   H17       1.0  0.01492  0.46932  0.07706  1.0000
  Fe  Fe5       1.0  0.10655  0.47632  0.02472  1.0000
  H   H18       1.0  0.47460  0.16712  0.06361  1.0000
  C   C15       1.0  0.42807  0.24730  0.01554  1.0000
  H   H19       1.0  0.40323  0.11045  0.01293  1.0000
  C   C16       1.0  0.15961  0.47111  0.03173  1.0000
  H   H20       1.0  0.34172  0.48113  0.05495  1.0000
  H   H21       1.0  0.34315  0.08637  0.03982  1.0000
  H   H22       1.0  0.46929  0.00883  0.03708  1.0000
  S   S13       1.0  0.33601  0.16053  0.99550  1.0000
  H   H23       1.0  0.31542  0.37291  0.08444  1.0000
  S   S14       1.0  0.46152  0.12953  0.15884  1.0000
  H   H24       1.0  0.47360  0.14872  0.10234  1.0000
  H   H25       1.0  0.34170  0.31447  0.01803  1.0000
  C   C17       1.0  0.47543  0.07278  0.13852  1.0000
  H   H26       1.0  0.35286  0.32563  0.99141  1.0000
  H   H27       1.0  0.99862  0.43108  0.06242  1.0000
  H   H28       1.0  0.42702  0.01507  0.03556  1.0000
  Fe  Fe6       1.0  0.27708  0.47954  0.01815  1.0000
  C   C18       1.0  0.33920  0.37635  0.03318  1.0000
  C   C19       1.0  0.33233  0.36702  0.05437  1.0000
  C   C20       1.0  0.33416  0.39897  0.02561  1.0000
  H   H29       1.0  0.33619  0.34954  0.06030  1.0000
  C   C21       1.0  0.38476  0.30576  0.01626  1.0000
  C   C22       1.0  0.37364  0.13580  0.06579  1.0000
  C   C23       1.0  0.40128  0.15457  0.04218  1.0000
  H   H30       1.0  0.38620  0.12454  0.07501  1.0000
  H   H31       1.0  0.37098  0.12774  0.05338  1.0000
  H   H32       1.0  0.41446  0.14432  0.05116  1.0000
  H   H33       1.0  0.40688  0.17052  0.03448  1.0000
  H   H34       1.0  0.38887  0.18396  0.06642  1.0000
  C   C24       1.0  0.46365  0.07728  0.12124  1.0000
  C   C25       1.0  0.46215  0.10939  0.14449  1.0000
  H   H35       1.0  0.44177  0.10148  0.10242  1.0000
  C   C26       1.0  0.45116  0.09795  0.11551  1.0000
  C   C27       1.0  0.32186  0.41212  0.03916  1.0000
  C   C28       1.0  0.45037  0.11396  0.12715  1.0000
  H   H36       1.0  0.35885  0.46387  0.10896  1.0000
  N   N2        1.0  0.37126  0.29545  0.00638  1.0000
  H   H37       1.0  0.33922  0.30211  0.99687  1.0000
  C   C29       1.0  0.31509  0.40277  0.06043  1.0000
  C   C30       1.0  0.47873  0.00165  0.02445  1.0000
  H   H38       1.0  0.38812  0.32178  0.00604  1.0000
  C   C31       1.0  0.36689  0.27438  0.02048  1.0000
  H   H39       1.0  0.36127  0.16459  0.03047  1.0000
  C   C32       1.0  0.10230  0.44008  0.10765  1.0000
  H   H40       1.0  0.46476  0.18634  0.00761  1.0000
  S   S15       1.0  0.03404  0.44755  0.03248  1.0000
  C   C33       1.0  0.01567  0.46343  0.11880  1.0000
  C   C34       1.0  0.32058  0.38023  0.06803  1.0000
  C   C35       1.0  0.43068  0.22400  0.99079  1.0000
  C   C36       1.0  0.36128  0.45057  0.10012  1.0000
  C   C37       1.0  0.01352  0.42546  0.06961  1.0000
  H   H41       1.0  0.34744  0.17364  0.05378  1.0000
  C   C38       1.0  0.03195  0.40707  0.10044  1.0000
  N   N3        1.0  0.38046  0.15738  0.05627  1.0000
  C   C39       1.0  0.36354  0.17152  0.04382  1.0000
  C   C40       1.0  0.34013  0.11876  0.01960  1.0000
  N   N4        1.0  0.46031  0.99325  0.15010  1.0000
  H   H42       1.0  0.26777  0.40851  0.01037  1.0000
  H   H43       1.0  0.44659  0.27401  0.00483  1.0000
  H   H44       1.0  0.47350  0.04995  0.18257  1.0000
  H   H45       1.0  0.31288  0.46368  0.08047  1.0000
  C   C41       1.0  0.44229  0.25993  0.00102  1.0000
  Fe  Fe7       1.0  0.28409  0.45158  0.06120  1.0000
  C   C42       1.0  0.01282  0.41374  0.09082  1.0000
  H   H46       1.0  0.18823  0.45299  0.01730  1.0000
  H   H47       1.0  0.36939  0.47478  0.06065  1.0000
  S   S16       1.0  0.25778  0.45573  0.04090  1.0000
  Fe  Fe8       1.0  0.38201  0.21499  0.99902  1.0000
  H   H48       1.0  0.12705  0.44961  0.13284  1.0000
  H   H49       1.0  0.36795  0.43495  0.06454  1.0000
  H   H50       1.0  0.43979  0.99926  0.07075  1.0000
  H   H51       1.0  0.13917  0.42249  0.08676  1.0000
  H   H52       1.0  0.34659  0.42265  0.08274  1.0000
  C   C43       1.0  0.47962  0.15249  0.01142  1.0000
  H   H53       1.0  0.37635  0.30907  0.03180  1.0000
  S   S17       1.0  0.48298  0.08048  0.04761  1.0000
  H   H54       1.0  0.34024  0.44189  0.05895  1.0000
  H   H55       1.0  0.09192  0.44457  0.09462  1.0000
  H   H56       1.0  0.15126  0.44696  0.07765  1.0000
  C   C44       1.0  0.19668  0.47164  0.03724  1.0000
  C   C45       1.0  0.38567  0.11265  0.01485  1.0000
  H   H57       1.0  0.35778  0.43533  0.11183  1.0000
  C   C46       1.0  0.35182  0.09910  0.02989  1.0000
  H   H58       1.0  0.12634  0.44545  0.06874  1.0000
  H   H59       1.0  0.39607  0.15743  0.08301  1.0000
  C   C47       1.0  0.41652  0.00207  0.03920  1.0000
  S   S18       1.0  0.39953  0.21797  0.02484  1.0000
  H   H60       1.0  0.35808  0.13728  0.07669  1.0000
  H   H61       1.0  0.35758  0.27672  0.03600  1.0000
  H   H62       1.0  0.40696  0.02815  0.06732  1.0000
  S   S19       1.0  0.14159  0.46074  0.02047  1.0000
  H   H63       1.0  0.34887  0.49065  0.07590  1.0000
  N   N5        1.0  0.99933  0.47848  0.10619  1.0000
  H   H64       1.0  0.38228  0.26311  0.02378  1.0000
  H   H65       1.0  0.42118  0.25178  0.03046  1.0000
  C   C48       1.0  0.27925  0.41918  0.00011  1.0000
  H   H66       1.0  0.06819  0.42495  0.05783  1.0000
  Fe  Fe9       1.0  0.05916  0.46948  0.02848  1.0000
  H   H67       1.0  0.23979  0.48954  0.00403  1.0000
  H   H68       1.0  0.29223  0.41939  0.00958  1.0000
  H   H69       1.0  0.37881  0.44788  0.09347  1.0000
  N   N6        1.0  0.12286  0.44932  0.10100  1.0000
  H   H70       1.0  0.21392  0.46613  0.03410  1.0000
  Fe  Fe10      1.0  0.24273  0.48478  0.05491  1.0000
  C   C49       1.0  0.35071  0.43815  0.07188  1.0000
  H   H71       1.0  0.10741  0.48052  0.10770  1.0000
  H   H72       1.0  0.48217  0.01590  0.13377  1.0000
  H   H73       1.0  0.42585  0.00218  0.14846  1.0000
  H   H74       1.0  0.43720  0.01921  0.16041  1.0000
  C   C50       1.0  0.35033  0.31004  0.00301  1.0000
  H   H75       1.0  0.32042  0.47324  0.10123  1.0000
  S   S20       1.0  0.34580  0.21745  0.00286  1.0000
  C   C51       1.0  0.32399  0.45955  0.09279  1.0000
  H   H76       1.0  0.40237  0.00862  0.03011  1.0000
  H   H77       1.0  0.40073  0.29522  0.01897  1.0000
  H   H78       1.0  0.01621  0.43543  0.99583  1.0000
  C   C52       1.0  0.13543  0.44067  0.08279  1.0000
  H   H79       1.0  0.38272  0.14442  0.99406  1.0000
  H   H80       1.0  0.02115  0.44802  0.11301  1.0000
  C   C53       1.0  0.47479  0.08882  0.15002  1.0000
  S   S21       1.0  0.26723  0.47814  0.07800  1.0000
  C   C54       1.0  0.44050  0.00985  0.14764  1.0000
  C   C55       1.0  0.15180  0.48583  0.04497  1.0000
  H   H81       1.0  0.10869  0.47870  0.08070  1.0000
  H   H82       1.0  0.10543  0.42189  0.11239  1.0000
  H   H83       1.0  0.43730  0.03807  0.18816  1.0000
  H   H84       1.0  0.09242  0.44629  0.12135  1.0000
  H   H85       1.0  0.00784  0.47559  0.18815  1.0000
  H   H86       1.0  0.00892  0.45879  0.13585  1.0000
  H   H87       1.0  0.47673  0.01356  0.16193  1.0000
  H   H88       1.0  0.14004  0.42508  0.12411  1.0000
  H   H89       1.0  0.02287  0.46245  0.98930  1.0000
  C   C56       1.0  0.18888  0.48584  0.05100  1.0000
  C   C57       1.0  0.47926  0.00414  0.14925  1.0000
  H   H90       1.0  0.46763  0.12928  0.07555  1.0000
  C   C58       1.0  0.39688  0.01499  0.06992  1.0000
  N   N7        1.0  0.40934  0.99567  0.06227  1.0000
  H   H91       1.0  0.13451  0.49125  0.04813  1.0000
  H   H92       1.0  0.48421  0.08525  0.16314  1.0000
  C   C59       1.0  0.48557  0.12382  0.07319  1.0000
  H   H93       1.0  0.31306  0.38695  0.99506  1.0000
  H   H94       1.0  0.27008  0.43607  0.99663  1.0000
  H   H95       1.0  0.99751  0.40984  0.09963  1.0000
  H   H96       1.0  0.28775  0.37779  0.99559  1.0000
  H   H97       1.0  0.48911  0.10750  0.08406  1.0000
  H   H98       1.0  0.48995  0.12155  0.05659  1.0000
  H   H99       1.0  0.48526  0.05691  0.14295  1.0000
  H   H100      1.0  0.48946  0.32024  0.99295  1.0000
  H   H101      1.0  0.39094  0.01075  0.08720  1.0000
  Fe  Fe11      1.0  0.99860  0.39471  0.14737  1.0000
  S   S22       1.0  0.49374  0.04151  0.00773  1.0000
  C   C60       1.0  0.49191  0.01412  0.00840  1.0000
  C   C61       1.0  0.49134  0.14254  0.09919  1.0000
  C   C62       1.0  0.49248  0.16108  0.06216  1.0000
  H   H102      1.0  0.02333  0.49270  0.08201  1.0000
  C   C63       1.0  0.23911  0.48666  0.98861  1.0000
  H   H103      1.0  0.46370  0.05559  0.27842  1.0000
  N   N8        1.0  0.05489  0.32700  0.35149  1.0000
  C   C64       1.0  0.03131  0.32572  0.35537  1.0000
  H   H104      1.0  0.25948  0.02754  0.33206  1.0000
  H   H105      1.0  0.37556  0.06327  0.22847  1.0000
  H   H106      1.0  0.35940  0.03540  0.25761  1.0000
  C   C65       1.0  0.45981  0.00250  0.22952  1.0000
  C   C66       1.0  0.37620  0.02878  0.26173  1.0000
  H   H107      1.0  0.11146  0.06197  0.36186  1.0000
  H   H108      1.0  0.00061  0.10858  0.34695  1.0000
  S   S23       1.0  0.18432  0.02875  0.33240  1.0000
  C   C67       1.0  0.00692  0.38144  0.23129  1.0000
  Fe  Fe12      1.0  0.46060  0.09546  0.23792  1.0000
  H   H109      1.0  0.27850  0.03261  0.26518  1.0000
  S   S24       1.0  0.43267  0.09534  0.26450  1.0000
  H   H110      1.0  0.48314  0.00718  0.28316  1.0000
  H   H111      1.0  0.47437  0.15392  0.29275  1.0000
  H   H112      1.0  0.41132  0.03026  0.28018  1.0000
  S   S25       1.0  0.24214  0.02132  0.29561  1.0000
  S   S26       1.0  0.47038  0.12754  0.21946  1.0000
  C   C68       1.0  0.41045  0.05490  0.31813  1.0000
  C   C69       1.0  0.44690  0.03789  0.30718  1.0000
  H   H113      1.0  0.39935  0.08630  0.29887  1.0000
  H   H114      1.0  0.02333  0.33318  0.34078  1.0000
  H   H115      1.0  0.00799  0.43624  0.24409  1.0000
  H   H116      1.0  0.38322  0.01565  0.25289  1.0000
  H   H117      1.0  0.45514  0.10320  0.32675  1.0000
  C   C70       1.0  0.39182  0.05596  0.23361  1.0000
  Fe  Fe13      1.0  0.34641  0.01242  0.38173  1.0000
  C   C71       1.0  0.42745  0.03735  0.32127  1.0000
  C   C72       1.0  0.26672  0.02891  0.29852  1.0000
  H   H118      1.0  0.49057  0.11526  0.32689  1.0000
  H   H119      1.0  0.14978  0.04352  0.36222  1.0000
  C   C73       1.0  0.46353  0.14151  0.30043  1.0000
  C   C74       1.0  0.47309  0.01336  0.35973  1.0000
  H   H120      1.0  0.06243  0.29953  0.37721  1.0000
  C   C75       1.0  0.48527  0.02596  0.20915  1.0000
  Fe  Fe14      1.0  0.38862  0.01141  0.35157  1.0000
  N   N9        1.0  0.46978  0.00878  0.38321  1.0000
  S   S27       1.0  0.01596  0.43163  0.32426  1.0000
  H   H121      1.0  0.00059  0.37258  0.38738  1.0000
  H   H122      1.0  0.49018  0.01555  0.35323  1.0000
  C   C76       1.0  0.11903  0.00104  0.38701  1.0000
  H   H123      1.0  0.39559  0.05495  0.32906  1.0000
  C   C77       1.0  0.48030  0.00898  0.22621  1.0000
  H   H124      1.0  0.49164  0.13031  0.26804  1.0000
  Fe  Fe15      1.0  0.17486  0.99518  0.34198  1.0000
  H   H125      1.0  0.31385  0.04244  0.26830  1.0000
  S   S28       1.0  0.37439  0.00107  0.32734  1.0000
  C   C78       1.0  0.27143  0.03020  0.31829  1.0000
  H   H126      1.0  0.46752  0.08630  0.30823  1.0000
  H   H127      1.0  0.29516  0.03645  0.33540  1.0000
  C   C79       1.0  0.44890  0.05555  0.28954  1.0000
  H   H128      1.0  0.02827  0.30848  0.36073  1.0000
  C   C80       1.0  0.12154  0.06546  0.37205  1.0000
  Fe  Fe16      1.0  0.21832  0.01147  0.32468  1.0000
  C   C81       1.0  0.41265  0.07276  0.30100  1.0000
  C   C82       1.0  0.41192  0.03676  0.26272  1.0000
  H   H129      1.0  0.03149  0.39852  0.23587  1.0000
  H   H130      1.0  0.05106  0.35826  0.32944  1.0000
  H   H131      1.0  0.08241  0.31770  0.36913  1.0000
  N   N10       1.0  0.47471  0.11920  0.29920  1.0000
  H   H132      1.0  0.36309  0.07047  0.26469  1.0000
  H   H133      1.0  0.03415  0.12409  0.34632  1.0000
  C   C83       1.0  0.15652  0.05932  0.38537  1.0000
  C   C84       1.0  0.37988  0.06330  0.26855  1.0000
  H   H134      1.0  0.40223  0.06909  0.22927  1.0000
  C   C85       1.0  0.45985  0.10323  0.30958  1.0000
  S   S29       1.0  0.42420  0.01469  0.34256  1.0000
  S   S30       1.0  0.32834  0.00255  0.35966  1.0000
  C   C86       1.0  0.44452  0.01265  0.21562  1.0000
  H   H135      1.0  0.46025  0.02448  0.30968  1.0000
  Fe  Fe17      1.0  0.01161  0.40743  0.35530  1.0000
  C   C87       1.0  0.30701  0.03966  0.30213  1.0000
  S   S31       1.0  0.33251  0.04572  0.30414  1.0000
  H   H136      1.0  0.37837  0.05655  0.28602  1.0000
  S   S32       1.0  0.08490  0.09178  0.38590  1.0000
  Fe  Fe18      1.0  0.19257  0.02126  0.36565  1.0000
  C   C88       1.0  0.01092  0.38844  0.26517  1.0000
  S   S33       1.0  0.46051  0.08343  0.20867  1.0000
  C   C89       1.0  0.30211  0.03894  0.28230  1.0000
  H   H137      1.0  0.99754  0.14259  0.35991  1.0000
  C   C90       1.0  0.28211  0.03338  0.28054  1.0000
  H   H138      1.0  0.99982  0.47470  0.34788  1.0000
  C   C91       1.0  0.01784  0.39016  0.24343  1.0000
  S   S34       1.0  0.02354  0.40154  0.27935  1.0000
  S   S35       1.0  0.36085  0.03842  0.35627  1.0000
  N   N11       1.0  0.38995  0.04619  0.25666  1.0000
  C   C92       1.0  0.29164  0.03534  0.32014  1.0000
  H   H139      1.0  0.42305  0.04924  0.25806  1.0000
  H   H140      1.0  0.39935  0.04349  0.22416  1.0000
  H   H141      1.0  0.04592  0.09821  0.36146  1.0000
  Fe  Fe19      1.0  0.34554  0.02599  0.33396  1.0000
  C   C93       1.0  0.43163  0.07298  0.28640  1.0000
  C   C94       1.0  0.03532  0.11409  0.36270  1.0000
  C   C95       1.0  0.14331  0.05501  0.37221  1.0000
  H   H142      1.0  0.46231  0.02847  0.35278  1.0000
  C   C96       1.0  0.05807  0.35018  0.34448  1.0000
  H   H143      1.0  0.04419  0.12254  0.37078  1.0000
  S   S36       1.0  0.22731  0.00671  0.35727  1.0000
  H   H144      1.0  0.05006  0.35972  0.35661  1.0000
  H   H145      1.0  0.06345  0.29756  0.33954  1.0000
  H   H146      1.0  0.01221  0.08284  0.36238  1.0000
  S   S37       1.0  0.42119  0.00108  0.21787  1.0000
  H   H147      1.0  0.38968  0.07687  0.26489  1.0000
  H   H148      1.0  0.37446  0.02112  0.27901  1.0000
  H   H149      1.0  0.41955  0.02313  0.25474  1.0000
  H   H150      1.0  0.28528  0.03121  0.38000  1.0000
  H   H151      1.0  0.46956  0.99976  0.35364  1.0000
  H   H152      1.0  0.44455  0.10699  0.30207  1.0000
  C   C97       1.0  0.00264  0.09921  0.36343  1.0000
  N   N12       1.0  0.01357  0.11084  0.37453  1.0000
  H   H153      1.0  0.01242  0.38278  0.21453  1.0000
  S   S38       1.0  0.03607  0.39742  0.37850  1.0000
  C   C98       1.0  0.06462  0.31700  0.37134  1.0000
  S   S39       1.0  0.18352  0.04554  0.38654  1.0000
  Fe  Fe20      1.0  0.00528  0.40701  0.31063  1.0000
  H   H154      1.0  0.02282  0.33449  0.36793  1.0000
  C   C99       1.0  0.06554  0.31511  0.33479  1.0000
  H   H155      1.0  0.05854  0.32229  0.31960  1.0000
  H   H156      1.0  0.49061  0.03134  0.38447  1.0000
  H   H157      1.0  0.08337  0.31574  0.33146  1.0000
  C   C100      1.0  0.48097  0.11804  0.27669  1.0000
  H   H158      1.0  0.12469  0.01648  0.37770  1.0000
  H   H159      1.0  0.00821  0.14165  0.38392  1.0000
  S   S40       1.0  0.00440  0.38160  0.34089  1.0000
  C   C101      1.0  0.11275  0.08012  0.38524  1.0000
  H   H160      1.0  0.10559  0.99846  0.37931  1.0000
  H   H161      1.0  0.26469  0.01878  0.37362  1.0000
  H   H162      1.0  0.07566  0.35182  0.34168  1.0000
  H   H163      1.0  0.44867  0.14593  0.29217  1.0000
  H   H164      1.0  0.46640  0.12101  0.26821  1.0000
  C   C102      1.0  0.26747  0.03042  0.38269  1.0000
  H   H165      1.0  0.45835  0.14299  0.31720  1.0000
  H   H166      1.0  0.25884  0.04687  0.37565  1.0000
  H   H167      1.0  0.05689  0.32561  0.38422  1.0000
  H   H168      1.0  0.49210  0.00112  0.23704  1.0000
  C   C103      1.0  0.00022  0.13231  0.37590  1.0000
  H   H169      1.0  0.46220  0.04271  0.38483  1.0000
  C   C104      1.0  0.44922  0.03000  0.19882  1.0000
  C   C105      1.0  0.46973  0.03654  0.19552  1.0000
  H   H170      1.0  0.00385  0.46394  0.22911  1.0000
  H   H171      1.0  0.43511  0.01944  0.38490  1.0000
  C   C106      1.0  0.99573  0.44929  0.23614  1.0000
  H   H172      1.0  0.49011  0.10167  0.27527  1.0000
  Fe  Fe21      1.0  0.47373  0.11371  0.19038  1.0000
  C   C107      1.0  0.49451  0.11401  0.30997  1.0000
  S   S41       1.0  0.49444  0.07877  0.24291  1.0000
  Fe  Fe22      1.0  0.04570  0.27683  0.51206  1.0000
  S   S42       1.0  0.08161  0.27539  0.51059  1.0000
  H   H173      1.0  0.00539  0.27639  0.50470  1.0000
  Fe  Fe23      1.0  0.04590  0.29548  0.46471  1.0000
  S   S43       1.0  0.08208  0.29532  0.45888  1.0000
  Fe  Fe24      1.0  0.08402  0.26238  0.48129  1.0000
  S   S44       1.0  0.10649  0.23135  0.47779  1.0000
  Fe  Fe25      1.0  0.07624  0.30837  0.48863  1.0000
  S   S45       1.0  0.09357  0.33512  0.49110  1.0000
  S   S46       1.0  0.04840  0.26127  0.48434  1.0000
  S   S47       1.0  0.03982  0.31106  0.49272  1.0000
  Fe  Fe26      1.0  0.06662  0.10956  0.45788  1.0000
  S   S48       1.0  0.09090  0.12310  0.43086  1.0000
  S   S49       1.0  0.07839  0.08593  0.48674  1.0000
  C   C108      1.0  0.03235  0.37227  0.39558  1.0000
  S   S50       1.0  0.04882  0.09590  0.43854  1.0000
  S   S51       1.0  0.04324  0.14134  0.45600  1.0000
  H   H174      1.0  0.17470  0.04923  0.52233  1.0000
  H   H175      1.0  0.01674  0.41573  0.44278  1.0000
  H   H176      1.0  0.07953  0.01767  0.40444  1.0000
  Fe  Fe27      1.0  0.06593  0.15349  0.42693  1.0000
  Fe  Fe28      1.0  0.36795  0.00536  0.52205  1.0000
  H   H177      1.0  0.05841  0.33162  0.43127  1.0000
  C   C109      1.0  0.27225  0.00881  0.54796  1.0000
  S   S52       1.0  0.04968  0.39109  0.55874  1.0000
  Fe  Fe29      1.0  0.02773  0.12877  0.43392  1.0000
  S   S53       1.0  0.36627  0.05180  0.57433  1.0000
  C   C110      1.0  0.01610  0.25616  0.44135  1.0000
  C   C111      1.0  0.02494  0.22715  0.42225  1.0000
  H   H178      1.0  0.45741  0.02949  0.53095  1.0000
  H   H179      1.0  0.16717  0.04024  0.48998  1.0000
  C   C112      1.0  0.34427  0.01775  0.47026  1.0000
  C   C113      1.0  0.02976  0.21954  0.45942  1.0000
  H   H180      1.0  0.09856  0.03587  0.40276  1.0000
  H   H181      1.0  0.39890  0.05379  0.53747  1.0000
  H   H182      1.0  0.18927  0.05299  0.47418  1.0000
  C   C114      1.0  0.09737  0.06456  0.47857  1.0000
  C   C115      1.0  0.10778  0.04792  0.49355  1.0000
  C   C116      1.0  0.12515  0.03266  0.48682  1.0000
  C   C117      1.0  0.13195  0.03395  0.46511  1.0000
  C   C118      1.0  0.12040  0.04951  0.45029  1.0000
  C   C119      1.0  0.10323  0.06480  0.45695  1.0000
  H   H183      1.0  0.10292  0.04730  0.51032  1.0000
  H   H184      1.0  0.04180  0.30687  0.53985  1.0000
  H   H185      1.0  0.12526  0.05025  0.43354  1.0000
  H   H186      1.0  0.09497  0.07709  0.44522  1.0000
  C   C120      1.0  0.04579  0.34050  0.42172  1.0000
  C   C121      1.0  0.09757  0.21907  0.46029  1.0000
  C   C122      1.0  0.09159  0.23168  0.44085  1.0000
  C   C123      1.0  0.08458  0.22185  0.42679  1.0000
  C   C124      1.0  0.08256  0.19961  0.43252  1.0000
  C   C125      1.0  0.08837  0.18699  0.45202  1.0000
  C   C126      1.0  0.09621  0.19667  0.46576  1.0000
  H   H187      1.0  0.09284  0.24892  0.43651  1.0000
  H   H188      1.0  0.08688  0.16980  0.45649  1.0000
  H   H189      1.0  0.10082  0.18692  0.48082  1.0000
  N   N13       1.0  0.25969  0.02355  0.40557  1.0000
  C   C127      1.0  0.03253  0.40438  0.44311  1.0000
  H   H190      1.0  0.44346  0.04954  0.51114  1.0000
  C   C128      1.0  0.06170  0.37608  0.53953  1.0000
  C   C129      1.0  0.08415  0.37427  0.53286  1.0000
  C   C130      1.0  0.09376  0.36192  0.51772  1.0000
  C   C131      1.0  0.08109  0.35076  0.50974  1.0000
  C   C132      1.0  0.05870  0.35234  0.51667  1.0000
  C   C133      1.0  0.04896  0.36536  0.53118  1.0000
  H   H191      1.0  0.09405  0.38260  0.53926  1.0000
  H   H192      1.0  0.11110  0.36077  0.51241  1.0000
  H   H193      1.0  0.04877  0.34369  0.51084  1.0000
  H   H194      1.0  0.03162  0.36667  0.53630  1.0000
  H   H195      1.0  0.24825  0.03436  0.53312  1.0000
  Fe  Fe30      1.0  0.01360  0.39823  0.55794  1.0000
  C   C134      1.0  0.05292  0.37105  0.46128  1.0000
  H   H196      1.0  0.22676  0.03989  0.40219  1.0000
  C   C135      1.0  0.34292  0.01643  0.43355  1.0000
  H   H197      1.0  0.03630  0.39908  0.42771  1.0000
  C   C136      1.0  0.26446  0.03899  0.41708  1.0000
  H   H198      1.0  0.28230  0.03947  0.41516  1.0000
  H   H199      1.0  0.28903  0.00076  0.41174  1.0000
  C   C137      1.0  0.25173  0.01732  0.54100  1.0000
  C   C138      1.0  0.01051  0.34336  0.41043  1.0000
  N   N14       1.0  0.43178  0.05230  0.54336  1.0000
  H   H200      1.0  0.39534  0.00711  0.44445  1.0000
  H   H201      1.0  0.06360  0.36717  0.40668  1.0000
  H   H202      1.0  0.06591  0.37903  0.46444  1.0000
  H   H203      1.0  0.99795  0.38337  0.46103  1.0000
  Fe  Fe31      1.0  0.17712  0.99659  0.47919  1.0000
  N   N15       1.0  0.11209  0.00170  0.40959  1.0000
  H   H204      1.0  0.05227  0.35570  0.47362  1.0000
  C   C139      1.0  0.48525  0.04059  0.58028  1.0000
  C   C140      1.0  0.13048  0.00541  0.41887  1.0000
  H   H205      1.0  0.04179  0.23085  0.41704  1.0000
  S   S54       1.0  0.00217  0.40895  0.52612  1.0000
  C   C141      1.0  0.04868  0.36063  0.40788  1.0000
  H   H206      1.0  0.02281  0.10678  0.40539  1.0000
  S   S55       1.0  0.07155  0.18847  0.41544  1.0000
  H   H207      1.0  0.99698  0.09245  0.45250  1.0000
  H   H208      1.0  0.31464  0.02323  0.45595  1.0000
  S   S56       1.0  0.04909  0.14269  0.40475  1.0000
  Fe  Fe32      1.0  0.36013  0.02331  0.56245  1.0000
  Fe  Fe33      1.0  0.07185  0.11099  0.41132  1.0000
  H   H209      1.0  0.00015  0.09382  0.40520  1.0000
  H   H210      1.0  0.04347  0.32689  0.58786  1.0000
  H   H211      1.0  0.02566  0.20942  0.42297  1.0000
  S   S57       1.0  0.38279  0.01132  0.48749  1.0000
  C   C142      1.0  0.02630  0.39333  0.48133  1.0000
  H   H212      1.0  0.33604  0.02051  0.48549  1.0000
  H   H213      1.0  0.00653  0.22403  0.56029  1.0000
  H   H214      1.0  0.47217  0.02451  0.40811  1.0000
  H   H215      1.0  0.19766  0.06077  0.50701  1.0000
  H   H216      1.0  0.07163  0.32951  0.55726  1.0000
  C   C143      1.0  0.44662  0.06767  0.54332  1.0000
  H   H217      1.0  0.03285  0.26041  0.43660  1.0000
  C   C144      1.0  0.41041  0.06482  0.53804  1.0000
  H   H218      1.0  0.13349  0.02031  0.49845  1.0000
  C   C145      1.0  0.02668  0.33189  0.42301  1.0000
  H   H219      1.0  0.19208  0.09089  0.47471  1.0000
  H   H220      1.0  0.00565  0.26667  0.42941  1.0000
  H   H221      1.0  0.01479  0.23658  0.40965  1.0000
  H   H222      1.0  0.37409  0.00989  0.41498  1.0000
  S   S58       1.0  0.02268  0.30692  0.44023  1.0000
  H   H223      1.0  0.13994  0.08952  0.51089  1.0000
  S   S59       1.0  0.02513  0.26402  0.54246  1.0000
  H   H224      1.0  0.00984  0.26094  0.45676  1.0000
  H   H225      1.0  0.02280  0.22246  0.47549  1.0000
  S   S60       1.0  0.32745  0.01843  0.41287  1.0000
  H   H226      1.0  0.16529  0.09972  0.46665  1.0000
  H   H227      1.0  0.28454  0.01924  0.54545  1.0000
  H   H228      1.0  0.44833  0.07964  0.52784  1.0000
  H   H229      1.0  0.13824  0.06166  0.51153  1.0000
  H   H230      1.0  0.43044  0.02720  0.52712  1.0000
  H   H231      1.0  0.16225  0.06140  0.46677  1.0000
  N   N16       1.0  0.01614  0.23266  0.44300  1.0000
  S   S61       1.0  0.15566  0.01770  0.45570  1.0000
  H   H232      1.0  0.03927  0.40183  0.48373  1.0000
  H   H233      1.0  0.04424  0.27051  0.58056  1.0000
  H   H234      1.0  0.05842  0.36624  0.44585  1.0000
  C   C146      1.0  0.00741  0.25143  0.53347  1.0000
  C   C147      1.0  0.48860  0.07497  0.58815  1.0000
  S   S62       1.0  0.33847  0.02423  0.53784  1.0000
  C   C148      1.0  0.37771  0.01047  0.44703  1.0000
  H   H235      1.0  0.46324  0.05888  0.54606  1.0000
  H   H236      1.0  0.17732  0.07675  0.52223  1.0000
  C   C149      1.0  0.44710  0.00495  0.39107  1.0000
  H   H237      1.0  0.13569  0.02154  0.41106  1.0000
  N   N17       1.0  0.05427  0.30221  0.56951  1.0000
  H   H238      1.0  0.06448  0.27276  0.55777  1.0000
  C   C150      1.0  0.17172  0.05616  0.48057  1.0000
  H   H239      1.0  0.04653  0.22374  0.45613  1.0000
  C   C151      1.0  0.17435  0.09332  0.48070  1.0000
  C   C152      1.0  0.23589  0.02345  0.40858  1.0000
  H   H240      1.0  0.17124  0.10626  0.49003  1.0000
  C   C153      1.0  0.01328  0.36361  0.39682  1.0000
  N   N18       1.0  0.03156  0.38548  0.46137  1.0000
  C   C154      1.0  0.36705  0.01316  0.46708  1.0000
  C   C155      1.0  0.42892  0.03765  0.56463  1.0000
  H   H241      1.0  0.44070  0.07703  0.55603  1.0000
  H   H242      1.0  0.25617  0.05591  0.41114  1.0000
  H   H243      1.0  0.02179  0.30299  0.56279  1.0000
  C   C156      1.0  0.27103  0.00134  0.41395  1.0000
  C   C157      1.0  0.00100  0.23160  0.54502  1.0000
  C   C158      1.0  0.23589  0.00372  0.54387  1.0000
  C   C159      1.0  0.36570  0.01200  0.43034  1.0000
  H   H244      1.0  0.42348  0.04703  0.57733  1.0000
  H   H245      1.0  0.08051  0.23156  0.41155  1.0000
  H   H246      1.0  0.08812  0.30461  0.56835  1.0000
  H   H247      1.0  0.99577  0.33664  0.41135  1.0000
  H   H248      1.0  0.22942  0.01849  0.42567  1.0000
  H   H249      1.0  0.40255  0.07446  0.55015  1.0000
  H   H250      1.0  0.30606  0.99806  0.49161  1.0000
  H   H251      1.0  0.02442  0.37952  0.49533  1.0000
  C   C160      1.0  0.33223  0.01939  0.45352  1.0000
  S   S63       1.0  0.49296  0.02122  0.56423  1.0000
  C   C161      1.0  0.14388  0.07677  0.50131  1.0000
  H   H252      1.0  0.13393  0.08238  0.48786  1.0000
  C   C162      1.0  0.17982  0.06462  0.51208  1.0000
  N   N19       1.0  0.16745  0.07273  0.49367  1.0000
  C   C163      1.0  0.14791  0.07438  0.39815  1.0000
  H   H253      1.0  0.15798  0.07776  0.40842  1.0000
  C   C164      1.0  0.44119  0.03906  0.52741  1.0000
  H   H254      1.0  0.07934  0.30806  0.54286  1.0000
  H   H255      1.0  0.41640  0.02713  0.56580  1.0000
  H   H256      1.0  0.12592  0.00523  0.43608  1.0000
  H   H257      1.0  0.01372  0.35844  0.47319  1.0000
  H   H258      1.0  0.14506  0.99279  0.41723  1.0000
  S   S64       1.0  0.20987  0.00375  0.48172  1.0000
  H   H259      1.0  0.08834  0.02085  0.42819  1.0000
  C   C165      1.0  0.09376  0.01976  0.41132  1.0000
  H   H260      1.0  0.26585  0.99576  0.43127  1.0000
  H   H261      1.0  0.11965  0.09599  0.40824  1.0000
  H   H262      1.0  0.04541  0.41388  0.44376  1.0000
  H   H263      1.0  0.41191  0.07634  0.52228  1.0000
  C   C166      1.0  0.12609  0.08470  0.39811  1.0000
  H   H264      1.0  0.03179  0.32854  0.55375  1.0000
  C   C167      1.0  0.01438  0.37321  0.45995  1.0000
  C   C168      1.0  0.07419  0.31147  0.55904  1.0000
  S   S65       1.0  0.38996  0.00729  0.54486  1.0000
  H   H265      1.0  0.44438  0.02667  0.56844  1.0000
  S   S66       1.0  0.21064  0.01413  0.53426  1.0000
  H   H266      1.0  0.01065  0.40488  0.48165  1.0000
  H   H267      1.0  0.23163  0.01186  0.40029  1.0000
  C   C169      1.0  0.05900  0.27810  0.57305  1.0000
  H   H268      1.0  0.03140  0.20170  0.46017  1.0000
  C   C170      1.0  0.47380  0.02770  0.39044  1.0000
  H   H269      1.0  0.01723  0.36765  0.44480  1.0000
  C   C171      1.0  0.03668  0.31056  0.55588  1.0000
  H   H270      1.0  0.44397  0.00149  0.40874  1.0000
  H   H271      1.0  0.25895  0.03418  0.43442  1.0000
  H   H272      1.0  0.02740  0.08204  0.39594  1.0000
  C   C172      1.0  0.00066  0.26096  0.51362  1.0000
  H   H273      1.0  0.07204  0.27109  0.58343  1.0000
  C   C173      1.0  0.01609  0.09770  0.39618  1.0000
  C   C174      1.0  0.36737  0.02740  0.63773  1.0000
  H   H274      1.0  0.46074  0.02333  0.60106  1.0000
  S   S67       1.0  0.46636  0.09069  0.62224  1.0000
  H   H275      1.0  0.47285  0.01638  0.68958  1.0000
  C   C175      1.0  0.35573  0.09105  0.68909  1.0000
  H   H276      1.0  0.31362  0.12036  0.66290  1.0000
  H   H277      1.0  0.31506  0.11361  0.69102  1.0000
  S   S68       1.0  0.46817  0.03747  0.72397  1.0000
  C   C176      1.0  0.49064  0.02172  0.71253  1.0000
  C   C177      1.0  0.39038  0.05552  0.62674  1.0000
  C   C178      1.0  0.46850  0.03778  0.59732  1.0000
  S   S69       1.0  0.02350  0.47351  0.73181  1.0000
  H   H278      1.0  0.39258  0.07161  0.59358  1.0000
  H   H279      1.0  0.35969  0.01553  0.65008  1.0000
  H   H280      1.0  0.36518  0.10460  0.68745  1.0000
  C   C179      1.0  0.46205  0.05338  0.60995  1.0000
  C   C180      1.0  0.03976  0.47970  0.76583  1.0000
  H   H281      1.0  0.34065  0.06227  0.67345  1.0000
  Fe  Fe34      1.0  0.44535  0.08104  0.65342  1.0000
  S   S70       1.0  0.45125  0.08870  0.68353  1.0000
  Fe  Fe35      1.0  0.40838  0.05674  0.67475  1.0000
  S   S71       1.0  0.41086  0.06140  0.70711  1.0000
  S   S72       1.0  0.38414  0.03726  0.66971  1.0000
  Fe  Fe36      1.0  0.41491  0.09581  0.69069  1.0000
  S   S73       1.0  0.39662  0.12026  0.70972  1.0000
  Fe  Fe37      1.0  0.44690  0.05415  0.69848  1.0000
  H   H282      1.0  0.42693  0.00443  0.60956  1.0000
  S   S74       1.0  0.40914  0.09200  0.65883  1.0000
  S   S75       1.0  0.44418  0.04564  0.66774  1.0000
  C   C181      1.0  0.02342  0.47199  0.75897  1.0000
  H   H283      1.0  0.35295  0.02065  0.61284  1.0000
  C   C182      1.0  0.41226  0.12526  0.72754  1.0000
  C   C183      1.0  0.43478  0.12491  0.72224  1.0000
  C   C184      1.0  0.44730  0.12793  0.73681  1.0000
  C   C185      1.0  0.43750  0.13109  0.75693  1.0000
  C   C186      1.0  0.41491  0.13173  0.76224  1.0000
  C   C187      1.0  0.40231  0.12899  0.74750  1.0000
  H   H284      1.0  0.44256  0.12263  0.70676  1.0000
  H   H285      1.0  0.46470  0.12759  0.73249  1.0000
  H   H286      1.0  0.46665  0.04910  0.76708  1.0000
  H   H287      1.0  0.38487  0.12947  0.75167  1.0000
  H   H288      1.0  0.05069  0.37855  0.77659  1.0000
  H   H289      1.0  0.41390  0.99974  0.69243  1.0000
  H   H290      1.0  0.43255  0.05908  0.75008  1.0000
  S   S76       1.0  0.00034  0.39868  0.68722  1.0000
  H   H291      1.0  0.40096  0.06517  0.63042  1.0000
  H   H292      1.0  0.48237  0.19597  0.77881  1.0000
  H   H293      1.0  0.03295  0.40131  0.76326  1.0000
  C   C188      1.0  0.48823  0.01318  0.69558  1.0000
  H   H294      1.0  0.36270  0.11387  0.64876  1.0000
  H   H295      1.0  0.31944  0.07390  0.69131  1.0000
  N   N20       1.0  0.34084  0.09610  0.67273  1.0000
  C   C189      1.0  0.35358  0.09992  0.65138  1.0000
  H   H296      1.0  0.36770  0.07598  0.68793  1.0000
  H   H297      1.0  0.44912  0.05102  0.62301  1.0000
  C   C190      1.0  0.38077  0.04004  0.64288  1.0000
  H   H298      1.0  0.05208  0.48727  0.75430  1.0000
  C   C191      1.0  0.32502  0.11595  0.67510  1.0000
  N   N21       1.0  0.43512  0.06169  0.78170  1.0000
  H   H299      1.0  0.03213  0.30207  0.59842  1.0000
  C   C192      1.0  0.38577  0.05902  0.60580  1.0000
  C   C193      1.0  0.00751  0.46233  0.77395  1.0000
  H   H300      1.0  0.33347  0.13023  0.67336  1.0000
  H   H301      1.0  0.31774  0.08066  0.66321  1.0000
  C   C194      1.0  0.45914  0.06004  0.77814  1.0000
  H   H302      1.0  0.01473  0.39120  0.64519  1.0000
  C   C195      1.0  0.32910  0.07746  0.67532  1.0000
  H   H303      1.0  0.36572  0.08527  0.64918  1.0000
  C   C196      1.0  0.37244  0.04634  0.60061  1.0000
  Fe  Fe38      1.0  0.99665  0.45785  0.72615  1.0000
  H   H304      1.0  0.34295  0.10351  0.63859  1.0000
  H   H305      1.0  0.00038  0.41869  0.78398  1.0000
  H   H306      1.0  0.34671  0.08832  0.70543  1.0000
  C   C197      1.0  0.42649  0.07031  0.76113  1.0000
  H   H307      1.0  0.02329  0.37572  0.77440  1.0000
  H   H308      1.0  0.06004  0.30277  0.60081  1.0000
  C   C198      1.0  0.36351  0.03028  0.61661  1.0000
  C   C199      1.0  0.04055  0.47715  0.78765  1.0000
  H   H309      1.0  0.43604  0.02805  0.78096  1.0000
  H   H310      1.0  0.43172  0.08626  0.75303  1.0000
  C   C200      1.0  0.47239  0.07183  0.60563  1.0000
  C   C201      1.0  0.03350  0.38703  0.77705  1.0000
  H   H311      1.0  0.46851  0.17272  0.78410  1.0000
  H   H312      1.0  0.40835  0.07288  0.76309  1.0000
  C   C202      1.0  0.04717  0.30872  0.59009  1.0000
  S   S77       1.0  0.45420  0.13365  0.77504  1.0000
  H   H313      1.0  0.46420  0.07637  0.77099  1.0000
  H   H314      1.0  0.40712  0.13445  0.77761  1.0000
  S   S78       1.0  0.99596  0.42218  0.73890  1.0000
  C   C203      1.0  0.99708  0.39365  0.64749  1.0000
  H   H315      1.0  0.03876  0.42413  0.78575  1.0000
  H   H316      1.0  0.47858  0.99617  0.75361  1.0000
  C   C204      1.0  0.30328  0.48604  0.91107  1.0000
  Fe  Fe39      1.0  0.37023  0.41706  0.94949  1.0000
  H   H317      1.0  0.44773  0.15074  0.92565  1.0000
  S   S79       1.0  0.35317  0.45201  0.94280  1.0000
  H   H318      1.0  0.33963  0.15606  0.94895  1.0000
  S   S80       1.0  0.39969  0.40192  0.93022  1.0000
  S   S81       1.0  0.35126  0.21318  0.95321  1.0000
  S   S82       1.0  0.12099  0.48147  0.85596  1.0000
  S   S83       1.0  0.38431  0.23945  0.96809  1.0000
  S   S84       1.0  0.32750  0.27333  0.96577  1.0000
  Fe  Fe40      1.0  0.34836  0.24010  0.97066  1.0000
  Fe  Fe41      1.0  0.38726  0.21093  0.95306  1.0000
  S   S85       1.0  0.41335  0.20504  0.92623  1.0000
  H   H319      1.0  0.45441  0.12983  0.96231  1.0000
  C   C205      1.0  0.16047  0.49068  0.85958  1.0000
  H   H320      1.0  0.39904  0.13588  0.94257  1.0000
  H   H321      1.0  0.09428  0.47682  0.91088  1.0000
  H   H322      1.0  0.39410  0.15040  0.91626  1.0000
  Fe  Fe42      1.0  0.04527  0.48267  0.84074  1.0000
  H   H323      1.0  0.46331  0.31978  0.94614  1.0000
  Fe  Fe43      1.0  0.43058  0.09562  0.85008  1.0000
  C   C206      1.0  0.30227  0.47361  0.89651  1.0000
  S   S86       1.0  0.42117  0.06209  0.86317  1.0000
  Fe  Fe44      1.0  0.41074  0.14319  0.84696  1.0000
  C   C207      1.0  0.35687  0.13564  0.91645  1.0000
  S   S87       1.0  0.38226  0.16600  0.85895  1.0000
  Fe  Fe45      1.0  0.45864  0.12961  0.85105  1.0000
  H   H324      1.0  0.25839  0.40291  0.97635  1.0000
  H   H325      1.0  0.40259  0.25647  0.91854  1.0000
  S   S88       1.0  0.42866  0.11872  0.87149  1.0000
  C   C208      1.0  0.45676  0.04069  0.84134  1.0000
  C   C209      1.0  0.43669  0.03931  0.85417  1.0000
  C   C210      1.0  0.42846  0.01946  0.85968  1.0000
  H   H326      1.0  0.38851  0.47800  0.94213  1.0000
  H   H327      1.0  0.14069  0.46517  0.92486  1.0000
  S   S89       1.0  0.39875  0.35845  0.96946  1.0000
  H   H328      1.0  0.04472  0.36648  0.81567  1.0000
  S   S90       1.0  0.06219  0.47303  0.86999  1.0000
  H   H329      1.0  0.48292  0.36071  0.94102  1.0000
  C   C211      1.0  0.47463  0.20095  0.86245  1.0000
  H   H330      1.0  0.46621  0.17399  0.96507  1.0000
  C   C212      1.0  0.25827  0.48017  0.97587  1.0000
  H   H331      1.0  0.46301  0.21484  0.85606  1.0000
  H   H332      1.0  0.44379  0.25004  0.87183  1.0000
  C   C213      1.0  0.40456  0.19698  0.90570  1.0000
  C   C214      1.0  0.41987  0.18568  0.89254  1.0000
  C   C215      1.0  0.41309  0.17667  0.87776  1.0000
  C   C216      1.0  0.39097  0.17954  0.87555  1.0000
  C   C217      1.0  0.37573  0.19214  0.88771  1.0000
  C   C218      1.0  0.38253  0.20081  0.90283  1.0000
  H   H333      1.0  0.43696  0.18343  0.89405  1.0000
  H   H334      1.0  0.42500  0.16719  0.86833  1.0000
  H   H335      1.0  0.35863  0.19476  0.88576  1.0000
  H   H336      1.0  0.37071  0.21040  0.91219  1.0000
  H   H337      1.0  0.46338  0.05581  0.83729  1.0000
  H   H338      1.0  0.35882  0.17091  0.93039  1.0000
  H   H339      1.0  0.31180  0.42051  0.95280  1.0000
  H   H340      1.0  0.16412  0.47345  0.86677  1.0000
  S   S91       1.0  0.38912  0.18635  0.98384  1.0000
  H   H341      1.0  0.47292  0.18357  0.80567  1.0000
  S   S92       1.0  0.46246  0.10392  0.83189  1.0000
  H   H342      1.0  0.12418  0.48825  0.95041  1.0000
  C   C219      1.0  0.45997  0.00261  0.83917  1.0000
  C   C220      1.0  0.46085  0.41969  0.93717  1.0000
  H   H343      1.0  0.35951  0.15008  0.90327  1.0000
  H   H344      1.0  0.34557  0.11614  0.95732  1.0000
  H   H345      1.0  0.44411  0.42429  0.93391  1.0000
  C   C221      1.0  0.46014  0.17214  0.95073  1.0000
  C   C222      1.0  0.34801  0.33215  0.94499  1.0000
  C   C223      1.0  0.33508  0.31577  0.95439  1.0000
  H   H346      1.0  0.34302  0.34835  0.94804  1.0000
  S   S93       1.0  0.44750  0.38503  0.96859  1.0000
  H   H347      1.0  0.23649  0.47784  0.93273  1.0000
  H   H348      1.0  0.41294  0.01832  0.86960  1.0000
  H   H349      1.0  0.42984  0.28893  0.86932  1.0000
  C   C224      1.0  0.34174  0.29452  0.95101  1.0000
  H   H350      1.0  0.43139  0.07025  0.81210  1.0000
  S   S94       1.0  0.35251  0.38826  0.95627  1.0000
  C   C225      1.0  0.47700  0.43197  0.92527  1.0000
  C   C226      1.0  0.27085  0.41322  0.96755  1.0000
  C   C227      1.0  0.48823  0.16197  0.86800  1.0000
  H   H351      1.0  0.45479  0.34047  0.96142  1.0000
  S   S95       1.0  0.02710  0.46082  0.82999  1.0000
  Fe  Fe46      1.0  0.41292  0.38954  0.96148  1.0000
  Fe  Fe47      1.0  0.35289  0.19027  0.98522  1.0000
  C   C228      1.0  0.31671  0.45389  0.89659  1.0000
  C   C229      1.0  0.33209  0.44672  0.91111  1.0000
  C   C230      1.0  0.33313  0.45936  0.92550  1.0000
  S   S96       1.0  0.38411  0.34749  0.91997  1.0000
  C   C231      1.0  0.36331  0.11644  0.95212  1.0000
  H   H352      1.0  0.34341  0.43169  0.91086  1.0000
  H   H353      1.0  0.44314  0.23127  0.89702  1.0000
  C   C232      1.0  0.23708  0.47988  0.94854  1.0000
  C   C233      1.0  0.29930  0.38865  0.98580  1.0000
  H   H354      1.0  0.37077  0.11621  0.96644  1.0000
  H   H355      1.0  0.36539  0.15721  0.95642  1.0000
  H   H356      1.0  0.44271  0.16999  0.95521  1.0000
  H   H357      1.0  0.32026  0.31939  0.96484  1.0000
  H   H358      1.0  0.46086  0.17804  0.85132  1.0000
  H   H359      1.0  0.42585  0.21044  0.98652  1.0000
  C   C234      1.0  0.25719  0.47612  0.95614  1.0000
  C   C235      1.0  0.48821  0.39566  0.95740  1.0000
  C   C236      1.0  0.45067  0.25450  0.98143  1.0000
  N   N22       1.0  0.47334  0.15360  0.94229  1.0000
  H   H360      1.0  0.43094  0.09300  0.78983  1.0000
  C   C237      1.0  0.47156  0.13299  0.95832  1.0000
  N   N23       1.0  0.28852  0.41163  0.98036  1.0000
  C   C238      1.0  0.02509  0.46674  0.80264  1.0000
  H   H361      1.0  0.02989  0.48888  0.95609  1.0000
  C   C239      1.0  0.46613  0.32496  0.96037  1.0000
  H   H362      1.0  0.46710  0.16759  0.91026  1.0000
  Fe  Fe48      1.0  0.44171  0.12923  0.81007  1.0000
  S   S97       1.0  0.49119  0.23020  0.87734  1.0000
  H   H363      1.0  0.36389  0.12084  0.90997  1.0000
  H   H364      1.0  0.13369  0.47257  0.89831  1.0000
  H   H365      1.0  0.99605  0.41023  0.81231  1.0000
  S   S98       1.0  0.28362  0.47816  0.98414  1.0000
  C   C240      1.0  0.13644  0.47930  0.91164  1.0000
  C   C241      1.0  0.46651  0.40151  0.95334  1.0000
  H   H366      1.0  0.99653  0.45137  0.80721  1.0000
  C   C242      1.0  0.02752  0.37480  0.81525  1.0000
  H   H367      1.0  0.30605  0.38224  0.97127  1.0000
  C   C243      1.0  0.46529  0.15247  0.92274  1.0000
  H   H368      1.0  0.48814  0.48516  0.96095  1.0000
  C   C244      1.0  0.31846  0.47882  0.92565  1.0000
  C   C245      1.0  0.00843  0.45957  0.79572  1.0000
  Fe  Fe49      1.0  0.38309  0.37197  0.93986  1.0000
  H   H369      1.0  0.27190  0.47112  0.94621  1.0000
  S   S99       1.0  0.40992  0.11932  0.82705  1.0000
  C   C246      1.0  0.00255  0.40438  0.79745  1.0000
  H   H370      1.0  0.31833  0.42482  0.97701  1.0000
  H   H371      1.0  0.38749  0.30329  0.91622  1.0000
  C   C247      1.0  0.36713  0.32758  0.93140  1.0000
  C   C248      1.0  0.44006  0.00115  0.85221  1.0000
  C   C249      1.0  0.37304  0.30669  0.92704  1.0000
  H   H372      1.0  0.45140  0.23221  0.96134  1.0000
  S   S100      1.0  0.28338  0.48263  0.87794  1.0000
  H   H373      1.0  0.27731  0.40790  0.95240  1.0000
  C   C250      1.0  0.09801  0.48246  0.92453  1.0000
  H   H374      1.0  0.33894  0.13589  0.92048  1.0000
  H   H375      1.0  0.37327  0.28371  0.97803  1.0000
  H   H376      1.0  0.46053  0.18786  0.93875  1.0000
  H   H377      1.0  0.48727  0.13578  0.79920  1.0000
  C   C251      1.0  0.44526  0.23625  0.97654  1.0000
  C   C252      1.0  0.35732  0.15589  0.94303  1.0000
  C   C253      1.0  0.39077  0.13579  0.92888  1.0000
  C   C254      1.0  0.46835  0.02238  0.83382  1.0000
  H   H378      1.0  0.05355  0.48259  0.79280  1.0000
  H   H379      1.0  0.03304  0.41632  0.81414  1.0000
  H   H380      1.0  0.40773  0.07904  0.79856  1.0000
  H   H381      1.0  0.42721  0.24470  0.93002  1.0000
  H   H382      1.0  0.41690  0.27315  0.92832  1.0000
  H   H383      1.0  0.41976  0.29941  0.89273  1.0000
  H   H384      1.0  0.39861  0.12113  0.92247  1.0000
  S   S101      1.0  0.44055  0.15559  0.82768  1.0000
  C   C255      1.0  0.41904  0.25965  0.91979  1.0000
  H   H385      1.0  0.40397  0.28330  0.88406  1.0000
  C   C256      1.0  0.21902  0.49105  0.98072  1.0000
  N   N24       1.0  0.43193  0.26491  0.89863  1.0000
  H   H386      1.0  0.45270  0.28184  0.90957  1.0000
  C   C257      1.0  0.03903  0.40984  0.79950  1.0000
  H   H387      1.0  0.27317  0.48467  0.82842  1.0000
  N   N25       1.0  0.36706  0.13593  0.93512  1.0000
  H   H388      1.0  0.31609  0.44422  0.88531  1.0000
  C   C258      1.0  0.43426  0.24657  0.88791  1.0000
  C   C259      1.0  0.45372  0.26834  0.90125  1.0000
  H   H389      1.0  0.41812  0.24301  0.88617  1.0000
  C   C260      1.0  0.42085  0.28502  0.88562  1.0000
  C   C261      1.0  0.36056  0.29010  0.93702  1.0000
  H   H390      1.0  0.46248  0.25332  0.91080  1.0000
  H   H391      1.0  0.46404  0.27229  0.88564  1.0000
  H   H392      1.0  0.36540  0.27392  0.93383  1.0000
  H   H393      1.0  0.37040  0.10104  0.94673  1.0000
  H   H394      1.0  0.48387  0.02349  0.82390  1.0000
  H   H395      1.0  0.25524  0.48067  0.79875  1.0000
  H   H396      1.0  0.26231  0.43035  0.96330  1.0000
  S   S102      1.0  0.46661  0.27144  0.96255  1.0000
  H   H397      1.0  0.43503  0.03293  0.80699  1.0000
  H   H398      1.0  0.29723  0.44293  0.96368  1.0000
  C   C262      1.0  0.47342  0.18008  0.85968  1.0000
  C   C263      1.0  0.30467  0.42548  0.96796  1.0000
  H   H399      1.0  0.41165  0.48466  0.92293  1.0000
  H   H400      1.0  0.47723  0.13349  0.97337  1.0000
  H   H401      1.0  0.05642  0.40234  0.80028  1.0000
  H   H402      1.0  0.46628  0.05351  0.79329  1.0000
  Fe  Fe50      1.0  0.49304  0.25191  0.94447  1.0000
  C   C264      1.0  0.38299  0.29161  0.98575  1.0000
  H   H403      1.0  0.23427  0.48014  0.83463  1.0000
  C   C265      1.0  0.21823  0.48860  0.96025  1.0000
  S   S103      1.0  0.38487  0.40690  0.98015  1.0000
  H   H404      1.0  0.38627  0.30720  0.97453  1.0000
  S   S104      1.0  0.49217  0.21941  0.93776  1.0000
  H   H405      1.0  0.01754  0.36258  0.81411  1.0000
  H   H406      1.0  0.47458  0.13846  0.91599  1.0000
  S   S105      1.0  0.48668  0.13538  0.86557  1.0000
  H   H407      1.0  0.48166  0.11870  0.95259  1.0000
  H   H408      1.0  0.47266  0.44611  0.91287  1.0000
  N   N26       1.0  0.02566  0.39402  0.79731  1.0000
  H   H409      1.0  0.31883  0.48839  0.93707  1.0000
  H   H410      1.0  0.46133  0.31235  0.97459  1.0000
  H   H411      1.0  0.10094  0.46785  0.93765  1.0000
  H   H412      1.0  0.02175  0.37964  0.83074  1.0000
  H   H413      1.0  0.01912  0.45015  0.96850  1.0000
  Fe  Fe51      1.0  0.36950  0.37694  0.98529  1.0000
  C   C266      1.0  0.42587  0.07664  0.79615  1.0000
  C   C267      1.0  0.39356  0.48609  0.92534  1.0000
  H   H414      1.0  0.38897  0.47637  0.91522  1.0000
  H   H415      1.0  0.15094  0.48782  0.90612  1.0000
  H   H416      1.0  0.48057  0.34839  0.98164  1.0000
  N   N27       1.0  0.48912  0.32772  0.95916  1.0000
  C   C268      1.0  0.49047  0.20385  0.87378  1.0000
  H   H417      1.0  0.41100  0.04052  0.79401  1.0000
  H   H418      1.0  0.49275  0.38190  0.97002  1.0000
  C   C269      1.0  0.42903  0.03982  0.79131  1.0000
  C   C270      1.0  0.01293  0.45185  0.98508  1.0000
  C   C271      1.0  0.49225  0.33365  0.97878  1.0000
  H   H419      1.0  0.49341  0.34067  0.92542  1.0000
  H   H420      1.0  0.39889  0.28066  0.98765  1.0000
  C   C272      1.0  0.48041  0.18003  0.78995  1.0000
  C   C273      1.0  0.49443  0.34523  0.94053  1.0000
  H   H421      1.0  0.48991  0.14597  0.82166  1.0000
  H   H422      1.0  0.42135  0.71350  0.04255  1.0000
  H   H423      1.0  0.44988  0.85421  0.16660  1.0000
  C   C274      1.0  0.04115  0.52878  0.11216  1.0000
  C   C275      1.0  0.47481  0.83220  0.13877  1.0000
  S   S106      1.0  0.30828  0.52079  0.05801  1.0000
  H   H424      1.0  0.02719  0.57818  0.06600  1.0000
  H   H425      1.0  0.40405  0.96379  0.06084  1.0000
  C   C276      1.0  0.30797  0.58454  0.00777  1.0000
  H   H426      1.0  0.30503  0.65604  0.99175  1.0000
  H   H427      1.0  0.38252  0.88612  0.98975  1.0000
  C   C277      1.0  0.38534  0.75573  0.01940  1.0000
  H   H428      1.0  0.39205  0.71791  0.04804  1.0000
  C   C278      1.0  0.46422  0.98127  0.13282  1.0000
  C   C279      1.0  0.42476  0.74976  0.01206  1.0000
  S   S107      1.0  0.26044  0.50908  0.03041  1.0000
  C   C280      1.0  0.39526  0.97863  0.06638  1.0000
  S   S108      1.0  0.06478  0.50291  0.08627  1.0000
  Fe  Fe52      1.0  0.44135  0.91675  0.07433  1.0000
  N   N28       1.0  0.47067  0.85617  0.13669  1.0000
  S   S109      1.0  0.42506  0.93304  0.10143  1.0000
  Fe  Fe53      1.0  0.43210  0.90061  0.03662  1.0000
  S   S110      1.0  0.46748  0.89006  0.02654  1.0000
  S   S111      1.0  0.40809  0.89977  0.01508  1.0000
  H   H429      1.0  0.16840  0.52530  0.01147  1.0000
  Fe  Fe54      1.0  0.47178  0.92189  0.03287  1.0000
  H   H430      1.0  0.48963  0.84053  0.03241  1.0000
  S   S112      1.0  0.43338  0.88489  0.07114  1.0000
  S   S113      1.0  0.43627  0.93343  0.04066  1.0000
  H   H431      1.0  0.42588  0.76146  0.02182  1.0000
  C   C281      1.0  0.15294  0.53550  0.00638  1.0000
  C   C282      1.0  0.41785  0.85482  0.02325  1.0000
  C   C283      1.0  0.41638  0.83415  0.02015  1.0000
  H   H432      1.0  0.48832  0.82429  0.14840  1.0000
  C   C284      1.0  0.45727  0.97774  0.17079  1.0000
  S   S114      1.0  0.47328  0.91616  0.18300  1.0000
  H   H433      1.0  0.42843  0.85620  0.03411  1.0000
  C   C285      1.0  0.40302  0.83220  0.00583  1.0000
  C   C286      1.0  0.02289  0.56571  0.09992  1.0000
  H   H434      1.0  0.45757  0.55986  0.99355  1.0000
  H   H435      1.0  0.46855  0.96984  0.03684  1.0000
  Fe  Fe55      1.0  0.07363  0.51208  0.00406  1.0000
  H   H436      1.0  0.44927  0.88401  0.12149  1.0000
  H   H437      1.0  0.48939  0.91677  0.13942  1.0000
  H   H438      1.0  0.04971  0.54389  0.05821  1.0000
  C   C287      1.0  0.45964  0.92288  0.16027  1.0000
  H   H439      1.0  0.27310  0.58590  0.01136  1.0000
  C   C288      1.0  0.28830  0.57678  0.01653  1.0000
  H   H440      1.0  0.30236  0.53954  0.99385  1.0000
  C   C289      1.0  0.43871  0.92978  0.12373  1.0000
  H   H441      1.0  0.04527  0.51514  0.12511  1.0000
  H   H442      1.0  0.47099  0.92301  0.10729  1.0000
  C   C290      1.0  0.39201  0.87163  0.99825  1.0000
  C   C291      1.0  0.40655  0.72625  0.04169  1.0000
  H   H443      1.0  0.42615  0.98792  0.03291  1.0000
  H   H444      1.0  0.38986  0.97318  0.08369  1.0000
  C   C292      1.0  0.02793  0.54787  0.11653  1.0000
  H   H445      1.0  0.47950  0.82791  0.12290  1.0000
  H   H446      1.0  0.02200  0.54893  0.13281  1.0000
  C   C293      1.0  0.03088  0.56432  0.07888  1.0000
  C   C294      1.0  0.49063  0.86531  0.12610  1.0000
  C   C295      1.0  0.32749  0.55339  0.03032  1.0000
  H   H447      1.0  0.44006  0.73767  0.01238  1.0000
  S   S115      1.0  0.04606  0.50431  0.03007  1.0000
  H   H448      1.0  0.38939  0.71590  0.01110  1.0000
  H   H449      1.0  0.38367  0.76571  0.00312  1.0000
  H   H450      1.0  0.48809  0.88336  0.12395  1.0000
  C   C296      1.0  0.04886  0.52726  0.09115  1.0000
  H   H451      1.0  0.27312  0.55103  0.03855  1.0000
  H   H452      1.0  0.13932  0.52904  0.01786  1.0000
  Fe  Fe56      1.0  0.07089  0.49980  0.05227  1.0000
  H   H453      1.0  0.37025  0.74821  0.02502  1.0000
  C   C297      1.0  0.47182  0.92114  0.14054  1.0000
  C   C298      1.0  0.04364  0.54497  0.07446  1.0000
  H   H454      1.0  0.42601  0.81971  0.02854  1.0000
  H   H455      1.0  0.16033  0.50427  0.06514  1.0000
  H   H456      1.0  0.47806  0.85471  0.16800  1.0000
  C   C299      1.0  0.32756  0.57276  0.01459  1.0000
  C   C300      1.0  0.40571  0.87362  0.01225  1.0000
  N   N29       1.0  0.40517  0.73901  0.01971  1.0000
  H   H457      1.0  0.42464  0.75932  0.99542  1.0000
  H   H458      1.0  0.34279  0.57873  0.00800  1.0000
  H   H459      1.0  0.26277  0.54935  0.99157  1.0000
  C   C301      1.0  0.43698  0.92885  0.16151  1.0000
  S   S116      1.0  0.99832  0.57803  0.16984  1.0000
  C   C302      1.0  0.42657  0.93241  0.14327  1.0000
  H   H460      1.0  0.34267  0.54448  0.03572  1.0000
  H   H461      1.0  0.42738  0.93009  0.17664  1.0000
  H   H462      1.0  0.47181  0.96480  0.17314  1.0000
  H   H463      1.0  0.47895  0.96846  0.13439  1.0000
  C   C303      1.0  0.49109  0.97021  0.00811  1.0000
  H   H464      1.0  0.15299  0.55245  0.00797  1.0000
  S   S117      1.0  0.00601  0.58946  0.10530  1.0000
  C   C304      1.0  0.46142  0.92455  0.12235  1.0000
  H   H465      1.0  0.13701  0.50506  0.99344  1.0000
  C   C305      1.0  0.30792  0.54540  0.03881  1.0000
  H   H466      1.0  0.40743  0.73700  0.05250  1.0000
  H   H467      1.0  0.43723  0.85959  0.13140  1.0000
  H   H468      1.0  0.40898  0.93654  0.14448  1.0000
  H   H469      1.0  0.41880  0.71147  0.00559  1.0000
  H   H470      1.0  0.38572  0.76738  0.02948  1.0000
  S   S118      1.0  0.47754  0.90772  0.06676  1.0000
  C   C306      1.0  0.42865  0.98698  0.07361  1.0000
  Fe  Fe57      1.0  0.46944  0.87687  0.06121  1.0000
  S   S119      1.0  0.48754  0.84446  0.07662  1.0000
  S   S120      1.0  0.40375  0.80640  0.00036  1.0000
  S   S121      1.0  0.09716  0.51144  0.02653  1.0000
  C   C307      1.0  0.47836  0.97962  0.02434  1.0000
  S   S122      1.0  0.20663  0.49434  0.06425  1.0000
  C   C308      1.0  0.28831  0.55702  0.03181  1.0000
  C   C309      1.0  0.40404  0.72420  0.00587  1.0000
  H   H471      1.0  0.40283  0.73327  0.98918  1.0000
  H   H472      1.0  0.46006  0.82472  0.14648  1.0000
  H   H473      1.0  0.45657  0.86206  0.10779  1.0000
  H   H474      1.0  0.00654  0.50693  0.11404  1.0000
  C   C310      1.0  0.45264  0.86589  0.12381  1.0000
  C   C311      1.0  0.46463  0.86123  0.15799  1.0000
  S   S123      1.0  0.49146  0.94287  0.00695  1.0000
  H   H475      1.0  0.42385  0.98199  0.09107  1.0000
  H   H476      1.0  0.43822  0.97220  0.06838  1.0000
  H   H477      1.0  0.46086  0.87917  0.15694  1.0000
  H   H478      1.0  0.38043  0.98459  0.05819  1.0000
  C   C312      1.0  0.39065  0.85097  0.99502  1.0000
  H   H479      1.0  0.45022  0.97284  0.13305  1.0000
  H   H480      1.0  0.44295  0.96937  0.17224  1.0000
  H   H481      1.0  0.45451  0.98626  0.18414  1.0000
  H   H482      1.0  0.44998  0.92994  0.99533  1.0000
  H   H483      1.0  0.20456  0.49776  0.98991  1.0000
  H   H484      1.0  0.45078  0.81260  0.99006  1.0000
  Fe  Fe58      1.0  0.28624  0.49987  0.05211  1.0000
  H   H485      1.0  0.99709  0.49515  0.07363  1.0000
  C   C313      1.0  0.16640  0.49310  0.05466  1.0000
  H   H486      1.0  0.49444  0.99207  0.15140  1.0000
  H   H487      1.0  0.11564  0.54210  0.98891  1.0000
  H   H488      1.0  0.46675  0.99251  0.11696  1.0000
  C   C314      1.0  0.43827  0.92988  0.32150  1.0000
  N   N30       1.0  0.29238  0.95878  0.33051  1.0000
  C   C315      1.0  0.36644  0.93383  0.33176  1.0000
  C   C316      1.0  0.03008  0.68732  0.36159  1.0000
  H   H489      1.0  0.45584  0.98939  0.24271  1.0000
  H   H490      1.0  0.30777  0.94293  0.35847  1.0000
  H   H491      1.0  0.01311  0.50245  0.36129  1.0000
  S   S124      1.0  0.43421  0.94993  0.26412  1.0000
  H   H492      1.0  0.13980  0.69574  0.35255  1.0000
  C   C317      1.0  0.00011  0.50746  0.35140  1.0000
  C   C318      1.0  0.30375  0.94237  0.31824  1.0000
  C   C319      1.0  0.42994  0.96920  0.31063  1.0000
  H   H493      1.0  0.32173  0.97198  0.32890  1.0000
  H   H494      1.0  0.11151  0.72814  0.35384  1.0000
  Fe  Fe59      1.0  0.42489  0.92212  0.25429  1.0000
  C   C320      1.0  0.29121  0.94871  0.35348  1.0000
  H   H495      1.0  0.30516  0.94950  0.30085  1.0000
  S   S125      1.0  0.46991  0.95357  0.22112  1.0000
  H   H496      1.0  0.01881  0.63023  0.35955  1.0000
  C   C321      1.0  0.11394  0.72670  0.37060  1.0000
  H   H497      1.0  0.17429  0.95060  0.35324  1.0000
  C   C322      1.0  0.38618  0.91579  0.29672  1.0000
  C   C323      1.0  0.01798  0.68526  0.34617  1.0000
  H   H498      1.0  0.45991  0.93948  0.34951  1.0000
  Fe  Fe60      1.0  0.43438  0.96589  0.22971  1.0000
  C   C324      1.0  0.03396  0.64821  0.37538  1.0000
  Fe  Fe61      1.0  0.45740  0.92593  0.21391  1.0000
  C   C325      1.0  0.00513  0.53710  0.25052  1.0000
  H   H499      1.0  0.29490  0.92815  0.32146  1.0000
  S   S126      1.0  0.14222  0.98784  0.33910  1.0000
  H   H500      1.0  0.45416  0.96879  0.34033  1.0000
  C   C326      1.0  0.37360  0.94745  0.31256  1.0000
  C   C327      1.0  0.38355  0.93843  0.29506  1.0000
  H   H501      1.0  0.00608  0.52691  0.23869  1.0000
  C   C328      1.0  0.45563  0.95287  0.33569  1.0000
  H   H502      1.0  0.37135  0.96489  0.31107  1.0000
  H   H503      1.0  0.38878  0.94898  0.28017  1.0000
  H   H504      1.0  0.40168  0.94976  0.34136  1.0000
  C   C329      1.0  0.37823  0.90237  0.31567  1.0000
  C   C330      1.0  0.13968  0.96111  0.35331  1.0000
  C   C331      1.0  0.11691  0.93379  0.37202  1.0000
  H   H505      1.0  0.41490  0.96639  0.35203  1.0000
  H   H506      1.0  0.44337  0.96973  0.29718  1.0000
  S   S127      1.0  0.23610  0.94469  0.37790  1.0000
  H   H507      1.0  0.32058  0.93598  0.32242  1.0000
  N   N31       1.0  0.43530  0.95071  0.32852  1.0000
  H   H508      1.0  0.10460  0.96653  0.35589  1.0000
  C   C332      1.0  0.03812  0.66875  0.37622  1.0000
  H   H509      1.0  0.10123  0.69054  0.36549  1.0000
  H   H510      1.0  0.09814  0.73340  0.37890  1.0000
  H   H511      1.0  0.04046  0.63374  0.38641  1.0000
  C   C333      1.0  0.41735  0.95098  0.34626  1.0000
  H   H512      1.0  0.46962  0.95211  0.32288  1.0000
  S   S128      1.0  0.35516  0.94413  0.35448  1.0000
  H   H513      1.0  0.12577  0.73761  0.37067  1.0000
  C   C334      1.0  0.02155  0.64621  0.36024  1.0000
  H   H514      1.0  0.45177  0.92912  0.30813  1.0000
  C   C335      1.0  0.27005  0.96664  0.32476  1.0000
  H   H515      1.0  0.42056  0.93703  0.35994  1.0000
  H   H516      1.0  0.14804  0.67805  0.37671  1.0000
  H   H517      1.0  0.01414  0.52706  0.26377  1.0000
  N   N32       1.0  0.12139  0.70380  0.38114  1.0000
  H   H518      1.0  0.29694  0.98957  0.33529  1.0000
  H   H519      1.0  0.36280  0.90074  0.34788  1.0000
  Fe  Fe62      1.0  0.35851  0.97847  0.35470  1.0000
  H   H520      1.0  0.47597  0.97650  0.26977  1.0000
  C   C336      1.0  0.30454  0.97741  0.32557  1.0000
  C   C337      1.0  0.36848  0.91135  0.33315  1.0000
  S   S129      1.0  0.45941  0.90575  0.24728  1.0000
  C   C338      1.0  0.13555  0.91863  0.37692  1.0000
  H   H521      1.0  0.44227  0.91553  0.33458  1.0000
  C   C339      1.0  0.11899  0.95496  0.36002  1.0000
  S   S130      1.0  0.37547  0.98621  0.37884  1.0000
  H   H522      1.0  0.26014  0.95314  0.32878  1.0000
  C   C340      1.0  0.49181  0.99088  0.28845  1.0000
  H   H523      1.0  0.38003  0.88491  0.31697  1.0000
  H   H524      1.0  0.28235  0.93440  0.35773  1.0000
  C   C341      1.0  0.15621  0.92472  0.36996  1.0000
  H   H525      1.0  0.03368  0.70315  0.36182  1.0000
  C   C342      1.0  0.01356  0.66470  0.34554  1.0000
  C   C343      1.0  0.15827  0.94603  0.35851  1.0000
  H   H526      1.0  0.41485  0.96792  0.30461  1.0000
  H   H527      1.0  0.01214  0.69959  0.33463  1.0000
  H   H528      1.0  0.30487  0.98610  0.30857  1.0000
  C   C344      1.0  0.14199  0.69531  0.36918  1.0000
  Fe  Fe63      1.0  0.46866  0.93505  0.25505  1.0000
  S   S131      1.0  0.39948  0.90379  0.27557  1.0000
  S   S132      1.0  0.42198  0.93956  0.22040  1.0000
  C   C345      1.0  0.48784  0.97361  0.28060  1.0000
  H   H529      1.0  0.15500  0.70518  0.36847  1.0000
  C   C346      1.0  0.10457  0.69030  0.38171  1.0000
  S   S133      1.0  0.20785  0.97861  0.33034  1.0000
  H   H530      1.0  0.42323  0.92774  0.31590  1.0000
  H   H531      1.0  0.10095  0.92899  0.37683  1.0000
  H   H532      1.0  0.42731  0.98516  0.31539  1.0000
  H   H533      1.0  0.17065  0.91292  0.37341  1.0000
  H   H534      1.0  0.27018  0.97415  0.30748  1.0000
  Fe  Fe64      1.0  0.21489  0.97501  0.36336  1.0000
  S   S134      1.0  0.00027  0.54915  0.35588  1.0000
  H   H535      1.0  0.13276  0.98753  0.38517  1.0000
  H   H536      1.0  0.26124  0.97937  0.33340  1.0000
  S   S135      1.0  0.18112  0.98874  0.37579  1.0000
  H   H537      1.0  0.01399  0.55106  0.24252  1.0000
  H   H538      1.0  0.28232  0.96048  0.36324  1.0000
  S   S136      1.0  0.49425  0.93062  0.27717  1.0000
  S   S137      1.0  0.99829  0.66249  0.32611  1.0000
  H   H539      1.0  0.44339  0.99089  0.38580  1.0000
  H   H540      1.0  0.48236  0.97447  0.38677  1.0000
  N   N33       1.0  0.02425  0.82635  0.42310  1.0000
  Fe  Fe65      1.0  0.38006  0.97602  0.56438  1.0000
  C   C347      1.0  0.00471  0.63104  0.50475  1.0000
  H   H541      1.0  0.04800  0.62579  0.53538  1.0000
  H   H542      1.0  0.05123  0.80029  0.42142  1.0000
  C   C348      1.0  0.01175  0.64032  0.48355  1.0000
  C   C349      1.0  0.04709  0.62525  0.55266  1.0000
  C   C350      1.0  0.31069  0.98315  0.50386  1.0000
  C   C351      1.0  0.15339  0.91496  0.43267  1.0000
  H   H543      1.0  0.01179  0.83505  0.45313  1.0000
  H   H544      1.0  0.16972  0.91549  0.46804  1.0000
  H   H545      1.0  0.20633  0.92228  0.41707  1.0000
  C   C352      1.0  0.01898  0.67192  0.49407  1.0000
  H   H546      1.0  0.22821  0.97122  0.55665  1.0000
  H   H547      1.0  0.04435  0.93849  0.45065  1.0000
  H   H548      1.0  0.10950  0.79582  0.40616  1.0000
  H   H549      1.0  0.02412  0.66789  0.46178  1.0000
  C   C353      1.0  0.16952  0.94653  0.43211  1.0000
  H   H550      1.0  0.15601  0.89700  0.43368  1.0000
  C   C354      1.0  0.02481  0.92467  0.49031  1.0000
  H   H551      1.0  0.32590  0.95265  0.48051  1.0000
  Fe  Fe66      1.0  0.18205  0.95357  0.51051  1.0000
  S   S138      1.0  0.13351  0.89210  0.39199  1.0000
  S   S139      1.0  0.16536  0.92382  0.51976  1.0000
  H   H552      1.0  0.19355  0.89958  0.41655  1.0000
  S   S140      1.0  0.25453  0.95749  0.46493  1.0000
  H   H553      1.0  0.15716  0.95105  0.44530  1.0000
  S   S141      1.0  0.21521  0.95665  0.51720  1.0000
  C   C355      1.0  0.26063  0.97342  0.56164  1.0000
  S   S142      1.0  0.03686  0.74670  0.43993  1.0000
  H   H554      1.0  0.08197  0.59459  0.56129  1.0000
  S   S143      1.0  0.05460  0.67043  0.39481  1.0000
  Fe  Fe67      1.0  0.04744  0.69973  0.40973  1.0000
  Fe  Fe68      1.0  0.10278  0.88959  0.41483  1.0000
  S   S144      1.0  0.10839  0.87768  0.44896  1.0000
  C   C356      1.0  0.01888  0.66075  0.47819  1.0000
  Fe  Fe69      1.0  0.05321  0.89724  0.42585  1.0000
  S   S145      1.0  0.05515  0.88661  0.46070  1.0000
  Fe  Fe70      1.0  0.08274  0.90606  0.45429  1.0000
  S   S146      1.0  0.08547  0.93383  0.46889  1.0000
  Fe  Fe71      1.0  0.08050  0.85940  0.45148  1.0000
  S   S147      1.0  0.07692  0.82508  0.46928  1.0000
  S   S148      1.0  0.07870  0.91897  0.41998  1.0000
  S   S149      1.0  0.07694  0.86898  0.41681  1.0000
  C   C357      1.0  0.09198  0.77292  0.42957  1.0000
  C   C358      1.0  0.08014  0.76897  0.44987  1.0000
  C   C359      1.0  0.07609  0.78488  0.46211  1.0000
  C   C360      1.0  0.08366  0.80494  0.45408  1.0000
  C   C361      1.0  0.09587  0.80877  0.43393  1.0000
  C   C362      1.0  0.10016  0.79271  0.42177  1.0000
  H   H555      1.0  0.07435  0.75350  0.45632  1.0000
  H   H556      1.0  0.06691  0.78169  0.47780  1.0000
  S   S150      1.0  0.16693  0.98755  0.51417  1.0000
  C   C363      1.0  0.25949  0.93559  0.41132  1.0000
  S   S151      1.0  0.36067  0.97230  0.54013  1.0000
  C   C364      1.0  0.14353  0.92656  0.50516  1.0000
  C   C365      1.0  0.13380  0.94724  0.49502  1.0000
  C   C366      1.0  0.11603  0.94928  0.48391  1.0000
  C   C367      1.0  0.10831  0.93064  0.48228  1.0000
  C   C368      1.0  0.11852  0.90990  0.49172  1.0000
  C   C369      1.0  0.13588  0.90789  0.50342  1.0000
  H   H557      1.0  0.13953  0.96173  0.49630  1.0000
  H   H558      1.0  0.10815  0.96539  0.47680  1.0000
  H   H559      1.0  0.11262  0.89542  0.49064  1.0000
  H   H560      1.0  0.14339  0.89185  0.51118  1.0000
  C   C370      1.0  0.30502  0.94612  0.52024  1.0000
  H   H561      1.0  0.02764  0.57701  0.57126  1.0000
  S   S152      1.0  0.19030  0.96256  0.47530  1.0000
  C   C371      1.0  0.27670  0.98681  0.55833  1.0000
  S   S153      1.0  0.02106  0.90958  0.41291  1.0000
  H   H562      1.0  0.29771  0.93184  0.51943  1.0000
  H   H563      1.0  0.00500  0.53816  0.40470  1.0000
  H   H564      1.0  0.14046  0.91845  0.44582  1.0000
  N   N34       1.0  0.29997  0.96495  0.50253  1.0000
  C   C372      1.0  0.01258  0.66235  0.51530  1.0000
  H   H565      1.0  0.14686  0.92293  0.41738  1.0000
  C   C373      1.0  0.26380  0.93866  0.43060  1.0000
  C   C374      1.0  0.24976  0.95394  0.44065  1.0000
  C   C375      1.0  0.23184  0.96661  0.43121  1.0000
  C   C376      1.0  0.22793  0.96400  0.41168  1.0000
  H   H566      1.0  0.11869  0.96671  0.42037  1.0000
  H   H567      1.0  0.27768  0.92889  0.43792  1.0000
  H   H568      1.0  0.32293  0.94090  0.52016  1.0000
  H   H569      1.0  0.04297  0.92138  0.48905  1.0000
  H   H570      1.0  0.01142  0.63184  0.47120  1.0000
  H   H571      1.0  0.02839  0.85982  0.40914  1.0000
  C   C377      1.0  0.24041  0.98175  0.55419  1.0000
  H   H572      1.0  0.18496  0.89356  0.45644  1.0000
  C   C378      1.0  0.02800  0.59415  0.56210  1.0000
  H   H573      1.0  0.16352  0.95525  0.41677  1.0000
  C   C379      1.0  0.19049  0.91740  0.41626  1.0000
  C   C380      1.0  0.24156  0.94829  0.40191  1.0000
  H   H574      1.0  0.06863  0.58801  0.54199  1.0000
  S   S154      1.0  0.06723  0.69971  0.43531  1.0000
  S   S155      1.0  0.30237  0.97485  0.56640  1.0000
  S   S156      1.0  0.05055  0.73425  0.39268  1.0000
  H   H575      1.0  0.06123  0.63226  0.55480  1.0000
  N   N35       1.0  0.01719  0.94430  0.47439  1.0000
  H   H576      1.0  0.26760  0.98917  0.40583  1.0000
  H   H577      1.0  0.01277  0.67092  0.52761  1.0000
  H   H578      1.0  0.01824  0.96647  0.49409  1.0000
  C   C381      1.0  0.47729  0.96736  0.57414  1.0000
  H   H579      1.0  0.00531  0.81000  0.40926  1.0000
  H   H580      1.0  0.01252  0.87878  0.45340  1.0000
  H   H581      1.0  0.30482  0.97252  0.46836  1.0000
  H   H582      1.0  0.01856  0.92660  0.50680  1.0000
  C   C382      1.0  0.30801  0.95852  0.48204  1.0000
  C   C383      1.0  0.01668  0.84832  0.41048  1.0000
  H   H583      1.0  0.21418  0.97397  0.40437  1.0000
  H   H584      1.0  0.46392  0.95790  0.57493  1.0000
  N   N36       1.0  0.17379  0.92262  0.43387  1.0000
  C   C384      1.0  0.27612  0.97206  0.50400  1.0000
  H   H585      1.0  0.13096  0.68594  0.41148  1.0000
  H   H586      1.0  0.01301  0.79526  0.43461  1.0000
  S   S157      1.0  0.02576  0.69832  0.48779  1.0000
  H   H587      1.0  0.19721  0.91701  0.45583  1.0000
  C   C385      1.0  0.06725  0.58857  0.55905  1.0000
  Fe  Fe72      1.0  0.03504  0.71106  0.45290  1.0000
  H   H588      1.0  0.02068  0.95544  0.44031  1.0000
  H   H589      1.0  0.06770  0.57146  0.56852  1.0000
  H   H590      1.0  0.10977  0.70887  0.41263  1.0000
  H   H591      1.0  0.49281  0.92903  0.56279  1.0000
  H   H592      1.0  0.18463  0.95283  0.43283  1.0000
  H   H593      1.0  0.00723  0.55588  0.42158  1.0000
  H   H594      1.0  0.18542  0.92614  0.40049  1.0000
  H   H595      1.0  0.26396  0.95641  0.56972  1.0000
  Fe  Fe73      1.0  0.06728  0.73528  0.42005  1.0000
  S   S158      1.0  0.40450  0.94936  0.58051  1.0000
  H   H596      1.0  0.29973  0.94523  0.48029  1.0000
  H   H597      1.0  0.01935  0.90983  0.48819  1.0000
  Fe  Fe74      1.0  0.22198  0.96853  0.48205  1.0000
  N   N37       1.0  0.04700  0.60271  0.56552  1.0000
  C   C386      1.0  0.00555  0.64194  0.52060  1.0000
  C   C387      1.0  0.00785  0.81195  0.42508  1.0000
  H   H598      1.0  0.30597  0.98759  0.51959  1.0000
  H   H599      1.0  0.10219  0.82401  0.42779  1.0000
  H   H600      1.0  0.26733  0.95823  0.50494  1.0000
  H   H601      1.0  0.32880  0.97881  0.50166  1.0000
  C   C388      1.0  0.02729  0.82816  0.44447  1.0000
  H   H602      1.0  0.02797  0.59441  0.54501  1.0000
  H   H603      1.0  0.02101  0.92661  0.44964  1.0000
  C   C389      1.0  0.18179  0.91166  0.45441  1.0000
  S   S159      1.0  0.01516  0.70844  0.42863  1.0000
  H   H604      1.0  0.03334  0.81195  0.45436  1.0000
  H   H605      1.0  0.03952  0.83899  0.44355  1.0000
  Fe  Fe75      1.0  0.02009  0.74304  0.41391  1.0000
  H   H606      1.0  0.04368  0.81550  0.39614  1.0000
  H   H607      1.0  0.27149  0.98505  0.49001  1.0000
  C   C390      1.0  0.99724  0.89966  0.42698  1.0000
  C   C391      1.0  0.02471  0.96353  0.47796  1.0000
  H   H608      1.0  0.01250  0.60397  0.56755  1.0000
  H   H609      1.0  0.03200  0.63634  0.55716  1.0000
  H   H610      1.0  0.04287  0.96119  0.47662  1.0000
  H   H611      1.0  0.47918  0.97821  0.55803  1.0000
  C   C392      1.0  0.02620  0.94109  0.45282  1.0000
  H   H612      1.0  0.22121  0.97872  0.43877  1.0000
  H   H613      1.0  0.27007  0.92345  0.40371  1.0000
  H   H614      1.0  0.26976  0.97878  0.51831  1.0000
  H   H615      1.0  0.29847  0.95028  0.53591  1.0000
  S   S160      1.0  0.09570  0.75371  0.41351  1.0000
  C   C393      1.0  0.99748  0.88459  0.44652  1.0000
  H   H616      1.0  0.00082  0.63470  0.53696  1.0000
  C   C394      1.0  0.04522  0.81696  0.41239  1.0000
  H   H617      1.0  0.13712  0.71347  0.40335  1.0000
  H   H618      1.0  0.47185  0.97828  0.58557  1.0000
  H   H619      1.0  0.09140  0.97721  0.41455  1.0000
  H   H620      1.0  0.08882  0.69635  0.39056  1.0000
  C   C395      1.0  0.12505  0.70290  0.40307  1.0000
  H   H621      1.0  0.01945  0.97864  0.46614  1.0000
  H   H622      1.0  0.01472  0.84770  0.39408  1.0000
  H   H623      1.0  0.09974  0.98049  0.43838  1.0000
  H   H624      1.0  0.05809  0.82721  0.41094  1.0000
  C   C396      1.0  0.10516  0.98064  0.42124  1.0000
  H   H625      1.0  0.48362  0.98558  0.40924  1.0000
  C   C397      1.0  0.48515  0.98916  0.39157  1.0000
  H   H626      1.0  0.00062  0.85568  0.41785  1.0000
  H   H627      1.0  0.99931  0.56711  0.39550  1.0000
  Fe  Fe76      1.0  0.33256  0.99106  0.55766  1.0000
  H   H628      1.0  0.10937  0.67292  0.38977  1.0000
  C   C398      1.0  0.99748  0.55362  0.40984  1.0000
  H   H629      1.0  0.99656  0.70269  0.39214  1.0000
  H   H630      1.0  0.40492  0.99228  0.58785  1.0000
  Fe  Fe77      1.0  0.20102  0.99185  0.51674  1.0000
  S   S161      1.0  0.35156  0.99193  0.58353  1.0000
  C   C399      1.0  0.04555  0.60284  0.58828  1.0000
  H   H631      1.0  0.44517  0.89864  0.76491  1.0000
  H   H632      1.0  0.05973  0.60894  0.59162  1.0000
  H   H633      1.0  0.43708  0.94065  0.69811  1.0000
  H   H634      1.0  0.00973  0.52077  0.77449  1.0000
  C   C400      1.0  0.00857  0.53662  0.77817  1.0000
  Fe  Fe78      1.0  0.48316  0.95530  0.65472  1.0000
  H   H635      1.0  0.38696  0.95033  0.70509  1.0000
  S   S162      1.0  0.46716  0.90440  0.72236  1.0000
  C   C401      1.0  0.42827  0.98720  0.60988  1.0000
  H   H636      1.0  0.47885  0.98843  0.78181  1.0000
  H   H637      1.0  0.48951  0.94807  0.61272  1.0000
  C   C402      1.0  0.39679  0.96244  0.70674  1.0000
  C   C403      1.0  0.44250  0.97180  0.62247  1.0000
  H   H638      1.0  0.41173  0.98316  0.65444  1.0000
  C   C404      1.0  0.43145  0.94274  0.61075  1.0000
  S   S163      1.0  0.45932  0.98083  0.63633  1.0000
  H   H639      1.0  0.43982  0.95140  0.67000  1.0000
  N   N38       1.0  0.99902  0.53216  0.69586  1.0000
  H   H640      1.0  0.45759  0.95973  0.78197  1.0000
  H   H641      1.0  0.26337  0.50574  0.78272  1.0000
  C   C405      1.0  0.40063  0.97701  0.66887  1.0000
  H   H642      1.0  0.03045  0.61349  0.59360  1.0000
  N   N39       1.0  0.41254  0.96793  0.68751  1.0000
  H   H643      1.0  0.43685  0.98903  0.67583  1.0000
  H   H644      1.0  0.01388  0.56132  0.68768  1.0000
  H   H645      1.0  0.03021  0.51417  0.70347  1.0000
  H   H646      1.0  0.46885  0.93869  0.76755  1.0000
  H   H647      1.0  0.01726  0.50270  0.68741  1.0000
  H   H648      1.0  0.45934  0.96584  0.75352  1.0000
  C   C406      1.0  0.47719  0.89844  0.74694  1.0000
  S   S164      1.0  0.48523  0.95507  0.68856  1.0000
  C   C407      1.0  0.46249  0.89663  0.76570  1.0000
  H   H649      1.0  0.43277  0.92552  0.61103  1.0000
  C   C408      1.0  0.00348  0.55210  0.70094  1.0000
  H   H650      1.0  0.39250  0.96460  0.66520  1.0000
  C   C409      1.0  0.44348  0.94954  0.62340  1.0000
  H   H651      1.0  0.38524  0.97724  0.70976  1.0000
  H   H652      1.0  0.45383  0.93749  0.63346  1.0000
  C   C410      1.0  0.42491  0.98439  0.69014  1.0000
  C   C411      1.0  0.49246  0.88974  0.78658  1.0000
  C   C412      1.0  0.49462  0.93838  0.60024  1.0000
  H   H653      1.0  0.49473  0.96899  0.73132  1.0000
  Fe  Fe79      1.0  0.48971  0.91873  0.69401  1.0000
  H   H654      1.0  0.23512  0.50241  0.78735  1.0000
  H   H655      1.0  0.01211  0.54800  0.71528  1.0000
  C   C413      1.0  0.42775  0.94792  0.68436  1.0000
  C   C414      1.0  0.41586  0.98036  0.59754  1.0000
  S   S165      1.0  0.48498  0.91901  0.66071  1.0000
  C   C415      1.0  0.46793  0.95633  0.76723  1.0000
  C   C416      1.0  0.41788  0.95815  0.59755  1.0000
  H   H656      1.0  0.04486  0.58617  0.59850  1.0000
  H   H657      1.0  0.41901  0.93515  0.68228  1.0000
  H   H658      1.0  0.02953  0.52691  0.67586  1.0000
  C   C417      1.0  0.01992  0.51842  0.69033  1.0000
  H   H659      1.0  0.40527  0.95524  0.72106  1.0000
  H   H660      1.0  0.99545  0.51538  0.72871  1.0000
  H   H661      1.0  0.43424  0.97814  0.70395  1.0000
  H   H662      1.0  0.48189  0.92810  0.60129  1.0000
  H   H663      1.0  0.38791  0.99113  0.67143  1.0000
  C   C418      1.0  0.47008  0.89263  0.78548  1.0000
  N   N40       1.0  0.48988  0.96212  0.76551  1.0000
  C   C419      1.0  0.48775  0.98535  0.76635  1.0000
  H   H664      1.0  0.99800  0.58377  0.65885  1.0000
  H   H665      1.0  0.99542  0.54664  0.66301  1.0000
  C   C420      1.0  0.00603  0.57748  0.78760  1.0000
  S   S166      1.0  0.99521  0.58653  0.61511  1.0000
  H   H666      1.0  0.40805  0.51906  0.89499  1.0000
  C   C421      1.0  0.28834  0.69478  0.96762  1.0000
  H   H667      1.0  0.38345  0.51432  0.95146  1.0000
  Fe  Fe80      1.0  0.24038  0.55448  0.89345  1.0000
  S   S167      1.0  0.20479  0.55147  0.89741  1.0000
  S   S168      1.0  0.07064  0.50226  0.82111  1.0000
  Fe  Fe81      1.0  0.21482  0.51777  0.91619  1.0000
  H   H668      1.0  0.45124  0.65876  0.92178  1.0000
  Fe  Fe82      1.0  0.21400  0.53552  0.86948  1.0000
  S   S169      1.0  0.24956  0.52222  0.91500  1.0000
  S   S170      1.0  0.24883  0.54167  0.86359  1.0000
  S   S171      1.0  0.39772  0.91322  0.84880  1.0000
  C   C422      1.0  0.13576  0.52141  0.84270  1.0000
  H   H669      1.0  0.15041  0.51080  0.96664  1.0000
  C   C423      1.0  0.48031  0.92169  0.96304  1.0000
  H   H670      1.0  0.42904  0.94488  0.97966  1.0000
  H   H671      1.0  0.32862  0.54779  0.89011  1.0000
  H   H672      1.0  0.28901  0.55104  0.88825  1.0000
  H   H673      1.0  0.49127  0.83165  0.96074  1.0000
  H   H674      1.0  0.42647  0.63462  0.97598  1.0000
  H   H675      1.0  0.16936  0.56106  0.97020  1.0000
  H   H676      1.0  0.16825  0.54331  0.95305  1.0000
  N   N41       1.0  0.30341  0.67648  0.96038  1.0000
  S   S172      1.0  0.06761  0.52509  0.86232  1.0000
  H   H677      1.0  0.47202  0.65720  0.93812  1.0000
  S   S173      1.0  0.07279  0.53696  0.97314  1.0000
  H   H678      1.0  0.45125  0.60899  0.93076  1.0000
  H   H679      1.0  0.00372  0.54420  0.87713  1.0000
  Fe  Fe83      1.0  0.36172  0.82305  0.93616  1.0000
  S   S174      1.0  0.36936  0.79275  0.92272  1.0000
  S   S175      1.0  0.34111  0.85323  0.91988  1.0000
  Fe  Fe84      1.0  0.34088  0.60632  0.96783  1.0000
  C   C424      1.0  0.45954  0.56016  0.97674  1.0000
  H   H680      1.0  0.12683  0.52182  0.89459  1.0000
  H   H681      1.0  0.48411  0.91116  0.97867  1.0000
  C   C425      1.0  0.43688  0.84844  0.96163  1.0000
  S   S176      1.0  0.47978  0.89382  0.91199  1.0000
  S   S177      1.0  0.39633  0.82537  0.93807  1.0000
  C   C426      1.0  0.39975  0.85390  0.83653  1.0000
  Fe  Fe85      1.0  0.36089  0.59211  0.92738  1.0000
  H   H682      1.0  0.30629  0.57018  0.94976  1.0000
  S   S178      1.0  0.35322  0.57378  0.90477  1.0000
  Fe  Fe86      1.0  0.37485  0.63104  0.93861  1.0000
  C   C427      1.0  0.48311  0.55919  0.94346  1.0000
  S   S179      1.0  0.38740  0.66325  0.92565  1.0000
  H   H683      1.0  0.30161  0.64811  0.94898  1.0000
  H   H684      1.0  0.42249  0.84142  0.96029  1.0000
  C   C428      1.0  0.47888  0.77045  0.94149  1.0000
  C   C429      1.0  0.02185  0.53925  0.79222  1.0000
  S   S180      1.0  0.39365  0.60069  0.92856  1.0000
  S   S181      1.0  0.34264  0.62412  0.93372  1.0000
  H   H685      1.0  0.47493  0.63793  0.92152  1.0000
  Fe  Fe87      1.0  0.46811  0.90680  0.87984  1.0000
  H   H686      1.0  0.46253  0.84674  0.92542  1.0000
  C   C430      1.0  0.36865  0.68116  0.96016  1.0000
  C   C431      1.0  0.37938  0.68468  0.93936  1.0000
  C   C432      1.0  0.38379  0.70573  0.92916  1.0000
  C   C433      1.0  0.37688  0.72332  0.93936  1.0000
  N   N42       1.0  0.24731  0.50789  0.81400  1.0000
  H   H687      1.0  0.49197  0.95059  0.79896  1.0000
  H   H688      1.0  0.39226  0.70856  0.91313  1.0000
  H   H689      1.0  0.38004  0.73956  0.93120  1.0000
  C   C434      1.0  0.38144  0.89869  0.87002  1.0000
  C   C435      1.0  0.36086  0.89596  0.86670  1.0000
  C   C436      1.0  0.34820  0.88277  0.88250  1.0000
  C   C437      1.0  0.35609  0.87207  0.90170  1.0000
  C   C438      1.0  0.37629  0.87558  0.90541  1.0000
  C   C439      1.0  0.38903  0.88882  0.88955  1.0000
  H   H690      1.0  0.35483  0.90375  0.85170  1.0000
  H   H691      1.0  0.33252  0.88036  0.87960  1.0000
  H   H692      1.0  0.38193  0.86843  0.92061  1.0000
  H   H693      1.0  0.40473  0.89124  0.89237  1.0000
  H   H694      1.0  0.47603  0.85872  0.95518  1.0000
  H   H695      1.0  0.42837  0.91206  0.96656  1.0000
  C   C440      1.0  0.15168  0.53494  0.84017  1.0000
  S   S182      1.0  0.30819  0.60846  0.98767  1.0000
  S   S183      1.0  0.02375  0.51095  0.85168  1.0000
  N   N43       1.0  0.45651  0.92791  0.96259  1.0000
  Fe  Fe88      1.0  0.04993  0.53013  0.83397  1.0000
  H   H696      1.0  0.23829  0.53931  0.82225  1.0000
  C   C441      1.0  0.24081  0.53189  0.80814  1.0000
  C   C442      1.0  0.36547  0.71995  0.95987  1.0000
  H   H697      1.0  0.32792  0.65017  0.97266  1.0000
  C   C443      1.0  0.05930  0.52828  0.95603  1.0000
  C   C444      1.0  0.06037  0.53854  0.93440  1.0000
  C   C445      1.0  0.05036  0.53084  0.92062  1.0000
  C   C446      1.0  0.99652  0.58569  0.85535  1.0000
  S   S184      1.0  0.19196  0.54334  0.84389  1.0000
  H   H698      1.0  0.06897  0.55239  0.92831  1.0000
  H   H699      1.0  0.05107  0.53889  0.90399  1.0000
  H   H700      1.0  0.38721  0.84856  0.82970  1.0000
  C   C447      1.0  0.11247  0.51316  0.90053  1.0000
  S   S185      1.0  0.19629  0.50224  0.94667  1.0000
  H   H701      1.0  0.44375  0.65537  0.96974  1.0000
  H   H702      1.0  0.99763  0.55102  0.83903  1.0000
  H   H703      1.0  0.22505  0.53639  0.80138  1.0000
  H   H704      1.0  0.42321  0.65674  0.95322  1.0000
  H   H705      1.0  0.27732  0.61099  0.90992  1.0000
  S   S186      1.0  0.40132  0.77399  0.95983  1.0000
  H   H706      1.0  0.38121  0.53883  0.93093  1.0000
  H   H707      1.0  0.44711  0.73137  0.96497  1.0000
  C   C448      1.0  0.29075  0.66213  0.95443  1.0000
  C   C449      1.0  0.48045  0.55897  0.96514  1.0000
  H   H708      1.0  0.43001  0.74690  0.93199  1.0000
  C   C450      1.0  0.44641  0.90798  0.96636  1.0000
  S   S187      1.0  0.45656  0.88601  0.86210  1.0000
  H   H709      1.0  0.47307  0.84191  0.98153  1.0000
  Fe  Fe89      1.0  0.36655  0.77442  0.95691  1.0000
  H   H710      1.0  0.38585  0.51042  0.88683  1.0000
  H   H711      1.0  0.28783  0.57569  0.97252  1.0000
  H   H712      1.0  0.45967  0.95710  0.93827  1.0000
  C   C451      1.0  0.17598  0.50432  0.85777  1.0000
  S   S188      1.0  0.35488  0.80470  0.97009  1.0000
  C   C452      1.0  0.28047  0.58113  0.89919  1.0000
  C   C453      1.0  0.29504  0.56336  0.89349  1.0000
  C   C454      1.0  0.31746  0.56151  0.89462  1.0000
  C   C455      1.0  0.32534  0.57716  0.90187  1.0000
  H   H713      1.0  0.32764  0.69705  0.94543  1.0000
  H   H714      1.0  0.45296  0.89861  0.95378  1.0000
  H   H715      1.0  0.13522  0.51092  0.93239  1.0000
  H   H716      1.0  0.27798  0.54357  0.93572  1.0000
  H   H717      1.0  0.35392  0.50162  0.91244  1.0000
  H   H718      1.0  0.48839  0.93636  0.96059  1.0000
  H   H719      1.0  0.47458  0.79336  0.91169  1.0000
  H   H720      1.0  0.09838  0.52521  0.90523  1.0000
  H   H721      1.0  0.18509  0.53410  0.97391  1.0000
  H   H722      1.0  0.45442  0.95512  0.97720  1.0000
  S   S189      1.0  0.41515  0.56475  0.98133  1.0000
  C   C456      1.0  0.38889  0.52131  0.93447  1.0000
  H   H723      1.0  0.28100  0.67113  0.94139  1.0000
  H   H724      1.0  0.49208  0.77751  0.94434  1.0000
  H   H725      1.0  0.47784  0.82004  0.93373  1.0000
  S   S190      1.0  0.35530  0.74189  0.97259  1.0000
  H   H726      1.0  0.41756  0.85967  0.86863  1.0000
  H   H727      1.0  0.35037  0.52719  0.92039  1.0000
  Fe  Fe90      1.0  0.47818  0.90200  0.83411  1.0000
  H   H728      1.0  0.45860  0.89154  0.79987  1.0000
  H   H729      1.0  0.28856  0.51745  0.95098  1.0000
  C   C457      1.0  0.47035  0.75375  0.95703  1.0000
  C   C458      1.0  0.46914  0.77930  0.92290  1.0000
  H   H730      1.0  0.44940  0.89700  0.98201  1.0000
  H   H731      1.0  0.32096  0.53432  0.97103  1.0000
  H   H732      1.0  0.30674  0.53640  0.93719  1.0000
  H   H733      1.0  0.45937  0.60608  0.97597  1.0000
  Fe  Fe91      1.0  0.38832  0.58523  0.96321  1.0000
  Fe  Fe92      1.0  0.25565  0.50880  0.88563  1.0000
  C   C459      1.0  0.23000  0.49821  0.82957  1.0000
  C   C460      1.0  0.03806  0.50291  0.95011  1.0000
  N   N44       1.0  0.45146  0.63237  0.94944  1.0000
  S   S191      1.0  0.47411  0.98044  0.82838  1.0000
  C   C461      1.0  0.04805  0.51049  0.96384  1.0000
  H   H734      1.0  0.42971  0.56343  0.93708  1.0000
  C   C462      1.0  0.46191  0.83063  0.93666  1.0000
  C   C463      1.0  0.45097  0.77136  0.91994  1.0000
  H   H735      1.0  0.27862  0.70478  0.95489  1.0000
  C   C464      1.0  0.45229  0.94189  0.94161  1.0000
  C   C465      1.0  0.02081  0.55974  0.79677  1.0000
  Fe  Fe93      1.0  0.43173  0.91571  0.85301  1.0000
  H   H736      1.0  0.38219  0.84575  0.87745  1.0000
  C   C466      1.0  0.46750  0.61748  0.96255  1.0000
  C   C467      1.0  0.31860  0.68531  0.94178  1.0000
  Fe  Fe94      1.0  0.08591  0.49515  0.85131  1.0000
  C   C468      1.0  0.44379  0.56228  0.94493  1.0000
  C   C469      1.0  0.03912  0.51300  0.92854  1.0000
  H   H737      1.0  0.25258  0.55121  0.96698  1.0000
  H   H738      1.0  0.21412  0.50195  0.82306  1.0000
  S   S192      1.0  0.37144  0.61600  0.97343  1.0000
  H   H739      1.0  0.44908  0.82315  0.93248  1.0000
  S   S193      1.0  0.25215  0.58338  0.89934  1.0000
  H   H740      1.0  0.33101  0.67210  0.93649  1.0000
  C   C470      1.0  0.31077  0.59503  0.90724  1.0000
  Fe  Fe95      1.0  0.46443  0.94732  0.84373  1.0000
  H   H741      1.0  0.28140  0.50973  0.81232  1.0000
  H   H742      1.0  0.37753  0.82510  0.86529  1.0000
  H   H743      1.0  0.26610  0.50919  0.83809  1.0000
  S   S194      1.0  0.43288  0.78813  0.90313  1.0000
  N   N45       1.0  0.40833  0.83665  0.85407  1.0000
  H   H744      1.0  0.26313  0.52504  0.98218  1.0000
  C   C471      1.0  0.12091  0.50209  0.93662  1.0000
  H   H745      1.0  0.00509  0.59335  0.79113  1.0000
  C   C472      1.0  0.44401  0.75313  0.93438  1.0000
  H   H746      1.0  0.12021  0.52808  0.83690  1.0000
  S   S195      1.0  0.03710  0.56299  0.81474  1.0000
  C   C473      1.0  0.35900  0.51003  0.92342  1.0000
  C   C474      1.0  0.47523  0.84169  0.96433  1.0000
  C   C475      1.0  0.28848  0.59711  0.90572  1.0000
  H   H747      1.0  0.31665  0.60740  0.91239  1.0000
  H   H748      1.0  0.04694  0.50260  0.98050  1.0000
  H   H749      1.0  0.43048  0.60842  0.95330  1.0000
  H   H750      1.0  0.43430  0.85261  0.97746  1.0000
  H   H751      1.0  0.43705  0.86407  0.94951  1.0000
  H   H752      1.0  0.41296  0.85855  0.82348  1.0000
  C   C476      1.0  0.17180  0.52645  0.84784  1.0000
  N   N46       1.0  0.11696  0.49426  0.91834  1.0000
  C   C477      1.0  0.29038  0.53507  0.94650  1.0000
  S   S196      1.0  0.22167  0.50152  0.88881  1.0000
  S   S197      1.0  0.45243  0.92988  0.82327  1.0000
  H   H753      1.0  0.36564  0.66492  0.96832  1.0000
  S   S198      1.0  0.44147  0.93563  0.87289  1.0000
  C   C478      1.0  0.44702  0.94007  0.97937  1.0000
  C   C479      1.0  0.46293  0.64724  0.93193  1.0000
  H   H754      1.0  0.44216  0.80399  0.96908  1.0000
  H   H755      1.0  0.27749  0.57730  0.94818  1.0000
  C   C480      1.0  0.46478  0.56053  0.93343  1.0000
  C   C481      1.0  0.43978  0.61942  0.94051  1.0000
  N   N47       1.0  0.15074  0.53492  0.98441  1.0000
  Fe  Fe96      1.0  0.40350  0.79420  0.92677  1.0000
  C   C482      1.0  0.45351  0.74448  0.95311  1.0000
  C   C483      1.0  0.39011  0.51922  0.89794  1.0000
  C   C484      1.0  0.43555  0.64536  0.96271  1.0000
  S   S199      1.0  0.49188  0.92026  0.85255  1.0000
  H   H756      1.0  0.14836  0.55202  0.83235  1.0000
  H   H757      1.0  0.43872  0.84867  0.85033  1.0000
  H   H758      1.0  0.43233  0.82034  0.83324  1.0000
  H   H759      1.0  0.10841  0.50793  0.88685  1.0000
  H   H760      1.0  0.43449  0.94681  0.94065  1.0000
  H   H761      1.0  0.46679  0.56051  0.91669  1.0000
  H   H762      1.0  0.03311  0.52543  0.79926  1.0000
  H   H763      1.0  0.43340  0.98603  0.85628  1.0000
  H   H764      1.0  0.19141  0.49744  0.86352  1.0000
  H   H765      1.0  0.38028  0.84961  0.98396  1.0000
  C   C485      1.0  0.15103  0.51207  0.98314  1.0000
  C   C486      1.0  0.39028  0.83122  0.87108  1.0000
  H   H766      1.0  0.39623  0.81843  0.88465  1.0000
  S   S200      1.0  0.35730  0.57391  0.96134  1.0000
  H   H767      1.0  0.12907  0.56566  0.97911  1.0000
  N   N48       1.0  0.45729  0.83300  0.95893  1.0000
  N   N49       1.0  0.38292  0.50916  0.92030  1.0000
  H   H768      1.0  0.42525  0.80359  0.85897  1.0000
  H   H769      1.0  0.27935  0.65495  0.96820  1.0000
  H   H770      1.0  0.30983  0.69418  0.92801  1.0000
  C   C487      1.0  0.44116  0.56214  0.96661  1.0000
  H   H771      1.0  0.43134  0.83215  0.87617  1.0000
  C   C488      1.0  0.41858  0.81687  0.84606  1.0000
  H   H772      1.0  0.40662  0.81033  0.83957  1.0000
  C   C489      1.0  0.42474  0.84462  0.86267  1.0000
  H   H773      1.0  0.39195  0.86906  0.84209  1.0000
  C   C490      1.0  0.36165  0.69877  0.97034  1.0000
  N   N50       1.0  0.28751  0.54459  0.96541  1.0000
  H   H774      1.0  0.35316  0.69605  0.98635  1.0000
  C   C491      1.0  0.16912  0.54379  0.96978  1.0000
  C   C492      1.0  0.26551  0.54249  0.97709  1.0000
  H   H775      1.0  0.38216  0.53658  0.89355  1.0000
  C   C493      1.0  0.28988  0.56796  0.95867  1.0000
  H   H776      1.0  0.29739  0.70594  0.97223  1.0000
  Fe  Fe97      1.0  0.39015  0.80510  0.97099  1.0000
  H   H777      1.0  0.40684  0.52093  0.93265  1.0000
  H   H778      1.0  0.45932  0.93323  0.92855  1.0000
  H   H779      1.0  0.25337  0.53988  0.79632  1.0000
  H   H780      1.0  0.47683  0.62668  0.96943  1.0000
  C   C494      1.0  0.14025  0.49918  0.85225  1.0000
  H   H781      1.0  0.42786  0.63018  0.93016  1.0000
  Fe  Fe98      1.0  0.04298  0.50348  0.87895  1.0000
  H   H782      1.0  0.35308  0.50177  0.93990  1.0000
  C   C495      1.0  0.31590  0.66371  0.97778  1.0000
  S   S201      1.0  0.02595  0.50297  0.91219  1.0000
  C   C496      1.0  0.45510  0.81139  0.97313  1.0000
  H   H783      1.0  0.22721  0.50497  0.84406  1.0000
  S   S202      1.0  0.47938  0.74587  0.98196  1.0000
  H   H784      1.0  0.27669  0.68872  0.98169  1.0000
  H   H785      1.0  0.47963  0.60729  0.95303  1.0000
  C   C497      1.0  0.30419  0.53287  0.97934  1.0000
  H   H786      1.0  0.01348  0.57721  0.85189  1.0000
  H   H787      1.0  0.99641  0.59426  0.86825  1.0000
  H   H788      1.0  0.12779  0.54810  0.96183  1.0000
  H   H789      1.0  0.47047  0.79959  0.97194  1.0000
  H   H790      1.0  0.48806  0.91263  0.95045  1.0000
  H   H791      1.0  0.30296  0.51515  0.98467  1.0000
  C   C498      1.0  0.12994  0.54830  0.97832  1.0000
  H   H792      1.0  0.29258  0.50139  0.91093  1.0000
  C   C499      1.0  0.26790  0.50266  0.82352  1.0000
  H   H793      1.0  0.10652  0.51349  0.94205  1.0000
  H   H794      1.0  0.48846  0.86147  0.88638  1.0000
  H   H795      1.0  0.32500  0.67413  0.98329  1.0000
  C   C500      1.0  0.25042  0.49877  0.79484  1.0000
  H   H796      1.0  0.16615  0.50126  0.98826  1.0000
  H   H797      1.0  0.49448  0.55752  0.97311  1.0000
  H   H798      1.0  0.08314  0.49311  0.93006  1.0000
  C   C501      1.0  0.61024  0.47417  0.05975  1.0000
  H   H799      1.0  0.61679  0.46205  0.01111  1.0000
  S   S203      1.0  0.92822  0.36653  0.14661  1.0000
  Fe  Fe99      1.0  0.73621  0.46863  0.02538  1.0000
  S   S204      1.0  0.69996  0.47718  0.02466  1.0000
  S   S205      1.0  0.75518  0.46424  0.05273  1.0000
  Fe  Fe100     1.0  0.70382  0.45068  0.00651  1.0000
  S   S206      1.0  0.68061  0.42622  0.01193  1.0000
  H   H800      1.0  0.49885  0.12054  0.01253  1.0000
  S   S207      1.0  0.73918  0.43977  0.01076  1.0000
  Fe  Fe101     1.0  0.90410  0.48560  0.02282  1.0000
  Fe  Fe102     1.0  0.88081  0.45771  0.06138  1.0000
  H   H801      1.0  0.49777  0.15972  0.04535  1.0000
  S   S208      1.0  0.87113  0.42483  0.07650  1.0000
  H   H802      1.0  0.91134  0.45689  0.10967  1.0000
  S   S209      1.0  0.96755  0.41278  0.13503  1.0000
  H   H803      1.0  0.82557  0.44525  0.03743  1.0000
  N   N51       1.0  0.88907  0.45695  0.13848  1.0000
  H   H804      1.0  0.97240  0.46322  0.12437  1.0000
  H   H805      1.0  0.88156  0.42633  0.13578  1.0000
  C   C502      1.0  0.62825  0.44066  0.04944  1.0000
  C   C503      1.0  0.81056  0.48737  0.05313  1.0000
  N   N52       1.0  0.81555  0.43853  0.01013  1.0000
  H   H806      1.0  0.88038  0.48679  0.11586  1.0000
  H   H807      1.0  0.53104  0.14355  0.07629  1.0000
  H   H808      1.0  0.63718  0.43293  0.03629  1.0000
  C   C504      1.0  0.81778  0.43298  0.03305  1.0000
  H   H809      1.0  0.84855  0.42420  0.00116  1.0000
  C   C505      1.0  0.83727  0.43996  0.99756  1.0000
  C   C506      1.0  0.60822  0.46896  0.02490  1.0000
  C   C507      1.0  0.80587  0.42142  0.00497  1.0000
  H   H810      1.0  0.62041  0.47131  0.07282  1.0000
  H   H811      1.0  0.63841  0.49255  0.02837  1.0000
  H   H812      1.0  0.78451  0.45900  0.01372  1.0000
  H   H813      1.0  0.89938  0.45951  0.16729  1.0000
  H   H814      1.0  0.89946  0.45286  0.99671  1.0000
  C   C508      1.0  0.66027  0.43193  0.99503  1.0000
  H   H815      1.0  0.79572  0.45895  0.06918  1.0000
  H   H816      1.0  0.60542  0.49221  0.05448  1.0000
  H   H817      1.0  0.61362  0.43259  0.05597  1.0000
  H   H818      1.0  0.52663  0.12951  0.05707  1.0000
  C   C509      1.0  0.77483  0.48170  0.04815  1.0000
  C   C510      1.0  0.88966  0.44971  0.16165  1.0000
  H   H819      1.0  0.53055  0.13472  0.98874  1.0000
  C   C511      1.0  0.95815  0.47418  0.17500  1.0000
  H   H820      1.0  0.91956  0.43629  0.13224  1.0000
  S   S210      1.0  0.98470  0.36418  0.16402  1.0000
  N   N53       1.0  0.62223  0.46455  0.04193  1.0000
  H   H821      1.0  0.80750  0.47300  0.00934  1.0000
  H   H822      1.0  0.81622  0.40511  0.00864  1.0000
  C   C512      1.0  0.88006  0.48050  0.13329  1.0000
  C   C513      1.0  0.91313  0.38240  0.12637  1.0000
  C   C514      1.0  0.92036  0.40089  0.11262  1.0000
  C   C515      1.0  0.90767  0.41389  0.09709  1.0000
  C   C516      1.0  0.88777  0.40832  0.09516  1.0000
  C   C517      1.0  0.88076  0.38958  0.10865  1.0000
  C   C518      1.0  0.89341  0.37665  0.12422  1.0000
  H   H823      1.0  0.93588  0.40500  0.11367  1.0000
  H   H824      1.0  0.91339  0.42806  0.08655  1.0000
  H   H825      1.0  0.86543  0.38516  0.10718  1.0000
  H   H826      1.0  0.88779  0.36229  0.13471  1.0000
  C   C519      1.0  0.98017  0.46772  0.10764  1.0000
  S   S211      1.0  0.87155  0.47459  0.02925  1.0000
  C   C520      1.0  0.91140  0.45341  0.12717  1.0000
  C   C521      1.0  0.98205  0.46271  0.00967  1.0000
  H   H827      1.0  0.98454  0.44642  0.02078  1.0000
  H   H828      1.0  0.87466  0.44891  0.11439  1.0000
  C   C522      1.0  0.51625  0.14599  0.99301  1.0000
  Fe  Fe103     1.0  0.96112  0.42441  0.16530  1.0000
  C   C523      1.0  0.94977  0.31531  0.17912  1.0000
  S   S212      1.0  0.91469  0.46581  0.05358  1.0000
  S   S213      1.0  0.92461  0.48778  0.99102  1.0000
  H   H829      1.0  0.50033  0.15430  0.10283  1.0000
  H   H830      1.0  0.89726  0.43225  0.16609  1.0000
  H   H831      1.0  0.80156  0.43244  0.04299  1.0000
  H   H832      1.0  0.85814  0.44666  0.13975  1.0000
  H   H833      1.0  0.86292  0.48381  0.14083  1.0000
  H   H834      1.0  0.92174  0.46437  0.13015  1.0000
  H   H835      1.0  0.50073  0.17383  0.06502  1.0000
  C   C524      1.0  0.52135  0.13183  0.07361  1.0000
  Fe  Fe104     1.0  0.95303  0.38350  0.15417  1.0000
  H   H836      1.0  0.63920  0.43670  0.06200  1.0000
  N   N54       1.0  0.49767  0.13984  0.07706  1.0000
  H   H837      1.0  0.78941  0.42002  0.01415  1.0000
  H   H838      1.0  0.96440  0.46960  0.01201  1.0000
  H   H839      1.0  0.59507  0.46705  0.06648  1.0000
  H   H840      1.0  0.64940  0.40067  0.00736  1.0000
  H   H841      1.0  0.88984  0.49042  0.13873  1.0000
  H   H842      1.0  0.98478  0.45249  0.10147  1.0000
  H   H843      1.0  0.95790  0.29874  0.17711  1.0000
  C   C525      1.0  0.64223  0.47444  0.03365  1.0000
  H   H844      1.0  0.87301  0.45152  0.17062  1.0000
  H   H845      1.0  0.60328  0.48686  0.01888  1.0000
  C   C526      1.0  0.79380  0.47458  0.05801  1.0000
  H   H846      1.0  0.82807  0.41678  0.03772  1.0000
  H   H847      1.0  0.65347  0.47088  0.04590  1.0000
  S   S214      1.0  0.86676  0.48616  0.07641  1.0000
  H   H848      1.0  0.96748  0.47860  0.09829  1.0000
  H   H849      1.0  0.97927  0.42976  0.99180  1.0000
  H   H850      1.0  0.98883  0.45248  0.17433  1.0000
  C   C527      1.0  0.87522  0.44419  0.13185  1.0000
  H   H851      1.0  0.59304  0.46163  0.03053  1.0000
  C   C528      1.0  0.49689  0.18301  0.98990  1.0000
  C   C529      1.0  0.98002  0.46744  0.17826  1.0000
  H   H852      1.0  0.65145  0.46800  0.01983  1.0000
  C   C530      1.0  0.49831  0.13796  0.00640  1.0000
  C   C531      1.0  0.64665  0.41645  0.99653  1.0000
  H   H853      1.0  0.95990  0.32734  0.16880  1.0000
  C   C532      1.0  0.80120  0.45979  0.00494  1.0000
  C   C533      1.0  0.99078  0.48052  0.18608  1.0000
  H   H854      1.0  0.52579  0.11580  0.08461  1.0000
  H   H855      1.0  0.93386  0.31887  0.17270  1.0000
  S   S215      1.0  0.94340  0.39715  0.18329  1.0000
  H   H856      1.0  0.82528  0.48154  0.06058  1.0000
  S   S216      1.0  0.99314  0.40849  0.17663  1.0000
  S   S217      1.0  0.94433  0.45851  0.16496  1.0000
  C   C534      1.0  0.50448  0.00457  0.99231  1.0000
  S   S218      1.0  0.74505  0.49184  0.99476  1.0000
  H   H857      1.0  0.84501  0.45276  0.00105  1.0000
  H   H858      1.0  0.99132  0.47342  0.01463  1.0000
  C   C535      1.0  0.99341  0.37740  0.27493  1.0000
  H   H859      1.0  0.53208  0.04006  0.24116  1.0000
  H   H860      1.0  0.61718  0.07038  0.27281  1.0000
  H   H861      1.0  0.99463  0.44747  0.27760  1.0000
  H   H862      1.0  0.60273  0.08957  0.28837  1.0000
  H   H863      1.0  0.64762  0.04006  0.36937  1.0000
  C   C536      1.0  0.61032  0.07217  0.28921  1.0000
  C   C537      1.0  0.99258  0.49174  0.34384  1.0000
  C   C538      1.0  0.96543  0.43473  0.25945  1.0000
  S   S219      1.0  0.50917  0.03655  0.20712  1.0000
  C   C539      1.0  0.65145  0.02573  0.36259  1.0000
  H   H864      1.0  0.60429  0.05770  0.33177  1.0000
  H   H865      1.0  0.96095  0.42880  0.24635  1.0000
  S   S220      1.0  0.97671  0.42146  0.36399  1.0000
  C   C540      1.0  0.53737  0.09235  0.26656  1.0000
  H   H866      1.0  0.56059  0.12831  0.29459  1.0000
  H   H867      1.0  0.62384  0.03124  0.31101  1.0000
  H   H868      1.0  0.54308  0.06659  0.29422  1.0000
  C   C541      1.0  0.55414  0.11822  0.28680  1.0000
  Fe  Fe105     1.0  0.55756  0.05075  0.33496  1.0000
  C   C542      1.0  0.98274  0.36828  0.26283  1.0000
  S   S221      1.0  0.56102  0.08596  0.32194  1.0000
  H   H869      1.0  0.55386  0.01958  0.21509  1.0000
  H   H870      1.0  0.95586  0.46816  0.22652  1.0000
  S   S222      1.0  0.69408  0.02902  0.36285  1.0000
  C   C543      1.0  0.63926  0.99849  0.34889  1.0000
  S   S223      1.0  0.57405  0.03161  0.36296  1.0000
  C   C544      1.0  0.54708  0.12713  0.26687  1.0000
  H   H871      1.0  0.94577  0.47634  0.25125  1.0000
  S   S224      1.0  0.96972  0.42029  0.31569  1.0000
  H   H872      1.0  0.62948  0.06371  0.33652  1.0000
  C   C545      1.0  0.55343  0.00436  0.22776  1.0000
  S   S225      1.0  0.97527  0.36007  0.22568  1.0000
  C   C546      1.0  0.98931  0.37057  0.24093  1.0000
  H   H873      1.0  0.53143  0.08217  0.25861  1.0000
  S   S226      1.0  0.94190  0.37811  0.36188  1.0000
  C   C547      1.0  0.64468  0.07889  0.29598  1.0000
  H   H874      1.0  0.64959  0.03646  0.31517  1.0000
  S   S227      1.0  0.75835  0.01655  0.36548  1.0000
  S   S228      1.0  0.52845  0.12656  0.23248  1.0000
  H   H875      1.0  0.99151  0.44344  0.22288  1.0000
  C   C548      1.0  0.67804  0.99752  0.35002  1.0000
  H   H876      1.0  0.98611  0.09665  0.37190  1.0000
  Fe  Fe106     1.0  0.72488  0.00663  0.37232  1.0000
  H   H877      1.0  0.91978  0.34337  0.19734  1.0000
  H   H878      1.0  0.96866  0.46454  0.28101  1.0000
  H   H879      1.0  0.91686  0.30378  0.20927  1.0000
  H   H880      1.0  0.88566  0.02364  0.37214  1.0000
  H   H881      1.0  0.93068  0.30188  0.23168  1.0000
  S   S229      1.0  0.96627  0.47912  0.32074  1.0000
  H   H882      1.0  0.65765  0.07405  0.30667  1.0000
  H   H883      1.0  0.95035  0.43803  0.27055  1.0000
  H   H884      1.0  0.65260  0.07716  0.27981  1.0000
  H   H885      1.0  0.60927  0.08535  0.32504  1.0000
  H   H886      1.0  0.54806  0.14408  0.25933  1.0000
  Fe  Fe107     1.0  0.53809  0.01241  0.33022  1.0000
  C   C549      1.0  0.55261  0.09644  0.29676  1.0000
  H   H887      1.0  0.96675  0.31428  0.22608  1.0000
  N   N55       1.0  0.62717  0.06532  0.30375  1.0000
  C   C550      1.0  0.53842  0.11433  0.25681  1.0000
  H   H888      1.0  0.50642  0.12529  0.30204  1.0000
  H   H889      1.0  0.57138  0.02190  0.26583  1.0000
  Fe  Fe108     1.0  0.58355  0.00556  0.34425  1.0000
  H   H890      1.0  0.99126  0.30976  0.38526  1.0000
  H   H891      1.0  0.79624  0.03352  0.38169  1.0000
  H   H892      1.0  0.63821  0.09653  0.29521  1.0000
  C   C551      1.0  0.61719  0.06815  0.32521  1.0000
  C   C552      1.0  0.98291  0.46078  0.26912  1.0000
  H   H893      1.0  0.97901  0.32472  0.19982  1.0000
  H   H894      1.0  0.97714  0.29609  0.20829  1.0000
  Fe  Fe109     1.0  0.98026  0.44348  0.33140  1.0000
  H   H895      1.0  0.85784  0.02517  0.36804  1.0000
  N   N56       1.0  0.97622  0.45430  0.25126  1.0000
  S   S230      1.0  0.56903  0.02580  0.31517  1.0000
  Fe  Fe110     1.0  0.96962  0.39703  0.34755  1.0000
  H   H896      1.0  0.61797  0.02425  0.36138  1.0000
  H   H897      1.0  0.82521  0.05704  0.37013  1.0000
  S   S231      1.0  0.52576  0.03921  0.34807  1.0000
  C   C553      1.0  0.63649  0.04207  0.30465  1.0000
  H   H898      1.0  0.64379  0.03916  0.28870  1.0000
  H   H899      1.0  0.96914  0.35983  0.27036  1.0000
  C   C554      1.0  0.54435  0.08343  0.28659  1.0000
  S   S232      1.0  0.51224  0.01003  0.31094  1.0000
  Fe  Fe111     1.0  0.50452  0.10998  0.22284  1.0000
  H   H900      1.0  0.50304  0.09708  0.30973  1.0000
  C   C555      1.0  0.96993  0.33976  0.37416  1.0000
  Fe  Fe112     1.0  0.49569  0.07008  0.21167  1.0000
  H   H901      1.0  0.94591  0.35166  0.19369  1.0000
  H   H902      1.0  0.53879  0.99751  0.22652  1.0000
  H   H903      1.0  0.98305  0.34890  0.36739  1.0000
  C   C556      1.0  0.63456  0.01677  0.35804  1.0000
  H   H904      1.0  0.59686  0.06225  0.29473  1.0000
  Fe  Fe113     1.0  0.54332  0.01725  0.37435  1.0000
  C   C557      1.0  0.97455  0.31761  0.38430  1.0000
  C   C558      1.0  0.93323  0.30091  0.21466  1.0000
  C   C559      1.0  0.81842  0.05324  0.38669  1.0000
  H   H905      1.0  0.53119  0.02837  0.26913  1.0000
  H   H906      1.0  0.91455  0.34578  0.38161  1.0000
  C   C560      1.0  0.96084  0.47238  0.24037  1.0000
  Fe  Fe114     1.0  0.97602  0.37978  0.19210  1.0000
  C   C561      1.0  0.94830  0.35001  0.37316  1.0000
  H   H907      1.0  0.57239  0.03413  0.23793  1.0000
  C   C562      1.0  0.67326  0.01624  0.35850  1.0000
  H   H908      1.0  0.58712  0.00716  0.24670  1.0000
  C   C563      1.0  0.53245  0.02441  0.25330  1.0000
  C   C564      1.0  0.57173  0.01842  0.24990  1.0000
  S   S233      1.0  0.50904  0.09953  0.19186  1.0000
  C   C565      1.0  0.93133  0.33800  0.38241  1.0000
  H   H909      1.0  0.99116  0.47545  0.26354  1.0000
  H   H910      1.0  0.51747  0.01769  0.25299  1.0000
  H   H911      1.0  0.94096  0.28390  0.21375  1.0000
  H   H912      1.0  0.97633  0.42107  0.26837  1.0000
  H   H913      1.0  0.96830  0.48753  0.23430  1.0000
  H   H914      1.0  0.72791  0.06820  0.38172  1.0000
  H   H915      1.0  0.98396  0.13040  0.38537  1.0000
  C   C566      1.0  0.96836  0.31274  0.20927  1.0000
  C   C567      1.0  0.93594  0.33928  0.20330  1.0000
  N   N57       1.0  0.55241  0.00884  0.24904  1.0000
  N   N58       1.0  0.94684  0.31703  0.20159  1.0000
  H   H916      1.0  0.98798  0.37604  0.29174  1.0000
  H   H917      1.0  0.93362  0.34139  0.21998  1.0000
  C   C568      1.0  0.86920  0.02054  0.38028  1.0000
  Fe  Fe115     1.0  0.90228  0.25304  0.46553  1.0000
  S   S234      1.0  0.93586  0.23757  0.45463  1.0000
  S   S235      1.0  0.87561  0.23249  0.47065  1.0000
  Fe  Fe116     1.0  0.91870  0.29138  0.47542  1.0000
  S   S236      1.0  0.95334  0.27829  0.46546  1.0000
  S   S237      1.0  0.91017  0.32199  0.48890  1.0000
  Fe  Fe117     1.0  0.94092  0.27171  0.43807  1.0000
  H   H918      1.0  0.51976  0.00240  0.45385  1.0000
  Fe  Fe118     1.0  0.94502  0.24545  0.48303  1.0000
  S   S238      1.0  0.96392  0.21924  0.50579  1.0000
  S   S239      1.0  0.90629  0.28710  0.44654  1.0000
  S   S240      1.0  0.91120  0.25893  0.49520  1.0000
  S   S241      1.0  0.87588  0.11695  0.45875  1.0000
  Fe  Fe119     1.0  0.84515  0.10380  0.45943  1.0000
  S   S242      1.0  0.81841  0.10381  0.48697  1.0000
  Fe  Fe120     1.0  0.57083  0.03233  0.55291  1.0000
  H   H919      1.0  0.95815  0.19399  0.47302  1.0000
  H   H920      1.0  0.70037  0.09451  0.39831  1.0000
  H   H921      1.0  0.69219  0.08838  0.42655  1.0000
  S   S243      1.0  0.74096  0.02675  0.53071  1.0000
  S   S244      1.0  0.95242  0.40900  0.55023  1.0000
  N   N59       1.0  0.94019  0.16838  0.47354  1.0000
  C   C569      1.0  0.97451  0.11878  0.43661  1.0000
  S   S245      1.0  0.99259  0.37210  0.56989  1.0000
  H   H922      1.0  0.79346  0.04020  0.44579  1.0000
  S   S246      1.0  0.54403  0.04957  0.53331  1.0000
  H   H923      1.0  0.81180  0.02292  0.47909  1.0000
  Fe  Fe121     1.0  0.72924  0.03640  0.49872  1.0000
  H   H924      1.0  0.83556  0.99800  0.38984  1.0000
  S   S247      1.0  0.73874  0.06447  0.47263  1.0000
  H   H925      1.0  0.94849  0.14157  0.42203  1.0000
  H   H926      1.0  0.68450  0.07295  0.41015  1.0000
  H   H927      1.0  0.95087  0.39734  0.41340  1.0000
  H   H928      1.0  0.84025  0.03896  0.52694  1.0000
  H   H929      1.0  0.62293  0.02313  0.45734  1.0000
  H   H930      1.0  0.93108  0.39294  0.44990  1.0000
  H   H931      1.0  0.79717  0.01122  0.51683  1.0000
  S   S248      1.0  0.69441  0.03241  0.51091  1.0000
  H   H932      1.0  0.95986  0.37398  0.40187  1.0000
  C   C570      1.0  0.93839  0.11049  0.43681  1.0000
  H   H933      1.0  0.49639  0.08940  0.58448  1.0000
  C   C571      1.0  0.54085  0.02028  0.46334  1.0000
  H   H934      1.0  0.61884  0.03617  0.54198  1.0000
  C   C572      1.0  0.92062  0.17786  0.48620  1.0000
  S   S249      1.0  0.96353  0.27854  0.40765  1.0000
  H   H935      1.0  0.86385  0.03191  0.39127  1.0000
  Fe  Fe122     1.0  0.52791  0.02017  0.54890  1.0000
  S   S250      1.0  0.99024  0.42419  0.57127  1.0000
  Fe  Fe123     1.0  0.97946  0.38431  0.53847  1.0000
  H   H936      1.0  0.92261  0.36730  0.46333  1.0000
  H   H937      1.0  0.65887  0.02777  0.54135  1.0000
  C   C573      1.0  0.98802  0.22121  0.53636  1.0000
  H   H938      1.0  0.74033  0.04372  0.39807  1.0000
  H   H939      1.0  0.96221  0.17074  0.49442  1.0000
  C   C574      1.0  0.61283  0.04224  0.57352  1.0000
  H   H940      1.0  0.82277  0.06334  0.43431  1.0000
  H   H941      1.0  0.91245  0.39061  0.42006  1.0000
  C   C575      1.0  0.53176  0.01331  0.44843  1.0000
  C   C576      1.0  0.98795  0.25057  0.50503  1.0000
  C   C577      1.0  0.83522  0.04430  0.51075  1.0000
  C   C578      1.0  0.80058  0.04368  0.42931  1.0000
  H   H942      1.0  0.95240  0.16933  0.44065  1.0000
  C   C579      1.0  0.56264  0.04154  0.43465  1.0000
  C   C580      1.0  0.55357  0.03457  0.41978  1.0000
  Fe  Fe124     1.0  0.70440  0.99768  0.50763  1.0000
  H   H943      1.0  0.97202  0.37619  0.42398  1.0000
  H   H944      1.0  0.98308  0.20584  0.54516  1.0000
  C   C581      1.0  0.71415  0.04762  0.43444  1.0000
  H   H945      1.0  0.70852  0.05440  0.44891  1.0000
  H   H946      1.0  0.97045  0.06611  0.46242  1.0000
  H   H947      1.0  0.93944  0.46501  0.55788  1.0000
  C   C582      1.0  0.98076  0.09742  0.44787  1.0000
  H   H948      1.0  0.93466  0.19364  0.44552  1.0000
  H   H949      1.0  0.90511  0.28449  0.55054  1.0000
  H   H950      1.0  0.93522  0.33458  0.44678  1.0000
  H   H951      1.0  0.99313  0.21023  0.45056  1.0000
  H   H952      1.0  0.95815  0.13665  0.47136  1.0000
  C   C583      1.0  0.65850  0.03363  0.57241  1.0000
  H   H953      1.0  0.90641  0.36367  0.43301  1.0000
  H   H954      1.0  0.59768  0.00323  0.44773  1.0000
  C   C584      1.0  0.80514  0.02384  0.52030  1.0000
  H   H955      1.0  0.75060  0.06458  0.42194  1.0000
  C   C585      1.0  0.91908  0.37285  0.42262  1.0000
  S   S251      1.0  0.58426  0.04701  0.57490  1.0000
  C   C586      1.0  0.64886  0.03233  0.55508  1.0000
  C   C587      1.0  0.62609  0.03671  0.55560  1.0000
  C   C588      1.0  0.91979  0.29148  0.54173  1.0000
  H   H956      1.0  0.92152  0.27928  0.58379  1.0000
  H   H957      1.0  0.82355  0.05981  0.51035  1.0000
  H   H958      1.0  0.91610  0.30952  0.54016  1.0000
  C   C589      1.0  0.79557  0.09413  0.48280  1.0000
  C   C590      1.0  0.79264  0.09315  0.46237  1.0000
  C   C591      1.0  0.77489  0.08441  0.45936  1.0000
  C   C592      1.0  0.76037  0.07601  0.47680  1.0000
  C   C593      1.0  0.76321  0.07709  0.49723  1.0000
  C   C594      1.0  0.78064  0.08640  0.50019  1.0000
  H   H959      1.0  0.80413  0.09886  0.44885  1.0000
  H   H960      1.0  0.77278  0.08362  0.44352  1.0000
  H   H961      1.0  0.75174  0.07114  0.51070  1.0000
  H   H962      1.0  0.78274  0.08724  0.51602  1.0000
  H   H963      1.0  0.92207  0.11580  0.43259  1.0000
  C   C595      1.0  0.87865  0.21354  0.45443  1.0000
  C   C596      1.0  0.87003  0.19401  0.46252  1.0000
  C   C597      1.0  0.87131  0.17904  0.44964  1.0000
  C   C598      1.0  0.88024  0.18400  0.42830  1.0000
  C   C599      1.0  0.88922  0.20335  0.42031  1.0000
  C   C600      1.0  0.88876  0.21793  0.43344  1.0000
  H   H964      1.0  0.86241  0.19049  0.47882  1.0000
  H   H965      1.0  0.86475  0.16403  0.45597  1.0000
  H   H966      1.0  0.89623  0.20726  0.40381  1.0000
  H   H967      1.0  0.89538  0.23300  0.42705  1.0000
  N   N60       1.0  0.86944  0.99754  0.39190  1.0000
  S   S252      1.0  0.72558  0.99746  0.40739  1.0000
  S   S253      1.0  0.84763  0.07715  0.39296  1.0000
  C   C601      1.0  0.93074  0.33253  0.49679  1.0000
  C   C602      1.0  0.92480  0.34854  0.50900  1.0000
  C   C603      1.0  0.94084  0.35744  0.51522  1.0000
  C   C604      1.0  0.96293  0.35060  0.50898  1.0000
  C   C605      1.0  0.96883  0.33484  0.49656  1.0000
  C   C606      1.0  0.95284  0.32576  0.49061  1.0000
  H   H968      1.0  0.90771  0.35405  0.51369  1.0000
  S   S254      1.0  0.56902  0.04269  0.47458  1.0000
  H   H969      1.0  0.95776  0.31367  0.48109  1.0000
  H   H970      1.0  0.91764  0.19606  0.48139  1.0000
  H   H971      1.0  0.96297  0.33938  0.44299  1.0000
  H   H972      1.0  0.81318  0.99360  0.45830  1.0000
  H   H973      1.0  0.92229  0.17346  0.50345  1.0000
  H   H974      1.0  0.78355  0.99556  0.48817  1.0000
  C   C607      1.0  0.95637  0.37935  0.41721  1.0000
  C   C608      1.0  0.80200  0.03996  0.39319  1.0000
  C   C609      1.0  0.94745  0.34390  0.43584  1.0000
  N   N61       1.0  0.80513  0.17139  0.46125  1.0000
  C   C610      1.0  0.82008  0.16019  0.47710  1.0000
  C   C611      1.0  0.79227  0.15560  0.45808  1.0000
  C   C612      1.0  0.81794  0.18031  0.44089  1.0000
  C   C613      1.0  0.79022  0.18947  0.46903  1.0000
  H   H975      1.0  0.82957  0.17170  0.48045  1.0000
  H   H976      1.0  0.83194  0.14682  0.47148  1.0000
  H   H977      1.0  0.81106  0.15251  0.49242  1.0000
  H   H978      1.0  0.78076  0.16337  0.44625  1.0000
  H   H979      1.0  0.80301  0.14170  0.45234  1.0000
  H   H980      1.0  0.78265  0.14833  0.47321  1.0000
  H   H981      1.0  0.80730  0.18818  0.42829  1.0000
  H   H982      1.0  0.83006  0.16730  0.43491  1.0000
  H   H983      1.0  0.82728  0.19283  0.44255  1.0000
  H   H984      1.0  0.77870  0.19829  0.45746  1.0000
  H   H985      1.0  0.79943  0.20168  0.47162  1.0000
  H   H986      1.0  0.78037  0.18332  0.48441  1.0000
  H   H987      1.0  0.83466  0.03733  0.47173  1.0000
  C   C614      1.0  0.53820  0.02031  0.42660  1.0000
  C   C615      1.0  0.94292  0.14424  0.47986  1.0000
  N   N62       1.0  0.82528  0.02744  0.50547  1.0000
  S   S255      1.0  0.98382  0.36115  0.51609  1.0000
  Fe  Fe125     1.0  0.97662  0.43252  0.54029  1.0000
  Fe  Fe126     1.0  0.76008  0.00407  0.40042  1.0000
  H   H988      1.0  0.72930  0.03577  0.43762  1.0000
  Fe  Fe127     1.0  0.56096  0.02934  0.50976  1.0000
  Fe  Fe128     1.0  0.96792  0.39898  0.58066  1.0000
  H   H989      1.0  0.64000  0.00978  0.47782  1.0000
  S   S256      1.0  0.77249  0.01858  0.42340  1.0000
  H   H990      1.0  0.98632  0.23222  0.46431  1.0000
  N   N63       1.0  0.93973  0.36775  0.43199  1.0000
  H   H991      1.0  0.74021  0.08861  0.40341  1.0000
  H   H992      1.0  0.95584  0.30957  0.53871  1.0000
  C   C616      1.0  0.95969  0.17587  0.47736  1.0000
  C   C617      1.0  0.95836  0.29157  0.54006  1.0000
  C   C618      1.0  0.99362  0.22789  0.44893  1.0000
  H   H993      1.0  0.80853  0.01822  0.53708  1.0000
  C   C619      1.0  0.94494  0.48072  0.55434  1.0000
  C   C620      1.0  0.95755  0.30581  0.39395  1.0000
  H   H994      1.0  0.57451  0.05258  0.42921  1.0000
  C   C621      1.0  0.93758  0.17551  0.45072  1.0000
  H   H995      1.0  0.98303  0.23745  0.43673  1.0000
  C   C622      1.0  0.55638  0.03438  0.45647  1.0000
  S   S257      1.0  0.87923  0.16702  0.41104  1.0000
  H   H996      1.0  0.79294  0.03907  0.51919  1.0000
  Fe  Fe129     1.0  0.87151  0.13287  0.42498  1.0000
  S   S258      1.0  0.86247  0.07279  0.45006  1.0000
  S   S259      1.0  0.83916  0.12223  0.42657  1.0000
  H   H997      1.0  0.55824  0.04056  0.40306  1.0000
  Fe  Fe130     1.0  0.89283  0.08799  0.44559  1.0000
  C   C623      1.0  0.93592  0.31604  0.39306  1.0000
  S   S260      1.0  0.99197  0.13849  0.43030  1.0000
  S   S261      1.0  0.55347  0.00434  0.57014  1.0000
  C   C624      1.0  0.69788  0.08097  0.41245  1.0000
  H   H998      1.0  0.80843  0.05053  0.48142  1.0000
  C   C625      1.0  0.82611  0.06162  0.40149  1.0000
  H   H999      1.0  0.94607  0.25410  0.53794  1.0000
  N   N64       1.0  0.71815  0.06512  0.41535  1.0000
  C   C626      1.0  0.93594  0.37490  0.45231  1.0000
  Fe  Fe131     1.0  0.85823  0.09191  0.41695  1.0000
  H   H1000     1.0  0.95030  0.27923  0.58245  1.0000
  C   C627      1.0  0.98141  0.23085  0.51633  1.0000
  C   C628      1.0  0.81708  0.05685  0.42283  1.0000
  Fe  Fe132     1.0  0.70668  0.01988  0.54254  1.0000
  H   H1001     1.0  0.96143  0.28868  0.52365  1.0000
  C   C629      1.0  0.94445  0.08915  0.44814  1.0000
  H   H1002     1.0  0.98591  0.32941  0.49168  1.0000
  H   H1003     1.0  0.93614  0.36969  0.52472  1.0000
  H   H1004     1.0  0.95844  0.25012  0.56164  1.0000
  H   H1005     1.0  0.84987  0.04824  0.49926  1.0000
  H   H1006     1.0  0.92143  0.36848  0.40690  1.0000
  S   S262      1.0  0.92535  0.07090  0.45563  1.0000
  C   C630      1.0  0.79309  0.03511  0.41455  1.0000
  H   H1007     1.0  0.97475  0.16909  0.46792  1.0000
  S   S263      1.0  0.97183  0.46711  0.52096  1.0000
  H   H1008     1.0  0.98379  0.25763  0.48938  1.0000
  H   H1009     1.0  0.92912  0.13781  0.47614  1.0000
  S   S264      1.0  0.52671  0.01116  0.40821  1.0000
  S   S265      1.0  0.68693  0.02729  0.57262  1.0000
  C   C631      1.0  0.84091  0.00681  0.50731  1.0000
  H   H1010     1.0  0.97354  0.28452  0.54751  1.0000
  H   H1011     1.0  0.90576  0.17200  0.48413  1.0000
  C   C632      1.0  0.95340  0.12516  0.43092  1.0000
  H   H1012     1.0  0.62258  0.99304  0.55725  1.0000
  S   S266      1.0  0.89019  0.10453  0.41154  1.0000
  H   H1013     1.0  0.73046  0.08513  0.43127  1.0000
  H   H1014     1.0  0.95080  0.37026  0.46053  1.0000
  C   C633      1.0  0.96572  0.08257  0.45356  1.0000
  H   H1015     1.0  0.92349  0.16943  0.44711  1.0000
  H   H1016     1.0  0.93265  0.30425  0.57328  1.0000
  H   H1017     1.0  0.95051  0.33799  0.42083  1.0000
  H   H1018     1.0  0.53574  0.01481  0.48008  1.0000
  H   H1019     1.0  0.94397  0.13830  0.49717  1.0000
  C   C634      1.0  0.81987  0.03487  0.48347  1.0000
  S   S267      1.0  0.58948  0.01504  0.52793  1.0000
  N   N65       1.0  0.93937  0.28183  0.55245  1.0000
  C   C635      1.0  0.94356  0.25796  0.55396  1.0000
  H   H1020     1.0  0.92205  0.28842  0.52540  1.0000
  H   H1021     1.0  0.84054  0.00494  0.41338  1.0000
  H   H1022     1.0  0.92967  0.24998  0.56335  1.0000
  H   H1023     1.0  0.70168  0.03819  0.43270  1.0000
  C   C636      1.0  0.72494  0.05550  0.39646  1.0000
  C   C637      1.0  0.73559  0.07641  0.41804  1.0000
  H   H1024     1.0  0.85616  0.00890  0.49611  1.0000
  H   H1025     1.0  0.84543  0.00073  0.52368  1.0000
  S   S268      1.0  0.73819  0.00285  0.49195  1.0000
  C   C638      1.0  0.93578  0.28632  0.57397  1.0000
  C   C639      1.0  0.84707  0.99424  0.40188  1.0000
  H   H1026     1.0  0.71231  0.04662  0.39399  1.0000
  H   H1027     1.0  0.87792  0.00278  0.42052  1.0000
  C   C640      1.0  0.49517  0.05930  0.57567  1.0000
  H   H1028     1.0  0.83390  0.99369  0.50360  1.0000
  C   C641      1.0  0.62395  0.01052  0.47243  1.0000
  H   H1029     1.0  0.92272  0.30694  0.40029  1.0000
  H   H1030     1.0  0.90085  0.99548  0.40168  1.0000
  H   H1031     1.0  0.58601  0.99567  0.47489  1.0000
  C   C642      1.0  0.96067  0.48601  0.53690  1.0000
  H   H1032     1.0  0.50770  0.06196  0.56230  1.0000
  S   S269      1.0  0.54271  0.00115  0.52382  1.0000
  H   H1033     1.0  0.61100  0.01656  0.48437  1.0000
  Fe  Fe133     1.0  0.74770  0.99287  0.52463  1.0000
  H   H1034     1.0  0.92325  0.49209  0.57992  1.0000
  H   H1035     1.0  0.63768  0.99336  0.43780  1.0000
  H   H1036     1.0  0.55034  0.06481  0.61100  1.0000
  Fe  Fe134     1.0  0.98500  0.42250  0.70788  1.0000
  C   C643      1.0  0.51051  0.01651  0.72091  1.0000
  C   C644      1.0  0.51671  0.02642  0.62703  1.0000
  Fe  Fe135     1.0  0.96066  0.43304  0.74964  1.0000
  H   H1037     1.0  0.96310  0.43904  0.61250  1.0000
  S   S270      1.0  0.93183  0.48676  0.68542  1.0000
  H   H1038     1.0  0.51625  0.01077  0.63906  1.0000
  H   H1039     1.0  0.51766  0.02266  0.61114  1.0000
  N   N66       1.0  0.53527  0.03696  0.62828  1.0000
  H   H1040     1.0  0.52104  0.06938  0.61356  1.0000
  S   S271      1.0  0.98926  0.45740  0.69403  1.0000
  C   C645      1.0  0.96383  0.45635  0.64600  1.0000
  H   H1041     1.0  0.51431  0.17749  0.75908  1.0000
  C   C646      1.0  0.96287  0.40085  0.66967  1.0000
  S   S272      1.0  0.94942  0.42960  0.71990  1.0000
  H   H1042     1.0  0.51251  0.02338  0.73389  1.0000
  H   H1043     1.0  0.52704  0.15048  0.77081  1.0000
  H   H1044     1.0  0.50021  0.15455  0.76317  1.0000
  H   H1045     1.0  0.95124  0.44816  0.65763  1.0000
  H   H1046     1.0  0.91895  0.45690  0.76275  1.0000
  C   C647      1.0  0.96294  0.39579  0.63390  1.0000
  H   H1047     1.0  0.93391  0.40179  0.65573  1.0000
  H   H1048     1.0  0.53292  0.02789  0.66232  1.0000
  H   H1049     1.0  0.54599  0.05136  0.65039  1.0000
  C   C648      1.0  0.55585  0.02170  0.62557  1.0000
  H   H1050     1.0  0.65251  0.04031  0.60373  1.0000
  Fe  Fe136     1.0  0.95430  0.46460  0.70750  1.0000
  H   H1051     1.0  0.96887  0.46806  0.65361  1.0000
  H   H1052     1.0  0.61229  0.04809  0.60464  1.0000
  H   H1053     1.0  0.95394  0.40378  0.68460  1.0000
  S   S273      1.0  0.94831  0.39563  0.61322  1.0000
  C   C649      1.0  0.98569  0.39774  0.66683  1.0000
  H   H1054     1.0  0.53682  0.05352  0.59533  1.0000
  C   C650      1.0  0.95155  0.39961  0.65335  1.0000
  H   H1055     1.0  0.93634  0.44248  0.62710  1.0000
  S   S274      1.0  0.96197  0.46885  0.73836  1.0000
  C   C651      1.0  0.91501  0.45584  0.77967  1.0000
  C   C652      1.0  0.53585  0.05706  0.61133  1.0000
  H   H1056     1.0  0.99470  0.39008  0.61602  1.0000
  C   C653      1.0  0.52751  0.00174  0.71294  1.0000
  N   N67       1.0  0.95530  0.46761  0.62579  1.0000
  H   H1057     1.0  0.94207  0.45924  0.60114  1.0000
  C   C654      1.0  0.53265  0.04271  0.64920  1.0000
  H   H1058     1.0  0.94436  0.48806  0.78345  1.0000
  C   C655      1.0  0.64519  0.03929  0.59027  1.0000
  C   C656      1.0  0.98575  0.39300  0.63096  1.0000
  H   H1059     1.0  0.57024  0.02923  0.62614  1.0000
  C   C657      1.0  0.97242  0.47850  0.61099  1.0000
  H   H1060     1.0  0.55602  0.00636  0.63818  1.0000
  C   C658      1.0  0.51125  0.16181  0.77020  1.0000
  C   C659      1.0  0.94888  0.45143  0.61624  1.0000
  H   H1061     1.0  0.98710  0.46646  0.60749  1.0000
  H   H1062     1.0  0.55831  0.01711  0.60991  1.0000
  H   H1063     1.0  0.97819  0.44358  0.64357  1.0000
  H   H1064     1.0  0.51686  0.05360  0.65209  1.0000
  C   C660      1.0  0.62244  0.04368  0.59078  1.0000
  C   C661      1.0  0.93613  0.48412  0.62997  1.0000
  H   H1065     1.0  0.50085  0.03715  0.62986  1.0000
  H   H1066     1.0  0.88816  0.48249  0.77633  1.0000
  S   S275      1.0  0.94884  0.42145  0.78435  1.0000
  H   H1067     1.0  0.99470  0.45662  0.76876  1.0000
  H   H1068     1.0  0.92295  0.47645  0.64118  1.0000
  C   C662      1.0  0.89750  0.47026  0.78739  1.0000
  C   C663      1.0  0.50525  0.99902  0.68731  1.0000
  H   H1069     1.0  0.54251  0.99675  0.72003  1.0000
  H   H1070     1.0  0.96652  0.48713  0.59557  1.0000
  H   H1071     1.0  0.97759  0.49090  0.61762  1.0000
  H   H1072     1.0  0.50909  0.33714  0.97794  1.0000
  C   C664      1.0  0.92136  0.43822  0.81576  1.0000
  H   H1073     1.0  0.99190  0.39290  0.79596  1.0000
  C   C665      1.0  0.61747  0.34324  0.91027  1.0000
  H   H1074     1.0  0.59606  0.34983  0.86437  1.0000
  S   S276      1.0  0.55824  0.41165  0.95691  1.0000
  S   S277      1.0  0.53669  0.17798  0.96540  1.0000
  H   H1075     1.0  0.70956  0.40466  0.90840  1.0000
  C   C666      1.0  0.91246  0.47888  0.97316  1.0000
  S   S278      1.0  0.73796  0.44005  0.87945  1.0000
  H   H1076     1.0  0.51807  0.18798  0.89019  1.0000
  H   H1077     1.0  0.89990  0.45173  0.84042  1.0000
  Fe  Fe137     1.0  0.72007  0.47325  0.86642  1.0000
  H   H1078     1.0  0.65854  0.44387  0.90237  1.0000
  H   H1079     1.0  0.63579  0.47351  0.95905  1.0000
  H   H1080     1.0  0.63104  0.33225  0.91821  1.0000
  H   H1081     1.0  0.49992  0.29337  0.97062  1.0000
  S   S279      1.0  0.87422  0.46147  0.92813  1.0000
  H   H1082     1.0  0.63946  0.35902  0.87231  1.0000
  Fe  Fe138     1.0  0.52652  0.21139  0.94540  1.0000
  H   H1083     1.0  0.65098  0.33107  0.88216  1.0000
  H   H1084     1.0  0.78456  0.43463  0.86339  1.0000
  H   H1085     1.0  0.51540  0.48881  0.91725  1.0000
  C   C667      1.0  0.76638  0.42852  0.90916  1.0000
  Fe  Fe139     1.0  0.53812  0.25552  0.92089  1.0000
  S   S280      1.0  0.54168  0.22300  0.91166  1.0000
  S   S281      1.0  0.56043  0.28107  0.90978  1.0000
  Fe  Fe140     1.0  0.50698  0.23333  0.90482  1.0000
  H   H1086     1.0  0.69243  0.39251  0.94591  1.0000
  Fe  Fe141     1.0  0.59957  0.40682  0.90664  1.0000
  H   H1087     1.0  0.63619  0.33816  0.85958  1.0000
  S   S282      1.0  0.62770  0.40268  0.88120  1.0000
  Fe  Fe142     1.0  0.55251  0.42350  0.92280  1.0000
  S   S283      1.0  0.51927  0.44084  0.91474  1.0000
  Fe  Fe143     1.0  0.57600  0.38124  0.94614  1.0000
  S   S284      1.0  0.68539  0.48450  0.87791  1.0000
  S   S285      1.0  0.58270  0.43916  0.91290  1.0000
  S   S286      1.0  0.56868  0.39258  0.91255  1.0000
  S   S287      1.0  0.60847  0.39320  0.93947  1.0000
  S   S288      1.0  0.50483  0.26685  0.91097  1.0000
  S   S289      1.0  0.71647  0.48540  0.83196  1.0000
  S   S290      1.0  0.89928  0.48783  0.86885  1.0000
  H   H1088     1.0  0.94598  0.48634  0.83998  1.0000
  H   H1089     1.0  0.81223  0.43299  0.86793  1.0000
  H   H1090     1.0  0.77554  0.46964  0.87603  1.0000
  C   C668      1.0  0.55948  0.29892  0.92671  1.0000
  C   C669      1.0  0.56687  0.29115  0.94659  1.0000
  C   C670      1.0  0.56982  0.30596  0.95825  1.0000
  C   C671      1.0  0.56546  0.32859  0.95011  1.0000
  C   C672      1.0  0.55693  0.33628  0.93078  1.0000
  C   C673      1.0  0.55414  0.32152  0.91903  1.0000
  H   H1091     1.0  0.57126  0.27372  0.95253  1.0000
  C   C674      1.0  0.80059  0.43967  0.85601  1.0000
  H   H1092     1.0  0.55262  0.35359  0.92475  1.0000
  H   H1093     1.0  0.54836  0.32763  0.90369  1.0000
  H   H1094     1.0  0.54730  0.46448  0.96253  1.0000
  H   H1095     1.0  0.95912  0.45285  0.98326  1.0000
  H   H1096     1.0  0.58194  0.35110  0.89033  1.0000
  C   C675      1.0  0.89021  0.46728  0.94491  1.0000
  H   H1097     1.0  0.64625  0.43622  0.92955  1.0000
  H   H1098     1.0  0.50326  0.46278  0.94993  1.0000
  C   C676      1.0  0.61288  0.31535  0.89297  1.0000
  H   H1099     1.0  0.64891  0.41818  0.91180  1.0000
  H   H1100     1.0  0.50197  0.30203  0.94230  1.0000
  C   C677      1.0  0.98599  0.48299  0.97323  1.0000
  S   S291      1.0  0.57187  0.34673  0.96387  1.0000
  H   H1101     1.0  0.51474  0.01405  0.97994  1.0000
  H   H1102     1.0  0.93046  0.42569  0.82677  1.0000
  Fe  Fe144     1.0  0.87327  0.48623  0.89713  1.0000
  C   C678      1.0  0.74775  0.44233  0.90206  1.0000
  C   C679      1.0  0.91424  0.48963  0.95171  1.0000
  H   H1103     1.0  0.78042  0.48993  0.82855  1.0000
  C   C680      1.0  0.49883  0.42564  0.92916  1.0000
  H   H1104     1.0  0.72320  0.46984  0.90692  1.0000
  S   S292      1.0  0.84590  0.49003  0.87790  1.0000
  C   C681      1.0  0.77524  0.43208  0.92608  1.0000
  C   C682      1.0  0.92691  0.43970  0.79383  1.0000
  C   C683      1.0  0.74636  0.46256  0.92911  1.0000
  H   H1105     1.0  0.73880  0.47585  0.93656  1.0000
  H   H1106     1.0  0.51118  0.34881  0.93982  1.0000
  H   H1107     1.0  0.59969  0.37059  0.87711  1.0000
  H   H1108     1.0  0.62683  0.48078  0.88847  1.0000
  C   C684      1.0  0.90411  0.45297  0.82349  1.0000
  C   C685      1.0  0.64418  0.47003  0.84686  1.0000
  C   C686      1.0  0.62238  0.46681  0.85217  1.0000
  C   C687      1.0  0.61726  0.44611  0.86271  1.0000
  C   C688      1.0  0.63394  0.42842  0.86727  1.0000
  C   C689      1.0  0.65575  0.43148  0.86140  1.0000
  C   C690      1.0  0.66088  0.45237  0.85160  1.0000
  H   H1109     1.0  0.99188  0.48245  0.95629  1.0000
  H   H1110     1.0  0.60038  0.44374  0.86683  1.0000
  H   H1111     1.0  0.66869  0.41778  0.86463  1.0000
  H   H1112     1.0  0.67775  0.45474  0.84728  1.0000
  H   H1113     1.0  0.52101  0.40185  0.94787  1.0000
  C   C691      1.0  0.76506  0.44906  0.93612  1.0000
  C   C692      1.0  0.88931  0.45581  0.96614  1.0000
  H   H1114     1.0  0.61103  0.31121  0.87788  1.0000
  S   S293      1.0  0.52612  0.24286  0.95514  1.0000
  H   H1115     1.0  0.79008  0.49179  0.86322  1.0000
  C   C693      1.0  0.89206  0.46891  0.80928  1.0000
  H   H1116     1.0  0.51615  0.15107  0.88509  1.0000
  H   H1117     1.0  0.66699  0.46418  0.97965  1.0000
  Fe  Fe145     1.0  0.74580  0.46360  0.98012  1.0000
  S   S294      1.0  0.60172  0.45028  0.95799  1.0000
  H   H1118     1.0  0.66850  0.38843  0.93667  1.0000
  H   H1119     1.0  0.77417  0.41536  0.90142  1.0000
  H   H1120     1.0  0.64395  0.48204  0.90732  1.0000
  H   H1121     1.0  0.96842  0.49018  0.97416  1.0000
  H   H1122     1.0  0.82570  0.46292  0.82404  1.0000
  H   H1123     1.0  0.62676  0.30372  0.89982  1.0000
  H   H1124     1.0  0.50938  0.17737  0.81676  1.0000
  H   H1125     1.0  0.51349  0.13253  0.80784  1.0000
  H   H1126     1.0  0.68581  0.39966  0.89947  1.0000
  H   H1127     1.0  0.80643  0.43163  0.84236  1.0000
  C   C694      1.0  0.90298  0.48395  0.93762  1.0000
  C   C695      1.0  0.49790  0.14394  0.80565  1.0000
  H   H1128     1.0  0.87994  0.44252  0.97165  1.0000
  H   H1129     1.0  0.50346  0.15667  0.95173  1.0000
  N   N68       1.0  0.61615  0.33835  0.88962  1.0000
  H   H1130     1.0  0.53241  0.16433  0.80179  1.0000
  H   H1131     1.0  0.55624  0.48359  0.93913  1.0000
  H   H1132     1.0  0.78969  0.42152  0.93160  1.0000
  C   C696      1.0  0.59765  0.35310  0.87993  1.0000
  Fe  Fe146     1.0  0.58981  0.42485  0.94627  1.0000
  H   H1133     1.0  0.70552  0.42829  0.93386  1.0000
  H   H1134     1.0  0.52106  0.30859  0.95640  1.0000
  H   H1135     1.0  0.83296  0.46326  0.84924  1.0000
  C   C697      1.0  0.54288  0.47402  0.94675  1.0000
  H   H1136     1.0  0.59794  0.31204  0.90418  1.0000
  C   C698      1.0  0.73771  0.45924  0.91214  1.0000
  H   H1137     1.0  0.54267  0.46208  0.93696  1.0000
  H   H1138     1.0  0.78697  0.46471  0.81981  1.0000
  S   S295      1.0  0.71071  0.47228  0.97441  1.0000
  N   N69       1.0  0.79869  0.46372  0.84912  1.0000
  H   H1139     1.0  0.80352  0.46775  0.87963  1.0000
  H   H1140     1.0  0.49622  0.20041  0.98359  1.0000
  H   H1141     1.0  0.81949  0.48765  0.83359  1.0000
  C   C699      1.0  0.65718  0.42998  0.91637  1.0000
  H   H1142     1.0  0.62013  0.36040  0.90830  1.0000
  C   C700      1.0  0.82009  0.46962  0.83856  1.0000
  H   H1143     1.0  0.67905  0.44176  0.94267  1.0000
  H   H1144     1.0  0.69137  0.44995  0.91574  1.0000
  H   H1145     1.0  0.83621  0.44399  0.98016  1.0000
  C   C701      1.0  0.49642  0.15689  0.93725  1.0000
  H   H1146     1.0  0.60218  0.34116  0.92138  1.0000
  C   C702      1.0  0.67636  0.40079  0.94079  1.0000
  C   C703      1.0  0.63662  0.34176  0.87529  1.0000
  H   H1147     1.0  0.50793  0.46550  0.97536  1.0000
  C   C704      1.0  0.90033  0.46167  0.98030  1.0000
  H   H1148     1.0  0.69468  0.42585  0.89045  1.0000
  C   C705      1.0  0.78232  0.47185  0.83412  1.0000
  H   H1149     1.0  0.96825  0.47537  0.82270  1.0000
  N   N70       1.0  0.67886  0.41960  0.92268  1.0000
  C   C706      1.0  0.50549  0.18581  0.88184  1.0000
  C   C707      1.0  0.68910  0.43561  0.92903  1.0000
  C   C708      1.0  0.69282  0.41203  0.90451  1.0000
  C   C709      1.0  0.79170  0.47365  0.86783  1.0000
  H   H1150     1.0  0.66603  0.40606  0.95479  1.0000
  S   S296      1.0  0.77491  0.45320  0.95794  1.0000
  S   S297      1.0  0.87007  0.48729  0.81839  1.0000
  C   C710      1.0  0.51540  0.16849  0.98439  1.0000
  H   H1151     1.0  0.60945  0.48042  0.84839  1.0000
  C   C711      1.0  0.51629  0.17501  0.80047  1.0000
  H   H1152     1.0  0.57629  0.29982  0.97327  1.0000
  C   C712      1.0  0.50446  0.47487  0.95924  1.0000
  H   H1153     1.0  0.50670  0.14390  0.92969  1.0000
  N   N71       1.0  0.50149  0.16522  0.79155  1.0000
  C   C713      1.0  0.65659  0.45223  0.98103  1.0000
  C   C714      1.0  0.62682  0.48540  0.90379  1.0000
  C   C715      1.0  0.63889  0.45746  0.96932  1.0000
  C   C716      1.0  0.50446  0.16496  0.87882  1.0000
  H   H1154     1.0  0.76596  0.46773  0.84166  1.0000
  C   C717      1.0  0.50432  0.40727  0.94503  1.0000
  C   C718      1.0  0.50367  0.30705  0.95700  1.0000
  H   H1155     1.0  0.94094  0.47194  0.82137  1.0000
  C   C719      1.0  0.62494  0.44225  0.97124  1.0000
  H   H1156     1.0  0.61737  0.47443  0.91644  1.0000
  N   N72       1.0  0.52157  0.48835  0.94873  1.0000
  C   C720      1.0  0.62912  0.42152  0.98449  1.0000
  C   C721      1.0  0.95096  0.48355  0.82359  1.0000
  H   H1157     1.0  0.98193  0.44510  0.96471  1.0000
  H   H1158     1.0  0.49822  0.17294  0.92625  1.0000
  C   C722      1.0  0.97693  0.44651  0.98152  1.0000
  H   H1159     1.0  0.90419  0.49249  0.92112  1.0000
  H   H1160     1.0  0.80384  0.42516  0.98780  1.0000
  N   N73       1.0  0.98947  0.46102  0.98737  1.0000
  H   H1161     1.0  0.61836  0.40970  0.98610  1.0000
  H   H1162     1.0  0.79944  0.46467  0.98771  1.0000
  H   H1163     1.0  0.51917  0.19126  0.79044  1.0000
  H   H1164     1.0  0.95832  0.60431  0.09819  1.0000
  H   H1165     1.0  0.61251  0.72381  0.05139  1.0000
  S   S298      1.0  0.95632  0.60463  0.14530  1.0000
  Fe  Fe147     1.0  0.98739  0.58249  0.13801  1.0000
  C   C723      1.0  0.60731  0.71010  0.04674  1.0000
  S   S299      1.0  0.97243  0.55203  0.14716  1.0000
  N   N74       1.0  0.95176  0.58737  0.07585  1.0000
  H   H1166     1.0  0.95363  0.62089  0.06041  1.0000
  Fe  Fe148     1.0  0.97973  0.54998  0.17993  1.0000
  Fe  Fe149     1.0  0.94165  0.57363  0.15617  1.0000
  S   S300      1.0  0.91090  0.57163  0.14343  1.0000
  Fe  Fe150     1.0  0.90025  0.49569  0.06661  1.0000
  C   C724      1.0  0.53407  0.80027  0.03735  1.0000
  H   H1167     1.0  0.54974  0.78827  0.06566  1.0000
  H   H1168     1.0  0.57755  0.68632  0.04344  1.0000
  H   H1169     1.0  0.59828  0.74887  0.01955  1.0000
  H   H1170     1.0  0.78661  0.53113  0.01897  1.0000
  H   H1171     1.0  0.95349  0.57684  0.10937  1.0000
  C   C725      1.0  0.77230  0.50214  0.03407  1.0000
  C   C726      1.0  0.78883  0.51520  0.02959  1.0000
  C   C727      1.0  0.94706  0.49398  0.17946  1.0000
  C   C728      1.0  0.99244  0.49856  0.11460  1.0000
  C   C729      1.0  0.51700  0.81500  0.02797  1.0000
  H   H1172     1.0  0.56721  0.70454  0.02051  1.0000
  H   H1173     1.0  0.52415  0.81215  0.08635  1.0000
  H   H1174     1.0  0.94113  0.56623  0.05986  1.0000
  S   S301      1.0  0.55304  0.78276  0.02357  1.0000
  C   C730      1.0  0.53658  0.79951  0.05835  1.0000
  H   H1175     1.0  0.60708  0.72753  0.00477  1.0000
  H   H1176     1.0  0.60377  0.69757  0.06149  1.0000
  Fe  Fe151     1.0  0.54424  0.77437  0.99503  1.0000
  H   H1177     1.0  0.50455  0.85846  0.13543  1.0000
  C   C731      1.0  0.52210  0.81308  0.07006  1.0000
  C   C732      1.0  0.94439  0.60761  0.06055  1.0000
  Fe  Fe152     1.0  0.96575  0.59760  0.17824  1.0000
  H   H1178     1.0  0.93106  0.59782  0.10248  1.0000
  C   C733      1.0  0.91235  0.55061  0.12977  1.0000
  C   C734      1.0  0.92876  0.53243  0.13240  1.0000
  C   C735      1.0  0.93092  0.51670  0.12026  1.0000
  C   C736      1.0  0.91685  0.51905  0.10514  1.0000
  C   C737      1.0  0.89971  0.53665  0.10309  1.0000
  C   C738      1.0  0.89740  0.55235  0.11553  1.0000
  H   H1179     1.0  0.93961  0.53028  0.14406  1.0000
  H   H1180     1.0  0.92677  0.61371  0.06471  1.0000
  H   H1181     1.0  0.88860  0.53848  0.09163  1.0000
  H   H1182     1.0  0.88440  0.56621  0.11365  1.0000
  C   C739      1.0  0.50400  0.98281  0.99212  1.0000
  C   C740      1.0  0.80809  0.50773  0.03894  1.0000
  H   H1183     1.0  0.94671  0.60489  0.04411  1.0000
  S   S302      1.0  0.82918  0.52367  0.03233  1.0000
  H   H1184     1.0  0.97825  0.57545  0.05402  1.0000
  H   H1185     1.0  0.98152  0.56521  0.08168  1.0000
  H   H1186     1.0  0.98514  0.59271  0.06900  1.0000
  C   C741      1.0  0.50273  0.82912  0.03963  1.0000
  H   H1187     1.0  0.94407  0.55482  0.08735  1.0000
  H   H1188     1.0  0.92129  0.57544  0.08025  1.0000
  H   H1189     1.0  0.75734  0.50815  0.02708  1.0000
  Fe  Fe153     1.0  0.86036  0.50394  0.04335  1.0000
  S   S303      1.0  0.89254  0.51637  0.03480  1.0000
  N   N75       1.0  0.58807  0.71787  0.03519  1.0000
  C   C742      1.0  0.97516  0.57982  0.06981  1.0000
  S   S304      1.0  0.53520  0.74096  0.00074  1.0000
  C   C743      1.0  0.94849  0.59184  0.09736  1.0000
  C   C744      1.0  0.93903  0.57022  0.07577  1.0000
  C   C745      1.0  0.58170  0.69925  0.02925  1.0000
  C   C746      1.0  0.50528  0.82808  0.06076  1.0000
  H   H1190     1.0  0.57937  0.74067  0.00688  1.0000
  H   H1191     1.0  0.93017  0.49931  0.17682  1.0000
  H   H1192     1.0  0.51505  0.81576  0.01171  1.0000
  C   C747      1.0  0.56976  0.72781  0.04891  1.0000
  H   H1193     1.0  0.55496  0.73387  0.04067  1.0000
  C   C748      1.0  0.59357  0.73442  0.01578  1.0000
  H   H1194     1.0  0.59498  0.69164  0.01852  1.0000
  H   H1195     1.0  0.62142  0.70260  0.03675  1.0000
  H   H1196     1.0  0.94356  0.50261  0.12267  1.0000
  H   H1197     1.0  0.56519  0.71593  0.06382  1.0000
  S   S305      1.0  0.92241  0.50019  0.08856  1.0000
  H   H1198     1.0  0.98036  0.51044  0.10527  1.0000
  H   H1199     1.0  0.84050  0.49945  0.99487  1.0000
  H   H1200     1.0  0.98476  0.49485  0.13147  1.0000
  H   H1201     1.0  0.57384  0.74224  0.05329  1.0000
  Fe  Fe154     1.0  0.70913  0.49819  0.99265  1.0000
  H   H1202     1.0  0.86031  0.51668  0.99330  1.0000
  H   H1203     1.0  0.49570  0.86170  0.11002  1.0000
  C   C749      1.0  0.95779  0.50709  0.18714  1.0000
  C   C750      1.0  0.83431  0.94251  0.33752  1.0000
  C   C751      1.0  0.95823  0.61648  0.22401  1.0000
  C   C752      1.0  0.97103  0.55798  0.24015  1.0000
  S   S306      1.0  0.99281  0.51750  0.19923  1.0000
  C   C753      1.0  0.98170  0.55851  0.27374  1.0000
  H   H1204     1.0  0.98985  0.57307  0.26636  1.0000
  H   H1205     1.0  0.97508  0.68639  0.23884  1.0000
  Fe  Fe155     1.0  0.94503  0.61491  0.36489  1.0000
  S   S307      1.0  0.55360  0.98942  0.35753  1.0000
  H   H1206     1.0  0.83068  0.94087  0.32246  1.0000
  Fe  Fe156     1.0  0.94969  0.61142  0.31856  1.0000
  H   H1207     1.0  0.53764  0.98048  0.26483  1.0000
  S   S308      1.0  0.92957  0.60989  0.29376  1.0000
  H   H1208     1.0  0.55099  0.99095  0.28152  1.0000
  H   H1209     1.0  0.66498  0.97461  0.33807  1.0000
  N   N76       1.0  0.95306  0.68140  0.26799  1.0000
  H   H1210     1.0  0.96309  0.66197  0.24444  1.0000
  S   S309      1.0  0.94521  0.58718  0.34957  1.0000
  S   S310      1.0  0.94573  0.63982  0.33416  1.0000
  H   H1211     1.0  0.93552  0.65415  0.27577  1.0000
  H   H1212     1.0  0.98676  0.62379  0.23323  1.0000
  C   C754      1.0  0.84345  0.94623  0.37666  1.0000
  H   H1213     1.0  0.79442  0.92665  0.37765  1.0000
  C   C755      1.0  0.97577  0.49814  0.33105  1.0000
  C   C756      1.0  0.49927  0.95259  0.28669  1.0000
  C   C757      1.0  0.78531  0.91303  0.38615  1.0000
  H   H1214     1.0  0.97392  0.65199  0.28109  1.0000
  C   C758      1.0  0.82009  0.95669  0.34876  1.0000
  S   S311      1.0  0.94758  0.56901  0.19017  1.0000
  C   C759      1.0  0.97111  0.52589  0.26874  1.0000
  H   H1215     1.0  0.95336  0.52528  0.31622  1.0000
  N   N77       1.0  0.96276  0.70961  0.38748  1.0000
  H   H1216     1.0  0.92749  0.67257  0.29332  1.0000
  C   C760      1.0  0.85302  0.93013  0.34589  1.0000
  C   C761      1.0  0.98467  0.71595  0.38390  1.0000
  Fe  Fe157     1.0  0.98156  0.58315  0.34697  1.0000
  H   H1217     1.0  0.97948  0.51528  0.28221  1.0000
  H   H1218     1.0  0.96990  0.69144  0.36274  1.0000
  Fe  Fe158     1.0  0.98210  0.63229  0.33360  1.0000
  C   C762      1.0  0.96656  0.52026  0.32586  1.0000
  C   C763      1.0  0.97421  0.53595  0.33323  1.0000
  S   S312      1.0  0.98113  0.60881  0.36521  1.0000
  C   C764      1.0  0.85742  0.93170  0.36564  1.0000
  C   C765      1.0  0.95987  0.67938  0.24571  1.0000
  H   H1219     1.0  0.96610  0.67132  0.29777  1.0000
  C   C766      1.0  0.94147  0.61111  0.26728  1.0000
  C   C767      1.0  0.96249  0.61621  0.26036  1.0000
  C   C768      1.0  0.97074  0.61918  0.23870  1.0000
  C   C769      1.0  0.93764  0.61034  0.23109  1.0000
  C   C770      1.0  0.92920  0.60788  0.25267  1.0000
  H   H1220     1.0  0.97218  0.61838  0.27157  1.0000
  H   H1221     1.0  0.92787  0.60836  0.21979  1.0000
  H   H1222     1.0  0.91291  0.60392  0.25797  1.0000
  H   H1223     1.0  0.86387  0.91902  0.33723  1.0000
  S   S313      1.0  0.88017  0.91511  0.37644  1.0000
  C   C771      1.0  0.87752  0.98291  0.37694  1.0000
  H   H1224     1.0  0.91930  0.68009  0.26712  1.0000
  C   C772      1.0  0.82502  0.95896  0.36807  1.0000
  Fe  Fe159     1.0  0.76991  0.98133  0.36396  1.0000
  H   H1225     1.0  0.96464  0.56463  0.28000  1.0000
  S   S314      1.0  0.73640  0.97234  0.36782  1.0000
  H   H1226     1.0  0.94788  0.68371  0.38289  1.0000
  H   H1227     1.0  0.89404  0.98553  0.36858  1.0000
  H   H1228     1.0  0.91153  0.65643  0.36287  1.0000
  H   H1229     1.0  0.96716  0.55296  0.32885  1.0000
  H   H1230     1.0  0.97108  0.54813  0.22827  1.0000
  H   H1231     1.0  0.81484  0.97078  0.37620  1.0000
  C   C773      1.0  0.51851  0.96620  0.30904  1.0000
  C   C774      1.0  0.51458  0.94890  0.30102  1.0000
  C   C775      1.0  0.97057  0.66976  0.28097  1.0000
  S   S315      1.0  0.98625  0.60598  0.31498  1.0000
  C   C776      1.0  0.96407  0.68923  0.38007  1.0000
  H   H1232     1.0  0.53044  0.96323  0.31994  1.0000
  H   H1233     1.0  0.52343  0.93260  0.30591  1.0000
  H   H1234     1.0  0.97067  0.51564  0.25737  1.0000
  C   C777      1.0  0.93295  0.67171  0.27641  1.0000
  H   H1235     1.0  0.94617  0.74280  0.38106  1.0000
  S   S316      1.0  0.96801  0.62236  0.19681  1.0000
  H   H1236     1.0  0.93120  0.72296  0.37757  1.0000
  H   H1237     1.0  0.87884  0.96537  0.38533  1.0000
  C   C778      1.0  0.91010  0.66191  0.37745  1.0000
  H   H1238     1.0  0.94368  0.70679  0.28556  1.0000
  H   H1239     1.0  0.86646  0.98560  0.36463  1.0000
  H   H1240     1.0  0.89750  0.69529  0.36349  1.0000
  H   H1241     1.0  0.94910  0.52247  0.19042  1.0000
  H   H1242     1.0  0.94701  0.68790  0.23545  1.0000
  H   H1243     1.0  0.93574  0.71408  0.25930  1.0000
  C   C779      1.0  0.55199  0.98817  0.26522  1.0000
  C   C780      1.0  0.94886  0.70475  0.26893  1.0000
  H   H1244     1.0  0.95373  0.56429  0.24537  1.0000
  H   H1245     1.0  0.95395  0.53118  0.27532  1.0000
  C   C781      1.0  0.50721  0.98731  0.30262  1.0000
  H   H1246     1.0  0.56685  0.97604  0.26262  1.0000
  H   H1247     1.0  0.96376  0.71252  0.26280  1.0000
  C   C782      1.0  0.66110  0.98878  0.34510  1.0000
  H   H1248     1.0  0.56809  0.99243  0.22408  1.0000
  C   C783      1.0  0.94782  0.72732  0.37554  1.0000
  H   H1249     1.0  0.97914  0.57233  0.23170  1.0000
  C   C784      1.0  0.90191  0.68386  0.37788  1.0000
  H   H1250     1.0  0.69482  0.99012  0.34665  1.0000
  N   N78       1.0  0.98224  0.54488  0.25831  1.0000
  S   S317      1.0  0.79580  0.97056  0.33897  1.0000
  C   C785      1.0  0.99091  0.52961  0.34613  1.0000
  C   C786      1.0  0.97961  0.50034  0.19051  1.0000
  H   H1251     1.0  0.95370  0.73075  0.35822  1.0000
  S   S318      1.0  0.61851  0.98840  0.34068  1.0000
  H   H1252     1.0  0.81873  0.87953  0.38720  1.0000
  H   H1253     1.0  0.99109  0.71954  0.36672  1.0000
  H   H1254     1.0  0.98615  0.67635  0.27503  1.0000
  H   H1255     1.0  0.99010  0.54913  0.28764  1.0000
  H   H1256     1.0  0.78505  0.90298  0.37454  1.0000
  H   H1257     1.0  0.50239  0.99145  0.38561  1.0000
  H   H1258     1.0  0.96318  0.56349  0.38812  1.0000
  Fe  Fe160     1.0  0.88923  0.74250  0.46480  1.0000
  S   S319      1.0  0.87496  0.76040  0.43495  1.0000
  S   S320      1.0  0.91678  0.75109  0.47717  1.0000
  Fe  Fe161     1.0  0.86048  0.70751  0.47460  1.0000
  S   S321      1.0  0.84348  0.72253  0.44582  1.0000
  S   S322      1.0  0.85486  0.67430  0.49382  1.0000
  Fe  Fe162     1.0  0.87687  0.72687  0.42895  1.0000
  H   H1259     1.0  0.69314  0.92238  0.45753  1.0000
  Fe  Fe163     1.0  0.84320  0.75443  0.45467  1.0000
  S   S323      1.0  0.81367  0.78044  0.45379  1.0000
  S   S324      1.0  0.89393  0.70964  0.45702  1.0000
  S   S325      1.0  0.85722  0.73891  0.48521  1.0000
  H   H1260     1.0  0.74482  0.91481  0.47434  1.0000
  H   H1261     1.0  0.80481  0.92755  0.41214  1.0000
  C   C787      1.0  0.94326  0.51617  0.56263  1.0000
  H   H1262     1.0  0.78418  0.90058  0.47300  1.0000
  H   H1263     1.0  0.93746  0.65733  0.53345  1.0000
  Fe  Fe164     1.0  0.87824  0.91017  0.41170  1.0000
  S   S326      1.0  0.84709  0.91979  0.43148  1.0000
  N   N79       1.0  0.62105  0.98896  0.46974  1.0000
  Fe  Fe165     1.0  0.90298  0.89226  0.44947  1.0000
  S   S327      1.0  0.87365  0.90052  0.47279  1.0000
  S   S328      1.0  0.93447  0.87414  0.46172  1.0000
  Fe  Fe166     1.0  0.85528  0.88752  0.45336  1.0000
  S   S329      1.0  0.82618  0.87124  0.46855  1.0000
  Fe  Fe167     1.0  0.86778  0.93213  0.44895  1.0000
  S   S330      1.0  0.85445  0.96551  0.45512  1.0000
  S   S331      1.0  0.88488  0.87641  0.43209  1.0000
  S   S332      1.0  0.89864  0.92530  0.42719  1.0000
  H   H1264     1.0  0.78756  0.94528  0.47898  1.0000
  Fe  Fe168     1.0  0.93310  0.61372  0.57042  1.0000
  S   S333      1.0  0.96741  0.62024  0.56552  1.0000
  C   C788      1.0  0.78267  0.88207  0.41582  1.0000
  Fe  Fe169     1.0  0.94704  0.56532  0.57216  1.0000
  N   N80       1.0  0.49792  0.95280  0.57894  1.0000
  Fe  Fe170     1.0  0.97381  0.59812  0.54270  1.0000
  C   C789      1.0  0.96740  0.50658  0.53210  1.0000
  S   S334      1.0  0.93873  0.59396  0.54544  1.0000
  C   C790      1.0  0.95852  0.88413  0.44825  1.0000
  C   C791      1.0  0.97817  0.87679  0.45708  1.0000
  C   C792      1.0  0.66414  0.95045  0.55779  1.0000
  H   H1265     1.0  0.77850  0.92139  0.42514  1.0000
  C   C793      1.0  0.97766  0.90686  0.41815  1.0000
  C   C794      1.0  0.95839  0.89912  0.42871  1.0000
  H   H1266     1.0  0.97840  0.86513  0.47217  1.0000
  H   H1267     1.0  0.87129  0.84522  0.47556  1.0000
  C   C795      1.0  0.97268  0.53517  0.43768  1.0000
  H   H1268     1.0  0.94352  0.90453  0.42151  1.0000
  H   H1269     1.0  0.73163  0.93047  0.49364  1.0000
  H   H1270     1.0  0.96461  0.53715  0.54171  1.0000
  H   H1271     1.0  0.76544  0.88876  0.42103  1.0000
  S   S335      1.0  0.93340  0.53378  0.58015  1.0000
  H   H1272     1.0  0.83646  0.67213  0.41229  1.0000
  C   C796      1.0  0.63847  0.98180  0.45355  1.0000
  S   S336      1.0  0.72995  0.93374  0.42565  1.0000
  C   C797      1.0  0.71709  0.94410  0.44770  1.0000
  H   H1273     1.0  0.67635  0.95943  0.54640  1.0000
  C   C798      1.0  0.81781  0.80581  0.45703  1.0000
  C   C799      1.0  0.80145  0.81751  0.46902  1.0000
  C   C800      1.0  0.80427  0.83759  0.47230  1.0000
  C   C801      1.0  0.82321  0.84646  0.46311  1.0000
  C   C802      1.0  0.83924  0.83537  0.45026  1.0000
  C   C803      1.0  0.83674  0.81478  0.44755  1.0000
  H   H1274     1.0  0.78674  0.81073  0.47620  1.0000
  H   H1275     1.0  0.79175  0.84616  0.48213  1.0000
  H   H1276     1.0  0.85350  0.84257  0.44252  1.0000
  H   H1277     1.0  0.84917  0.80605  0.43778  1.0000
  C   C804      1.0  0.93747  0.75756  0.45631  1.0000
  C   C805      1.0  0.93302  0.76377  0.43526  1.0000
  H   H1278     1.0  0.73907  0.96742  0.44235  1.0000
  C   C806      1.0  0.97113  0.76569  0.42292  1.0000
  C   C807      1.0  0.97557  0.75982  0.44399  1.0000
  C   C808      1.0  0.95868  0.75615  0.46070  1.0000
  H   H1279     1.0  0.91672  0.76534  0.43171  1.0000
  H   H1280     1.0  0.93609  0.67524  0.48548  1.0000
  H   H1281     1.0  0.99175  0.81857  0.43298  1.0000
  H   H1282     1.0  0.96223  0.75165  0.47695  1.0000
  S   S337      1.0  0.71474  0.98489  0.53997  1.0000
  C   C809      1.0  0.90449  0.67600  0.41548  1.0000
  C   C810      1.0  0.91290  0.65410  0.41501  1.0000
  H   H1283     1.0  0.92715  0.81836  0.48660  1.0000
  C   C811      1.0  0.65676  0.97760  0.57914  1.0000
  H   H1284     1.0  0.74081  0.90165  0.50194  1.0000
  H   H1285     1.0  0.90239  0.68121  0.43021  1.0000
  H   H1286     1.0  0.91738  0.64266  0.42937  1.0000
  H   H1287     1.0  0.82810  0.90327  0.39018  1.0000
  C   C812      1.0  0.86895  0.66570  0.51610  1.0000
  C   C813      1.0  0.87783  0.64363  0.52231  1.0000
  C   C814      1.0  0.88954  0.63652  0.53981  1.0000
  C   C815      1.0  0.89195  0.65135  0.55148  1.0000
  C   C816      1.0  0.88254  0.67334  0.54562  1.0000
  C   C817      1.0  0.87139  0.68061  0.52770  1.0000
  H   H1288     1.0  0.87578  0.63200  0.51352  1.0000
  H   H1289     1.0  0.89617  0.61944  0.54459  1.0000
  H   H1290     1.0  0.88401  0.68480  0.55486  1.0000
  H   H1291     1.0  0.86427  0.69762  0.52316  1.0000
  C   C818      1.0  0.83233  0.96504  0.47538  1.0000
  C   C819      1.0  0.83336  0.94929  0.49440  1.0000
  H   H1292     1.0  0.52075  0.92811  0.56620  1.0000
  H   H1293     1.0  0.84749  0.93669  0.49632  1.0000
  H   H1294     1.0  0.86337  0.80763  0.48180  1.0000
  C   C820      1.0  0.77111  0.94188  0.47808  1.0000
  H   H1295     1.0  0.50812  0.94967  0.54665  1.0000
  C   C821      1.0  0.96221  0.55008  0.40256  1.0000
  H   H1296     1.0  0.81782  0.93870  0.52632  1.0000
  C   C822      1.0  0.57639  0.93760  0.57157  1.0000
  H   H1297     1.0  0.83653  0.62085  0.45440  1.0000
  H   H1298     1.0  0.63827  0.97120  0.49599  1.0000
  C   C823      1.0  0.96485  0.57433  0.42478  1.0000
  C   C824      1.0  0.74495  0.91690  0.49071  1.0000
  C   C825      1.0  0.91559  0.64698  0.39602  1.0000
  H   H1299     1.0  0.64735  0.99118  0.53902  1.0000
  N   N81       1.0  0.97430  0.55330  0.41873  1.0000
  N   N82       1.0  0.94467  0.68658  0.51084  1.0000
  H   H1300     1.0  0.78983  0.87180  0.43016  1.0000
  H   H1301     1.0  0.97954  0.51072  0.51858  1.0000
  H   H1302     1.0  0.88762  0.82205  0.44926  1.0000
  H   H1303     1.0  0.75907  0.95632  0.48125  1.0000
  H   H1304     1.0  0.57539  0.91083  0.55732  1.0000
  H   H1305     1.0  0.92002  0.69480  0.53586  1.0000
  H   H1306     1.0  0.95898  0.71177  0.48743  1.0000
  S   S338      1.0  0.92522  0.61931  0.39595  1.0000
  C   C826      1.0  0.81662  0.95053  0.51140  1.0000
  H   H1307     1.0  0.87306  0.80089  0.50719  1.0000
  H   H1308     1.0  0.60928  0.97776  0.50275  1.0000
  C   C827      1.0  0.71296  0.97261  0.46705  1.0000
  H   H1309     1.0  0.96350  0.66454  0.53392  1.0000
  N   N83       1.0  0.76630  0.92153  0.49334  1.0000
  S   S339      1.0  0.58711  0.95374  0.54771  1.0000
  H   H1310     1.0  0.92162  0.79088  0.49093  1.0000
  H   H1311     1.0  0.97965  0.51907  0.43365  1.0000
  C   C828      1.0  0.79539  0.91395  0.41983  1.0000
  H   H1312     1.0  0.89811  0.84978  0.47752  1.0000
  H   H1313     1.0  0.92870  0.71791  0.51658  1.0000
  S   S340      1.0  0.77820  0.96870  0.53112  1.0000
  H   H1314     1.0  0.90888  0.79961  0.45596  1.0000
  C   C829      1.0  0.69481  0.96497  0.47987  1.0000
  C   C830      1.0  0.81807  0.89031  0.39840  1.0000
  H   H1315     1.0  0.93775  0.70184  0.41360  1.0000
  N   N84       1.0  0.89500  0.81604  0.48127  1.0000
  H   H1316     1.0  0.51759  0.97735  0.56274  1.0000
  C   C831      1.0  0.79856  0.96720  0.50929  1.0000
  C   C832      1.0  0.72453  0.96174  0.45161  1.0000
  C   C833      1.0  0.94976  0.76817  0.41857  1.0000
  C   C834      1.0  0.79721  0.98249  0.48998  1.0000
  C   C835      1.0  0.69890  0.93613  0.46052  1.0000
  H   H1317     1.0  0.98165  0.53706  0.45023  1.0000
  N   N85       1.0  0.84621  0.65251  0.44197  1.0000
  C   C836      1.0  0.83997  0.63242  0.43891  1.0000
  C   C837      1.0  0.82810  0.66365  0.45496  1.0000
  C   C838      1.0  0.85092  0.66729  0.42107  1.0000
  C   C839      1.0  0.86586  0.64663  0.45298  1.0000
  H   H1318     1.0  0.85326  0.62370  0.42903  1.0000
  H   H1319     1.0  0.82510  0.63621  0.43078  1.0000
  H   H1320     1.0  0.98568  0.95013  0.49258  1.0000
  H   H1321     1.0  0.80293  0.90451  0.43420  1.0000
  H   H1322     1.0  0.81292  0.66828  0.44727  1.0000
  H   H1323     1.0  0.82439  0.65316  0.47104  1.0000
  H   H1324     1.0  0.85571  0.68264  0.42279  1.0000
  H   H1325     1.0  0.86457  0.65943  0.41086  1.0000
  H   H1326     1.0  0.87186  0.66149  0.45433  1.0000
  H   H1327     1.0  0.87939  0.63687  0.44441  1.0000
  H   H1328     1.0  0.86248  0.63685  0.46946  1.0000
  S   S341      1.0  0.77403  0.96963  0.39842  1.0000
  C   C840      1.0  0.88591  0.83848  0.48394  1.0000
  H   H1329     1.0  0.94725  0.57483  0.43121  1.0000
  H   H1330     1.0  0.96523  0.69251  0.41986  1.0000
  H   H1331     1.0  0.98702  0.93365  0.47356  1.0000
  C   C841      1.0  0.63577  0.98142  0.55048  1.0000
  S   S342      1.0  0.88827  0.71845  0.39702  1.0000
  N   N86       1.0  0.64689  0.96565  0.56742  1.0000
  C   C842      1.0  0.87822  0.80171  0.48994  1.0000
  H   H1332     1.0  0.62019  0.95638  0.48878  1.0000
  H   H1333     1.0  0.88432  0.78471  0.48792  1.0000
  H   H1334     1.0  0.99198  0.75809  0.44750  1.0000
  H   H1335     1.0  0.96907  0.53453  0.39732  1.0000
  H   H1336     1.0  0.94625  0.77284  0.40231  1.0000
  C   C843      1.0  0.95158  0.66437  0.52327  1.0000
  H   H1337     1.0  0.67371  0.94049  0.48673  1.0000
  H   H1338     1.0  0.63718  0.96534  0.45140  1.0000
  C   C844      1.0  0.89891  0.69093  0.39693  1.0000
  H   H1339     1.0  0.91431  0.67868  0.50649  1.0000
  H   H1340     1.0  0.83228  0.67886  0.45755  1.0000
  H   H1341     1.0  0.78229  0.87105  0.40513  1.0000
  H   H1342     1.0  0.97243  0.68444  0.48678  1.0000
  S   S343      1.0  0.99452  0.60614  0.51103  1.0000
  H   H1343     1.0  0.91413  0.82721  0.45139  1.0000
  H   H1344     1.0  0.82617  0.88035  0.41230  1.0000
  H   H1345     1.0  0.92283  0.70226  0.48796  1.0000
  H   H1346     1.0  0.97345  0.57728  0.43708  1.0000
  C   C845      1.0  0.92877  0.68563  0.49705  1.0000
  H   H1347     1.0  0.96589  0.58837  0.41087  1.0000
  H   H1348     1.0  0.97588  0.69704  0.50738  1.0000
  H   H1349     1.0  0.75364  0.93848  0.51857  1.0000
  H   H1350     1.0  0.94601  0.70230  0.53601  1.0000
  H   H1351     1.0  0.95936  0.65294  0.51276  1.0000
  H   H1352     1.0  0.77072  0.94088  0.46141  1.0000
  S   S344      1.0  0.98274  0.56743  0.56701  1.0000
  H   H1353     1.0  0.79993  0.90627  0.49081  1.0000
  C   C846      1.0  0.93440  0.70106  0.52547  1.0000
  N   N87       1.0  0.79537  0.89983  0.40502  1.0000
  C   C847      1.0  0.51471  0.96621  0.57853  1.0000
  S   S345      1.0  0.99244  0.76797  0.40206  1.0000
  H   H1354     1.0  0.94463  0.54977  0.40859  1.0000
  C   C848      1.0  0.50522  0.93930  0.56291  1.0000
  C   C849      1.0  0.76571  0.92410  0.51526  1.0000
  H   H1355     1.0  0.78184  0.92666  0.51809  1.0000
  H   H1356     1.0  0.76133  0.90939  0.52723  1.0000
  H   H1357     1.0  0.65721  0.94124  0.54878  1.0000
  H   H1358     1.0  0.97739  0.91837  0.40295  1.0000
  C   C850      1.0  0.68779  0.94654  0.47679  1.0000
  H   H1359     1.0  0.88084  0.83895  0.50097  1.0000
  C   C851      1.0  0.95454  0.70603  0.41040  1.0000
  C   C852      1.0  0.78349  0.90320  0.48930  1.0000
  H   H1360     1.0  0.78072  0.88756  0.50066  1.0000
  C   C853      1.0  0.95894  0.52155  0.54514  1.0000
  C   C854      1.0  0.91427  0.80775  0.49275  1.0000
  C   C855      1.0  0.57169  0.91703  0.57171  1.0000
  H   H1361     1.0  0.90992  0.80722  0.51004  1.0000
  H   H1362     1.0  0.84702  0.94797  0.39160  1.0000
  C   C856      1.0  0.93589  0.49600  0.56685  1.0000
  C   C857      1.0  0.90169  0.81627  0.45846  1.0000
  C   C858      1.0  0.96381  0.69532  0.49753  1.0000
  H   H1363     1.0  0.62815  0.97296  0.54131  1.0000
  C   C859      1.0  0.59951  0.99072  0.46279  1.0000
  Fe  Fe171     1.0  0.73969  0.96378  0.40251  1.0000
  C   C860      1.0  0.63085  0.95320  0.58220  1.0000
  H   H1364     1.0  0.84663  0.97707  0.41084  1.0000
  S   S346      1.0  0.90710  0.64280  0.57308  1.0000
  H   H1365     1.0  0.53045  0.95580  0.58197  1.0000
  H   H1366     1.0  0.76816  0.92050  0.39062  1.0000
  H   H1367     1.0  0.71767  0.98744  0.46836  1.0000
  H   H1368     1.0  0.62318  0.94389  0.57388  1.0000
  H   H1369     1.0  0.65494  0.98085  0.45808  1.0000
  H   H1370     1.0  0.66911  0.98702  0.56850  1.0000
  H   H1371     1.0  0.88499  0.97518  0.41729  1.0000
  H   H1372     1.0  0.95540  0.53444  0.44480  1.0000
  C   C861      1.0  0.62228  0.97286  0.49020  1.0000
  C   C862      1.0  0.81412  0.98146  0.47309  1.0000
  H   H1373     1.0  0.59691  0.97490  0.46010  1.0000
  H   H1374     1.0  0.98442  0.73088  0.38988  1.0000
  H   H1375     1.0  0.64424  0.98956  0.58628  1.0000
  H   H1376     1.0  0.67301  0.93837  0.57008  1.0000
  Fe  Fe172     1.0  0.57003  0.98837  0.54366  1.0000
  H   H1377     1.0  0.95383  0.72099  0.41656  1.0000
  H   H1378     1.0  0.98680  0.96259  0.46470  1.0000
  C   C863      1.0  0.99310  0.94785  0.47643  1.0000
  S   S347      1.0  0.68138  0.97847  0.49980  1.0000
  H   H1379     1.0  0.97562  0.67563  0.38841  1.0000
  C   C864      1.0  0.88399  0.99256  0.40853  1.0000
  Fe  Fe173     1.0  0.91359  0.61107  0.75637  1.0000
  S   S348      1.0  0.89915  0.61937  0.72588  1.0000
  Fe  Fe174     1.0  0.94993  0.57749  0.74220  1.0000
  S   S349      1.0  0.93865  0.58233  0.71040  1.0000
  C   C865      1.0  0.52442  0.99243  0.69662  1.0000
  Fe  Fe175     1.0  0.93391  0.61799  0.71047  1.0000
  S   S350      1.0  0.94152  0.64159  0.67962  1.0000
  Fe  Fe176     1.0  0.90509  0.58334  0.72837  1.0000
  H   H1380     1.0  0.52454  0.88887  0.76863  1.0000
  S   S351      1.0  0.94804  0.61324  0.74094  1.0000
  S   S352      1.0  0.91670  0.57486  0.76006  1.0000
  C   C866      1.0  0.88111  0.60571  0.67088  1.0000
  H   H1381     1.0  0.96530  0.62741  0.60880  1.0000
  S   S353      1.0  0.52633  0.91462  0.68728  1.0000
  H   H1382     1.0  0.87534  0.62365  0.66816  1.0000
  H   H1383     1.0  0.88937  0.51141  0.67962  1.0000
  N   N88       1.0  0.84992  0.56893  0.78429  1.0000
  H   H1384     1.0  0.92696  0.60633  0.63515  1.0000
  C   C867      1.0  0.92567  0.51650  0.71041  1.0000
  H   H1385     1.0  0.88003  0.62576  0.62949  1.0000
  C   C868      1.0  0.89327  0.54369  0.71275  1.0000
  S   S354      1.0  0.54246  0.97022  0.68982  1.0000
  C   C869      1.0  0.91395  0.53429  0.71852  1.0000
  S   S355      1.0  0.97658  0.54996  0.75246  1.0000
  H   H1386     1.0  0.91141  0.62822  0.64667  1.0000
  H   H1387     1.0  0.51940  0.96222  0.74335  1.0000
  C   C870      1.0  0.88422  0.53525  0.69902  1.0000
  H   H1388     1.0  0.97047  0.52953  0.71898  1.0000
  C   C871      1.0  0.89620  0.51779  0.69050  1.0000
  H   H1389     1.0  0.50976  0.97654  0.59054  1.0000
  H   H1390     1.0  0.55863  0.93887  0.62342  1.0000
  C   C872      1.0  0.95909  0.62837  0.66124  1.0000
  C   C873      1.0  0.56142  0.90476  0.59025  1.0000
  C   C874      1.0  0.98650  0.51981  0.71457  1.0000
  H   H1391     1.0  0.50400  0.99052  0.76443  1.0000
  C   C875      1.0  0.96804  0.62261  0.62525  1.0000
  C   C876      1.0  0.95675  0.63527  0.63962  1.0000
  H   H1392     1.0  0.63856  0.94125  0.59535  1.0000
  H   H1393     1.0  0.91044  0.56931  0.67078  1.0000
  H   H1394     1.0  0.92461  0.60431  0.66325  1.0000
  H   H1395     1.0  0.94528  0.64972  0.63417  1.0000
  C   C877      1.0  0.88463  0.60763  0.63313  1.0000
  H   H1396     1.0  0.61742  0.96428  0.58946  1.0000
  S   S356      1.0  0.87961  0.56713  0.72129  1.0000
  H   H1397     1.0  0.95143  0.51503  0.77346  1.0000
  H   H1398     1.0  0.88770  0.56738  0.65853  1.0000
  H   H1399     1.0  0.84271  0.60322  0.76996  1.0000
  C   C878      1.0  0.98618  0.53815  0.67777  1.0000
  S   S357      1.0  0.51893  0.95509  0.64464  1.0000
  S   S358      1.0  0.54103  0.89827  0.63102  1.0000
  H   H1400     1.0  0.88956  0.60104  0.68533  1.0000
  C   C879      1.0  0.95417  0.49979  0.78596  1.0000
  H   H1401     1.0  0.86656  0.59725  0.67462  1.0000
  C   C880      1.0  0.85682  0.58977  0.77200  1.0000
  C   C881      1.0  0.83466  0.56247  0.77298  1.0000
  C   C882      1.0  0.91555  0.61008  0.64919  1.0000
  C   C883      1.0  0.99368  0.55427  0.76913  1.0000
  H   H1402     1.0  0.98348  0.50432  0.71155  1.0000
  H   H1403     1.0  0.89528  0.60336  0.61884  1.0000
  H   H1404     1.0  0.91355  0.57069  0.64270  1.0000
  C   C884      1.0  0.56179  0.93298  0.60893  1.0000
  H   H1405     1.0  0.50320  0.99255  0.67415  1.0000
  C   C885      1.0  0.90217  0.57574  0.65623  1.0000
  H   H1406     1.0  0.86822  0.54250  0.69458  1.0000
  H   H1407     1.0  0.81987  0.57509  0.77081  1.0000
  H   H1408     1.0  0.92090  0.54063  0.72932  1.0000
  H   H1409     1.0  0.94044  0.49652  0.63725  1.0000
  Fe  Fe177     1.0  0.52150  0.95126  0.67904  1.0000
  H   H1410     1.0  0.87782  0.54908  0.77098  1.0000
  H   H1411     1.0  0.50986  0.92709  0.60427  1.0000
  N   N89       1.0  0.89583  0.59977  0.65234  1.0000
  C   C886      1.0  0.50255  0.95847  0.74514  1.0000
  H   H1412     1.0  0.86951  0.60036  0.63501  1.0000
  H   H1413     1.0  0.98176  0.52341  0.67431  1.0000
  C   C887      1.0  0.55600  0.91292  0.60877  1.0000
  H   H1414     1.0  0.84249  0.56018  0.75690  1.0000
  Fe  Fe178     1.0  0.52123  0.91861  0.65327  1.0000
  C   C888      1.0  0.99227  0.57468  0.77399  1.0000
  C   C889      1.0  0.98255  0.60370  0.63234  1.0000
  C   C890      1.0  0.97412  0.60986  0.66818  1.0000
  H   H1415     1.0  0.92928  0.49309  0.61509  1.0000
  H   H1416     1.0  0.86507  0.58833  0.75588  1.0000
  H   H1417     1.0  0.97641  0.60486  0.68479  1.0000
  H   H1418     1.0  0.94164  0.50936  0.71474  1.0000
  S   S359      1.0  0.89615  0.62264  0.78525  1.0000
  C   C891      1.0  0.91687  0.50835  0.69629  1.0000
  C   C892      1.0  0.49957  0.89575  0.74804  1.0000
  H   H1419     1.0  0.51100  0.89690  0.73364  1.0000
  C   C893      1.0  0.50721  0.89109  0.76786  1.0000
  H   H1420     1.0  0.98079  0.58837  0.76716  1.0000
  H   H1421     1.0  0.51772  0.95250  0.78259  1.0000
  H   H1422     1.0  0.97069  0.54924  0.68114  1.0000
  H   H1423     1.0  0.50398  0.94118  0.74382  1.0000
  C   C894      1.0  0.98623  0.59787  0.65360  1.0000
  S   S360      1.0  0.93885  0.58487  0.59745  1.0000
  H   H1424     1.0  0.82915  0.54677  0.78185  1.0000
  H   H1425     1.0  0.86846  0.59499  0.78005  1.0000
  C   C895      1.0  0.57186  0.94539  0.59030  1.0000
  H   H1426     1.0  0.55724  0.88912  0.59013  1.0000
  C   C896      1.0  0.50119  0.94836  0.78335  1.0000
  H   H1427     1.0  0.50318  0.93073  0.78325  1.0000
  H   H1428     1.0  0.98811  0.56325  0.70451  1.0000
  H   H1429     1.0  0.57598  0.96102  0.59046  1.0000
  H   H1430     1.0  0.66514  0.96632  0.59222  1.0000
  Fe  Fe179     1.0  0.97387  0.58943  0.59005  1.0000
  C   C897      1.0  0.86925  0.55167  0.78673  1.0000
  H   H1431     1.0  0.97168  0.49277  0.78312  1.0000
  H   H1432     1.0  0.87213  0.60563  0.82563  1.0000
  S   S361      1.0  0.68325  0.52953  0.90677  1.0000
  H   H1433     1.0  0.71690  0.55979  0.94921  1.0000
  H   H1434     1.0  0.76676  0.52153  0.93440  1.0000
  C   C898      1.0  0.54985  0.88466  0.83247  1.0000
  Fe  Fe180     1.0  0.53436  0.56964  0.94137  1.0000
  S   S362      1.0  0.53999  0.60440  0.92950  1.0000
  C   C899      1.0  0.83901  0.57181  0.80548  1.0000
  Fe  Fe181     1.0  0.57551  0.59057  0.92650  1.0000
  S   S363      1.0  0.59960  0.60170  0.89838  1.0000
  C   C900      1.0  0.65658  0.51186  0.98518  1.0000
  H   H1435     1.0  0.53497  0.51500  0.95374  1.0000
  S   S364      1.0  0.56963  0.55590  0.93491  1.0000
  H   H1436     1.0  0.74058  0.54246  0.95883  1.0000
  H   H1437     1.0  0.54978  0.88300  0.81593  1.0000
  C   C901      1.0  0.59439  0.51228  0.89930  1.0000
  C   C902      1.0  0.51333  0.86334  0.92789  1.0000
  S   S365      1.0  0.53520  0.75002  0.94912  1.0000
  H   H1438     1.0  0.51342  0.82629  0.88902  1.0000
  Fe  Fe182     1.0  0.54355  0.78300  0.94764  1.0000
  S   S366      1.0  0.54651  0.80600  0.91560  1.0000
  Fe  Fe183     1.0  0.87144  0.49540  0.84958  1.0000
  H   H1439     1.0  0.93620  0.59347  0.79153  1.0000
  H   H1440     1.0  0.65382  0.56661  0.97934  1.0000
  C   C903      1.0  0.72402  0.52222  0.93568  1.0000
  C   C904      1.0  0.49949  0.85672  0.89817  1.0000
  H   H1441     1.0  0.73090  0.51089  0.94960  1.0000
  H   H1442     1.0  0.53371  0.89404  0.83720  1.0000
  C   C905      1.0  0.52776  0.83011  0.91517  1.0000
  S   S367      1.0  0.86905  0.52176  0.89775  1.0000
  H   H1443     1.0  0.86637  0.49555  0.97861  1.0000
  C   C906      1.0  0.73423  0.55319  0.94429  1.0000
  C   C907      1.0  0.85318  0.50807  0.98386  1.0000
  C   C908      1.0  0.77234  0.55049  0.86371  1.0000
  Fe  Fe184     1.0  0.84367  0.52572  0.87630  1.0000
  S   S368      1.0  0.53556  0.56869  0.97559  1.0000
  C   C909      1.0  0.52760  0.84338  0.92933  1.0000
  H   H1444     1.0  0.99289  0.59826  0.84073  1.0000
  H   H1445     1.0  0.53581  0.84829  0.83060  1.0000
  N   N90       1.0  0.94830  0.50428  0.80749  1.0000
  H   H1446     1.0  0.53869  0.83836  0.94122  1.0000
  S   S369      1.0  0.73144  0.50310  0.87003  1.0000
  N   N91       1.0  0.98078  0.57006  0.86136  1.0000
  C   C910      1.0  0.51364  0.83677  0.89967  1.0000
  H   H1447     1.0  0.57190  0.62979  0.97643  1.0000
  N   N92       1.0  0.55365  0.86304  0.84713  1.0000
  S   S370      1.0  0.69081  0.53196  0.84445  1.0000
  C   C911      1.0  0.90355  0.60165  0.80675  1.0000
  C   C912      1.0  0.92537  0.51518  0.80990  1.0000
  H   H1448     1.0  0.55617  0.85001  0.88036  1.0000
  C   C913      1.0  0.64845  0.55110  0.98099  1.0000
  H   H1449     1.0  0.87506  0.52361  0.94600  1.0000
  C   C914      1.0  0.80465  0.53312  0.84487  1.0000
  H   H1450     1.0  0.51992  0.85888  0.85223  1.0000
  H   H1451     1.0  0.82863  0.52234  0.93893  1.0000
  H   H1452     1.0  0.94588  0.56161  0.82013  1.0000
  S   S371      1.0  0.57051  0.76952  0.96792  1.0000
  H   H1453     1.0  0.58697  0.52976  0.89822  1.0000
  C   C915      1.0  0.62617  0.55027  0.98165  1.0000
  H   H1454     1.0  0.58856  0.86008  0.84018  1.0000
  S   S372      1.0  0.92143  0.54198  0.85888  1.0000
  H   H1455     1.0  0.76479  0.55866  0.87631  1.0000
  Fe  Fe185     1.0  0.72543  0.51639  0.83625  1.0000
  C   C916      1.0  0.79208  0.53101  0.82993  1.0000
  C   C917      1.0  0.53635  0.85041  0.84689  1.0000
  C   C918      1.0  0.96273  0.51866  0.81056  1.0000
  H   H1456     1.0  0.96117  0.53449  0.79869  1.0000
  C   C919      1.0  0.66161  0.55145  0.90414  1.0000
  C   C920      1.0  0.64750  0.55498  0.92232  1.0000
  C   C921      1.0  0.62866  0.57067  0.92057  1.0000
  C   C922      1.0  0.62418  0.58342  0.90067  1.0000
  C   C923      1.0  0.63891  0.58072  0.88256  1.0000
  C   C924      1.0  0.65754  0.56458  0.88427  1.0000
  H   H1457     1.0  0.65067  0.54495  0.93773  1.0000
  H   H1458     1.0  0.61754  0.57267  0.93467  1.0000
  H   H1459     1.0  0.63556  0.59059  0.86713  1.0000
  H   H1460     1.0  0.66857  0.56225  0.87019  1.0000
  C   C925      1.0  0.66364  0.53181  0.98298  1.0000
  C   C926      1.0  0.88829  0.59608  0.82457  1.0000
  C   C927      1.0  0.63445  0.51107  0.98552  1.0000
  H   H1461     1.0  0.81279  0.53096  0.98369  1.0000
  H   H1462     1.0  0.56601  0.87559  0.86967  1.0000
  Fe  Fe186     1.0  0.57163  0.55786  0.96816  1.0000
  H   H1463     1.0  0.53891  0.83383  0.85747  1.0000
  S   S373      1.0  0.51807  0.79062  0.97442  1.0000
  H   H1464     1.0  0.95874  0.52225  0.82669  1.0000
  Fe  Fe187     1.0  0.55940  0.73715  0.97222  1.0000
  H   H1465     1.0  0.58465  0.50221  0.91252  1.0000
  H   H1466     1.0  0.57588  0.84836  0.82394  1.0000
  C   C928      1.0  0.51630  0.50029  0.92735  1.0000
  S   S374      1.0  0.86710  0.53158  0.84651  1.0000
  H   H1467     1.0  0.63642  0.51180  0.92602  1.0000
  C   C929      1.0  0.91462  0.56537  0.83927  1.0000
  H   H1468     1.0  0.76872  0.54655  0.91472  1.0000
  H   H1469     1.0  0.50033  0.51133  0.92827  1.0000
  H   H1470     1.0  0.73448  0.57008  0.90244  1.0000
  H   H1471     1.0  0.98638  0.56024  0.89415  1.0000
  C   C930      1.0  0.75907  0.53289  0.92090  1.0000
  H   H1472     1.0  0.57844  0.83464  0.85109  1.0000
  S   S375      1.0  0.75341  0.53155  0.81592  1.0000
  N   N93       1.0  0.61751  0.50862  0.90277  1.0000
  H   H1473     1.0  0.52693  0.49580  0.97761  1.0000
  S   S376      1.0  0.65035  0.49635  0.83532  1.0000
  Fe  Fe188     1.0  0.54372  0.60274  0.96333  1.0000
  N   N94       1.0  0.84398  0.52347  0.96555  1.0000
  H   H1474     1.0  0.82192  0.52702  0.84337  1.0000
  H   H1475     1.0  0.70852  0.56158  0.91343  1.0000
  C   C931      1.0  0.76944  0.53744  0.83261  1.0000
  C   C932      1.0  0.72613  0.55556  0.90900  1.0000
  C   C933      1.0  0.56579  0.68407  0.97602  1.0000
  H   H1476     1.0  0.70649  0.52767  0.94093  1.0000
  H   H1477     1.0  0.76080  0.52376  0.90806  1.0000
  C   C934      1.0  0.55326  0.86603  0.86889  1.0000
  C   C935      1.0  0.57613  0.66260  0.97600  1.0000
  H   H1478     1.0  0.53722  0.87492  0.87466  1.0000
  C   C936      1.0  0.57510  0.85101  0.84026  1.0000
  C   C937      1.0  0.62973  0.52248  0.88495  1.0000
  S   S377      1.0  0.81024  0.54517  0.88087  1.0000
  H   H1479     1.0  0.92387  0.50274  0.94607  1.0000
  C   C938      1.0  0.92994  0.57127  0.82164  1.0000
  Fe  Fe189     1.0  0.89293  0.52379  0.86796  1.0000
  S   S378      1.0  0.50921  0.55717  0.92878  1.0000
  H   H1480     1.0  0.85009  0.57678  0.81438  1.0000
  H   H1481     1.0  0.79975  0.52359  0.81677  1.0000
  H   H1482     1.0  0.99470  0.49456  0.97759  1.0000
  H   H1483     1.0  0.98019  0.51094  0.80879  1.0000
  S   S379      1.0  0.50217  0.88558  0.81112  1.0000
  H   H1484     1.0  0.97668  0.57202  0.82899  1.0000
  C   C939      1.0  0.61912  0.53018  0.98408  1.0000
  S   S380      1.0  0.57993  0.59183  0.95933  1.0000
  H   H1485     1.0  0.61242  0.53175  0.92273  1.0000
  H   H1486     1.0  0.96970  0.54752  0.84754  1.0000
  N   N95       1.0  0.57615  0.66474  0.90916  1.0000
  C   C940      1.0  0.59078  0.64801  0.92240  1.0000
  C   C941      1.0  0.57186  0.65589  0.89166  1.0000
  C   C942      1.0  0.58666  0.68443  0.90030  1.0000
  C   C943      1.0  0.55534  0.67059  0.92231  1.0000
  H   H1487     1.0  0.58315  0.63314  0.92966  1.0000
  H   H1488     1.0  0.59480  0.65419  0.93553  1.0000
  H   H1489     1.0  0.60640  0.64265  0.91287  1.0000
  H   H1490     1.0  0.56391  0.64101  0.89788  1.0000
  H   H1491     1.0  0.56102  0.66806  0.88116  1.0000
  H   H1492     1.0  0.58727  0.65090  0.88164  1.0000
  H   H1493     1.0  0.57605  0.69745  0.89025  1.0000
  H   H1494     1.0  0.60245  0.68057  0.89033  1.0000
  H   H1495     1.0  0.59009  0.69145  0.91319  1.0000
  H   H1496     1.0  0.55793  0.67805  0.93518  1.0000
  H   H1497     1.0  0.54736  0.65595  0.93004  1.0000
  H   H1498     1.0  0.54359  0.68266  0.91273  1.0000
  S   S381      1.0  0.69137  0.53239  0.98322  1.0000
  H   H1499     1.0  0.86806  0.54453  0.96101  1.0000
  C   C944      1.0  0.82606  0.53933  0.97342  1.0000
  Fe  Fe190     1.0  0.68238  0.49952  0.84374  1.0000
  H   H1500     1.0  0.72700  0.54684  0.89600  1.0000
  H   H1501     1.0  0.92028  0.51855  0.82605  1.0000
  C   C945      1.0  0.89375  0.57775  0.84074  1.0000
  Fe  Fe191     1.0  0.69613  0.51584  0.87794  1.0000
  C   C946      1.0  0.79479  0.54293  0.86177  1.0000
  H   H1502     1.0  0.74211  0.55251  0.85143  1.0000
  H   H1503     1.0  0.59368  0.65865  0.97535  1.0000
  C   C947      1.0  0.52259  0.50419  0.96151  1.0000
  C   C948      1.0  0.92438  0.58924  0.80532  1.0000
  C   C949      1.0  0.75958  0.54725  0.84949  1.0000
  H   H1504     1.0  0.56255  0.89471  0.83218  1.0000
  H   H1505     1.0  0.74340  0.56723  0.93887  1.0000
  H   H1506     1.0  0.52875  0.51078  0.91896  1.0000
  H   H1507     1.0  0.62320  0.54016  0.88377  1.0000
  H   H1508     1.0  0.72455  0.51285  0.92330  1.0000
  H   H1509     1.0  0.51323  0.87355  0.93889  1.0000
  N   N96       1.0  0.73590  0.54099  0.92745  1.0000
  H   H1510     1.0  0.88185  0.57327  0.85439  1.0000
  H   H1511     1.0  0.84873  0.49905  0.94694  1.0000
  Fe  Fe192     1.0  0.51183  0.75650  0.97745  1.0000
  H   H1512     1.0  0.83371  0.55640  0.81523  1.0000
  C   C950      1.0  0.98113  0.55967  0.84348  1.0000
  H   H1513     1.0  0.82424  0.58459  0.80428  1.0000
  H   H1514     1.0  0.95762  0.59014  0.87953  1.0000
  H   H1515     1.0  0.83188  0.54845  0.98335  1.0000
  H   H1516     1.0  0.81884  0.55149  0.96009  1.0000
  S   S382      1.0  0.58141  0.70480  0.97373  1.0000
  C   C951      1.0  0.86124  0.53520  0.95203  1.0000
  H   H1517     1.0  0.64728  0.52010  0.88689  1.0000
  C   C952      1.0  0.54305  0.68897  0.97723  1.0000
  H   H1518     1.0  0.91408  0.50486  0.80740  1.0000
  C   C953      1.0  0.95856  0.58177  0.86630  1.0000
  H   H1519     1.0  0.62885  0.51866  0.86942  1.0000
  C   C954      1.0  0.56381  0.64627  0.97646  1.0000
  H   H1520     1.0  0.85495  0.54694  0.93796  1.0000
  H   H1521     1.0  0.92299  0.53113  0.79827  1.0000
  H   H1522     1.0  0.50666  0.51508  0.96353  1.0000
  H   H1523     1.0  0.51392  0.97565  0.97960  1.0000
  H   H1524     1.0  0.61002  0.50423  0.93680  1.0000
  C   C955      1.0  0.49909  0.86993  0.91242  1.0000
  C   C956      1.0  0.83555  0.51122  0.95302  1.0000
  H   H1525     1.0  0.94638  0.57031  0.87107  1.0000
  H   H1526     1.0  0.95329  0.59434  0.85224  1.0000
  C   C957      1.0  0.54110  0.65130  0.97718  1.0000
  C   C958      1.0  0.61913  0.51430  0.92297  1.0000
  H   H1527     1.0  0.88113  0.55601  0.79521  1.0000
  H   H1528     1.0  0.61448  0.56508  0.98091  1.0000
  C   C959      1.0  0.53075  0.67260  0.97792  1.0000
  S   S383      1.0  0.52538  0.63166  0.97612  1.0000
  H   H1529     1.0  0.53484  0.70541  0.97742  1.0000
  H   H1530     1.0  0.82254  0.50210  0.96270  1.0000
  H   H1531     1.0  0.97571  0.54061  0.88479  1.0000
  H   H1532     1.0  0.51318  0.67663  0.97859  1.0000
  H   H1533     1.0  0.86462  0.53569  0.79595  1.0000
  C   C960      1.0  0.98687  0.55307  0.88019  1.0000
  H   H1534     1.0  0.59269  0.50792  0.88425  1.0000
  H   H1535     1.0  0.62917  0.49561  0.98700  1.0000
  S   S384      1.0  0.59126  0.52823  0.98658  1.0000
  H   H1536     1.0  0.66825  0.49704  0.98679  1.0000
