data_image0
_chemical_formula_structural       FeS2FeSHFeSFeS3FeS2FeS2FeSFeS3FeCSFeS2FeH2CS2FeHSH2CS2HFeSCFeS2FeSFeS2FeS2FeS2FeSFeS3FeS2CSCFeSFeS3FeS2FeHSFeCHS3FeS2FeS2FeSFeS3C6H4C6H5C4HCH4C6H5CHNHCHC4HCH2C6H4C6H4CH2CH3SC6H2FeH2C7H3C6H4C6H4CHCH2C2HC6H4C6H4C5H8FeH5NC4H17NHSHCHNH3CSHCH4FeCH8C5HCH4CH2CHC2HSCH6SHCN2C4H12CH2SC2SH2CH5CHCHCHSCH4C2HC3HNC4H12NC4H12CHC3H4C2H2FeHCH5CH3NHS2CNH2SH2CH2FeC2SHSNH3C2H2CHC2H3CHCHNSH2NC4H4SC2H11NH4SC2FeHCNCNFeC3HCSH5SNH2CSC3HSFeHNCH2SH2CH2C2H5CHCHSHCH3CNH6CHSH2FeH2C3H3CHNFeH5C2H2CNH4CH3FeH5CH3FeHCHSH2FeS2FeS2FeSFeHS2H2SFeS2HSFeHFe2S2FeS2FeS2FeSFeS3FeS2FeS2FeSFeS3H5C3FeS2FeS2FeSFeS3C2SH2SFeSFeCFeSHCSFeHFeSHCSHSHFeHFeSH3CHSC4H6CHC4H5NH4SHC2HC4H5CH3C7H4C5SH6C3NCHC2SNHCH3CH5C6H4C6H4CH2C3HCH2CHC3HSH4FeC2HSHFeC7H4FeC6H4C6H4C6HCH2CHNC4H13C2SH2SHCHCH4C2H3C2H2SC3FeH3CH4C2H8CH4C3H2NCHSFeCHNC4H12S2HS2H2CHNHNHCHC2S2NH3SCSH3C4HSCHCNH2SCFeHCSH2SH3NH7C2HCHNC4H20SFeCH2C3SCHCSH3C2SC5H3NC3H2NSHC2H2CHCH3CNH2CH3CFeCNH2NCHCH3CH4CHCHFeSHNCHFeH2CHFeCH9CHS2H2CNHCHFeHNH2CH7NCHSH5C3H8CH2CHNHCHCH3CHCFeS2FeS2FeSFeS3FeCS3FeS2FeS2FeSFeS3FeS3CSH2SFeS2FeS2FeHFeS4CSNHSHCHSCFeHC3H4C6H9C2NH2FeCH2C3H3C3H2CH2CHC6H5C6H4C4H2CHC5HCHNC7H4SH2CSCH2NFeNC4H13CHCFeCHFeHCH2CHC3HCHC2H4CH3C3H3CHC2SH4CH2FeH3NH2CHCHSH5FeNH2CFeH2CHCH2CH6CH2FeHCHC2H6SC2H2CHCHC2H2S2CH6C2H4CFeH4CH3FeHS2NCHC2H3FeCH2SH3CH9C2H2CH6NC3HCHCHCFeHC2H2CH2SCHFeCH2C2H2SH4SH2CHC2SCNSHCFeHCHSHCNCS3CFeHCSCHCHSH2C2H4CH2SFeHCH3CHC3HCHCHC3H7NC2H5SHC5NHCFeNHSCH2C3HCH2CFeS2FeS2FeSFeS3FeS2FeS2FeSFeS3FeS2FeSFeSFeS3H2CHSH2NC4HC2S2H4C2H3CFeSFeS2FeSFeHS2HC3S2HCNCHC2NHCHSCNC2FeS2FeS2FeHFeS3FeSCH3CHFeSCSFeH2FeS2CFeSHSFeS2FeSHFe2SHSC2HSH5CH4CSH4CHCHNHCH4CH7CFeH2SHCH3SH3C2H4CH5CHSHC2SH2C6H6FeH2C3H2CH4C6H4SCH2C2HNHC6H10CSHSC6H4C3HC2H4SCH4C3H6NH2CHCH5C2FeH3C3H3CH2C3H2CHFeHCHCH3CH4CHCH7SHCHCH3C4H4CHNHC6H4C4FeCH4C6H4C6H4C6H4C6H2NHC3H2SHNHCH8C2HSNCHNH3SH3FeNC4H12CNH2CH6CSNC4H15C3SHC2H3SCSH16CH5CH3C3H3C2HC4H2SNCH2SCHCNC3H9CHCH3CNCSH3FeCN2H6SCH3SHC2H4C2HCHC3H2NC2H8C2HCNHCHNCH3CH2C2FeSCSH2CH7SCHCSH2CNHCH4CH2SH3C2HCH2SCHC2SHCH2CHC2FeS2FeS2FeSFeS3H2C2FeCSFeSHCSHFeS2FeS2FeSFeHS4FeSFeS2FeS2FeSFeHS4C2HSFeS2FeS2FeSFeS3H3C6H4C6H4CH2NHC2H4C6H4C6H4CH3C2H4C2H2C7H5C5H2C2HC6H6CH5FeC7H2NH3C4H3CH2C4H2CH2FeCFeC6H4SHSFeHCH2SH2CFeHSHC2HC3NSCHSFeC2H4C2H5FeCNFeHNHFeHCHCHCH2FeHNH5C2HCHS2H9SCSH4CS2HNCH2C2HCNC4H12NC5H12SHSCH2SH2CSCHCH7NHNC4H12C3SHSH2C2H2CH4NC4H12CH2NCHSCHFeCHSNH5C2H4FeCH2SFeCH3CNCHCSNH3SH3FeCH2SCHCHSHS2C2H4SC2H2C4HFeCH2NC2HFe2C3HNCFe2H3SHCHCH2SH2CSCH2NCH4FeSH2CFeH5FeHFeCHCHCSCS2HCH2C2HCHCFeH3SHCHCSHCSHCHCSH3C2HSC2HCSFeHSH2SH2SC2H3CH2CH5CH9CH4FeCS2CH7SCH5CFeHSFeHSFeSCS3FeS2FeS2Fe2S3HSHCHC2SH2SHCHFeS2FeS2FeSFeS4FeS2FeS2FeSFeS3HSCHCH2SHCFeH2SHSH2FeS2FeS2FeSFeS2CFeSHFeS2FeSFeS3C4HCH4C6H4CHC6H3CHC6H4CH3C2H4C5H3C4H3C6H4C6H5CH2CNHC6H4C5H3CHCNCHCHCHC8H4C4H4CHC3NHCH3C3FeHCHC5FeH2C6H5SNH4C3SH2C3H3NC4H12SHNC4H12C5H7CHFeNH3C2SC4H8NC4H12FeNC4H12NC4H13CH3CHCFe2H5FeHCHCH5CSCH2C2NC4H10C3H7FeH3CHCHC2H4CSNH4CHSH2C2SCH2FeHSC2H2C2FeCH3C2FeH2SH2SHCHSHSCHSH3SNCHFeSNCHC2SHFeH2CHSH3SHCH2CFeC2H3CHFeH3CHCS2CH2S2NC2H3C2H4NCH2SH2NHCH2S2H3CSH4FeSH2SHCHCHC2H2CH2SCH7CH2CH5CSH2SNHCH3CHNSCHCHNHCH4CNH4CH5SC2H2CHSH3C2H7Fe2S2FeS2FeSFeS3FeS2FeSFeHSH2FeNSNC2H5SH2C2FeCH2CHCHC2H4CHCHSHSH2FeS2FeS2FeSFeCS2FeH2SHCFeCSCH2FeSHFeS2FeHFeSCSHCSHFeS2FeSCHS2H2CFeS2FeS2FeSFeS3CHSHCSH2NSHCHFeS2NHCHC4H3C6H4SC4H4CHCH7C4SHCHSH3FeHSHSHNHC2H3C6HCH2C2SHC3SH3C6H4C6H4C6H4SHC2N2SCH2CH2SH2CH3NSFeCHCSH3CHC2H2C2HSHCH3CH3C3SH2C7H4C6H4SHCH4C6H4C6H4C2HC2H4CSH2FeH4CHC2HFeSCSHCHFeHCH2C2HC2H2CH5N2HCFeNH3CHCH2CH4SH2FeCHCH4C2H4CH6CH3C2HC2HCNC4H13CH3SH2C4HCHN2HCFeHCSNC4H12SNHSH3CH2CSH2CHNC4H14CHFeC2FeSHC2H2CHCH2SH3CH3FeHSH4CH2CH12SHNH2CFeS2FeS2FeSFeS3CH2C2H2CHFe2H5NCH2CHFeH2CFeS2H2SHS2FeS2FeS2FeS2FeCHFeS2FeHFeHS4CH3SH3CSC5H4FeSHC2H4C2H2CH2S2C2H2CNFeH3SHC6H7CH2CH2CHCHC3H3CH4CHCH2FeSC8HCH2C6H4C2H5CFeHC6H3SH3S2CFeCHNC3HCHNC4H12SH3CHCHFeCH2CHC2HCH3C3H2CHC2H3SNC4H12CHC2H2CH3CHCS2CHC3SFeH3CHCH3S2H3S2HFeHC2FeH2CH2S2H2FeNCHSN2HSCNC4HCH4SH2C3FeCHC3HNH2CHCH4C2H3C2FeH9CHCH4NSCH6SHCHNH4CHCFeS2FeSFeCSHFeH2FeS2FeSHFeCFeS3FeS2FeS2FeSHS2FeS2FeS2FeSFeS3CFeH2FeS2H2FeSHSH5CHC4H4CH5CNSH4FeCHCSHCHNSFe2S2HSFeSFeSFeHSCHC2FeS2H2FeS2FeS2FeSFeS3FeS2FeSCFeSFeS3FeS2CFeS2C2HFeCH2FeH3NHSH3CH2C3HNHC6H4C6H4FeCH2C7H4C6H4C7H3SH2FeC2H2C2HFeHC6HSH3C2HCH3CH3CHFeNH2C2H2SH4CHC7H4C6H4C6H4C6H5C6H4C6H5CH4SH2CHCH2C2NSC6H4C6H4CH3C2H4CNC4H14NH2SNCHSHCHC2HCHCHCH2SCH3CSCSHSHSCNC4H3CH10CHFeHCH2C2H2C3H7CHCH2CSH4NH3FeCH2SH2CHC2HN2HCH2SCH2SHFeNC4H12NC4H13C2SH3SCSHSH5NC4H13CSH3CH6CH2SH2CH2NC2HSH2CNH3NFeHSHFeH3FeH3NCHCH3CHNC4HSH3CFeH3SH3CFeH6CHSCH2C3HCH2SCHCNH2FeHSH2C2S2H2SFeSHFeSFeS3FeH2FeS2FeSH2SCSFeHSFeSFeS3HCSH2CH3C2HFeH2FeS2HFeS3CSH3FeS2FeS2FeSFeS3FeHFeCFeSFeNSH3CSFeS2FeS2FeSFeS3FeSFeSFeS2HCHSFeS2C2FeSHSHC2SCSH2NHC3H12SH2NHCHCH2C6H4C5H5C6H4C8H2C6H2C6H4C6H4C6H4C6H5CH2SC3H3SFeH2NH3FeSH3C8H4CHC4H4C6H4SHCHC4HCSHC6H5C2HSH2C3SNSH2C6H4C2H3NHSCH4CHCH2NC2H2CH2SHCSH5C2NC4H13CHSCHC3SHCHCSH2NC3SCHC2SCH4CHCHCHFe2H2CH2CNSH2CNC2H7NC2H8SH2CH3CH2CSNCHC2NH2CNHCHCH3CHFeHCSHFeH2NC4H12FeH2CH4CH4S2H2CH2C3H2CH2CNC4H12NC4H13CHSH3CFeHSHCHNHC2H5C2H3SHC2SH2FeHCSH2C2H2CS2CH5Fe2HCH2SHCNHCH3NHCH6CH3CH9FeCHFeCH3CH3CH3NCH3CH3FeS2FeSFe2SFeS3FeHCFeCSH3CS2FeS2FeS2Fe2S3CHFeS2FeS2FeHFeS4HSH2CFeS2FeS2FeSFeS3HSC2HFeSCSFeC2HCH3FeHSC2NS2H2CHSFeS3CNCH4C3SHCHSH3C7H4C5FeH2CHC6H3C4H3C6H4C6H4CHCHFeCH5NC3NH4C3H2CH4C6H5S2C3HC7H4C6H4SHSC2HCHSH3NC4H14CH2FeCHC3H2CHCH2CFeCS2HFeHNC3H9NC4H12NC4H15CHCH6FeHFeN2C4H12CFeHNC4H12SHCHSH4CSH4C2HNHC2H2CHNH3CHSH2CNCH2NH2CHC2HCH3CH3CH4CH6SHFeH2C3HCHC2S2FeC3HCHSH2CH2CHCHFeSHCNH3SCHCHCSHCH3FeC2H3CH2C3HCH2CHCHC2H3CH7CH3CHSHC4HCH5NCFeS2FeS2FeSFeS5H2C2HC3H3C2HNS2CHC3SCSH2FeCFeSCFeS2FeSFeS3FeH2FeS2FeSFeSCSHSNHCHFeHFeS2FeH4SH3FeS2C2SHSH2SFeHSHSHNHCHFeS2FeS2FeSFeS3C3HSCFe2SFeCH2CH2CHFeHSHCFeSFeCNHCH4SHCHC2NH2C2HSC6H4C6H2SH4NCH6C2HC2HFeCNHCFeC8H3CSCHC2HCH3C5H4C6H2CHC6H4C2HC3SH3CH2SCH2SH2SHCHNH2CNHNH4SHCFeHSH2C2H6CH3CH5FeH2C6H4C2H7CHCHC2H2C2H2C6H4C6H4C2HCH3C2HNC3HSHCHSHC2H2C2HFeH3SHC3NH3CHNC4H8CFeH4NCSFeHC2SHSFeH4CHCSH5C2NS3HCH3C2H4CH3N2C4H10CHFeH10SHCSH2NC4H9SCH3SH2CH6CSH2CHCSH2CH5NFeH2C3SHCHCSHSH2CH2CH3SH4CHFeCH3NCH3C4H2CH5SH3CH2C2HCH3CH2CHCH2CH2CH3SH6CHCFeH2FeHCHCFeS2FeS2FeSFeS4H2FeS2FeSFeHS2H3FeS2FeSH2S3H3SFeS2FeS2FeS2FeS2CH6S2H2CFeS2HCHSHSHFeS2FeS2FeSFeS3CHCH4SH5SC7H3C6H4SH2CH2NHC6H4C3HCS2H2CH2C2SHC6H4FeH3SC7H3SCH4C2HC7H3FeCSC4H2C6H4SNH2C2H4C6H4C2H2SCH4C6H3FeCSFeHCSH2SCH2SCH7NCH6SH2NCHC2H4CHC2H4NC4H12CH3FeNCH3CSHCHCH2CH7SH3CH4CFeHC2H4CHC3NFeC3H2NC3HSH5CH4CHCHCFeHCHCHC2H2SNH5NC4H12CSHSCHFeH4C3HCHNC4H12SH4NHSHC3SHC3HFeSCHC2HFeH2NH6FeH2NCSHFeNHCH2C2HC2SNHC3NCHC4H6SHCFeSHFeCHC2HCSH6SC3HSH2NC4H12CH2SCNCHC2FeHC2NHC2H2CH4FeH2NH3CHFeSHCH2CHC3H2CH2FeH5C2HNCH4SHSCSHSH3FeC4H4FeHSFeS2FeCFeS3H3FeS2FeSHFeSFeS3FeS2FeS2Fe2S3FeS2FeS2FeSFeS3H3SH2C2HS2HFeS2FeSHFeSFeS3H5C3HNHCH2SH3CHCFeSHFeSFeSFeS3HFeS2FeS2FeSFeS2H2FeS2FeS2CH2C2H3C2H4SCHCH2SNHNH4CH5SHSH2FeH2C7H4C6H4C6H2FeHC2HSH2CHCFeH3CSHCFeH4CH2CHSC2HCHC2H2SCH2FeCH10C2SC6H4C6H4C2HCHCHFeH2C6H4C6H5C6H4C3H6NHNCSH2NSHCH2C8H4C6H8C6H4CH2C4H2NC4H5CH8SCH3SC3H2CHSHCHNC4H12NFeC3H2NC2H3C2H2NC4H13CH2CNHCH2SHC3H2C2HSH4CHCH2SHC2HCFeHCHC4H4NH3C2H2CHC2H9NC2HCH2NCSH2CH2CH2SC3HCHFeH5SC2SCH2CHCNCH4CH3CNHSH6SH4NH8CH9CHC2FeHSCSHNHSCSCHSHSC2H3FeS2FeS2FeHFeS3FeS2FeS2FeCFeS3CFeCFeS2FeS3HSFeS2FeS2Fe2S3FeS2H2SFeS3HFeS2Fe3SFeS2FeS2FeSFeS3NHCHFeCFeS2FeS2FeSFeHS2HS2H3CSH3FeH2CH2CH2S2CH2CH2C5NH3NH2CH2CH3C2H3CH4C6H4C6H4FeHC4H5C7H3FeHCH3C7H4C6H4NHFeHCH3CSC5H3C6H5C6HNH2C6H5C2H9CH2C6H4CH3SC2HC6H3CH4C2H3CHCHC2SCNH3CH3SH5C2HC2HNC4H12NSHC2HC2H2CH4NCHCH4C2H3CHC2FeH4NHNC4H14CSCSH2S2HCH5NC4H12CNC4H12CHNC4H14NC2HCH2CH2SCH5CHSCSCSC2H5C3NC4H13CHCH5CH6SH2CHCH2SNSH5CFeC3H2CH6C4HNCH2CH2CSH3CHFeHC2FeS2FeS2FeSFeS3Fe2S2FeS2FeSFeS3FeS2C3H5SCFe2HSHCHCH3CNHFeS2FeSHFeSH2FeS2FeSHFeSFeS3C4H3SHNHNH3C3H3CH3C3H2C3H4CHSC2SCH4CHC2SH2FeCSC7H4C6H4C3HC2H3C6H4C6H4C6H2CHC6H4C4H5FeC2H3C3H2C2H2SH2C2HC2HCH4NH2NCH3FeH2C2H2C2HSH3SHNH2CFeCH2SCHC2HCFeH2CHSH2CH5CNH5CS2H6CFeNC4H12NC4H14NH2C2H7CH2SHNHCH2NHCSNH4FeH2CHCFeHNHCHFeHCHS2HCS2H4C2SFeSCSH5C2H5CFeCSCH2S2CHFeHCHCHSFeCNHSHSHSC2SH2C4HC4HCSHFeSCFeSHSFeCH2SH2C3HNSCH4CFeC2H3CHCHCH3FeH2CHCSH2CH4FeCHC3HFeH2SC2HSH5SCH6CH3FeHCHC2H4SHCHSHSHCHSHNHCH6SFeS2FeS2FeSFeS3C2HFeHFeH4CH3C4HSCH3FeS2FeS2FeSFeS3HNH2SHCSFeCNHC2HSHFeSHFeSH2CH2FeHCSCHSH2CS2NFeS2FeSFeS3FeS2FeS2FeSFeS3FeS2FeS2FeSFeS3FeS3HC3H2CHCHSCH4CHSFeS2FeS2FeSFeS3HCH2CHCH3SC3SHCH4SHCHC6H4SCH2NC2SH4CHC3HCH4C2HS2HC6H4C6H2CHC6H4C6H4C3SCH2CFeHC2H4C2N2FeH2FeH2C2H4SHFeHFeCH3SHCHCH5CHCFeC8H4SHNHFeHCFeH3CH2CH2CH3CSC4H2SH2SH3C6H4C6H4C3H2C5FeH5CH3NH2S3C2HCH3NHCH3NC6H2CHC6H4C6H6NCHC5H6SH3CH4NH3CH3CFeHCH8CHCH6CH2CH4C2H5NC2H8NC4H12CH4CSH2CH5NSNC4H12NC4H14CH4CHCHCH2C2HC2HNCHCH6C2NC3H11C2SHCH7CHCH2CHCH2CHNH3CH2C2H4NHCHFeHCH2FeS2FeS2FeSFeS3FeS2FeSCSFeS2FeS2FeS2FeH2FeS3HCHS2FeHFeS2FeS2CFeS2FeS2FeSFeS3CS2HFeHC2HSFeS3FeS2HSC5H3CHC6HCH2C2HC3H4C6H5CHFeH6C4H2C6H4C3SHSH2CFeH2C6H4C6H4CHC4HCH2CH2CSH3C2HCH3SCH3SHSH2CFeH2FeHSCHCSHFeCHSCH6CHNC4H14C2FeC2HCNHCH2CH8CHCHCNSCH2CHC3H5CH2CHCSH2NH2SHNCH5NC2HC2HSNCHCFeH2CSCHC2NC4H12C3H5CH2C2H2C4NCHCH2CH2CHCH3CHCFeH2NCHC2HNH5NH2CHNHC4HSCHCH4SC2H3CHCHCH2CH4CH2C3HC2SNHSH8CH5CH2NCH2CHCH3CH3C2H2FeH4NHCHCHSCHCH5NCH2FeH9CH3CSHC3FeH11C2H3CSFeSHFeSHSHFeS2FeSCFeSFeS3FeSHFeS2Fe2S3FeNFeS2FeSFeS3FeS2FeS2FeSFeS3HFeS2CSHFeSFeS3FeSNCSFeSFeS4FeS2FeS2FeSFeS3HCHSCNCH12SHC2H2C4H4FeH2CH2SH2CHCHC3H6C7H4C4HCHSHSC2FeNH5CH3C6H4C6H3C6H4C6H4C6H6C7H4C6H4C6H5C2SHCH3C7H3CHNH4CHC6H4CHCHNC2HC2HSH3NC4H12NC4H12CH2CH6SH3FeH2SH2CH4CHC2H2CSH2FeNSHCHCH2C2H2SHNC4HC2H10C2HCHC2H2CHCH2CH8CH5CH2CH3CSH2SC2HCSFeCHCHFeH7NC2HCH6CH4SH4CHCHSHC2H3CH3CHSCFeCHCNSH2CHCSH3NCNC4H12NC3HSH11NC3H2SH5N2C4H2S2H2C4H2CHC2H2SCH8C2H2CH5CH2FeH2CH2NH4CFeS2FeNFeS3HFeSFeS2FeSFeS3HSFeS2FeSFeHS2FeS2FeS2FeSFeS3FeS2FeS2FeSFeS3FeSHFeS2FeSFeS3HCH2NSFeS2CSHCNFeS2FeS2FeSFeS3FeS2FeS2FeSHS2H2CH2C6H4C5HCH2C7H4NHC6H4CH6C6H5SH4CH3C6H4C6H4C6H4SCHNCHFeC2HC6H4C6H4C6H4C6H7C2HCH3C6H4CH4CH2CHCHCH3CH2NC2HCH3C2H2FeH4SFeCH4SCHFeCH3C4H4NC4H12NC4H12NC4H12C5HCHSNC4H13CH4CH2CH3C4H2CSCH3N2HCH4NH2C2H3SCHC2HCH2CHC2HCHC3HNCHCH2SC2FeH3CSCH2FeNC4H12CH2C3HCH12NC4H15SNC4H13C2H7NH4C2HC3HC2HNH3CSH2SHC2SHSHCH4CHC2H2C2H3C2H2
_chemical_formula_sum              "Fe768 S1536 H6144 C3840 N384"
_cell_length_a       91.1244
_cell_length_b       91.3917
_cell_length_c       91.5745
_cell_angle_alpha    73.8417
_cell_angle_beta     73.799
_cell_angle_gamma    73.75

_space_group_name_H-M_alt    "P 1"
_space_group_IT_number       1

loop_
  _space_group_symop_operation_xyz
  'x, y, z'

loop_
  _atom_site_type_symbol
  _atom_site_label
  _atom_site_symmetry_multiplicity
  _atom_site_fract_x
  _atom_site_fract_y
  _atom_site_fract_z
  _atom_site_occupancy
  Fe  Fe1       1.0  0.36252  0.30166  0.04100  1.0000
  S   S1        1.0  0.35094  0.28450  0.06023  1.0000
  S   S2        1.0  0.35747  0.32730  0.03978  1.0000
  Fe  Fe2       1.0  0.38431  0.27678  0.02451  1.0000
  S   S3        1.0  0.37510  0.25730  0.04226  1.0000
  H   H1        1.0  0.33844  0.39880  0.14404  1.0000
  Fe  Fe3       1.0  0.35167  0.27329  0.04095  1.0000
  S   S4        1.0  0.33127  0.26518  0.03907  1.0000
  Fe  Fe4       1.0  0.37541  0.27021  0.05959  1.0000
  S   S5        1.0  0.38556  0.25732  0.08045  1.0000
  S   S6        1.0  0.36092  0.29192  0.02179  1.0000
  S   S7        1.0  0.38702  0.28826  0.04174  1.0000
  Fe  Fe5       1.0  0.32277  0.15002  0.05040  1.0000
  S   S8        1.0  0.29675  0.15813  0.05296  1.0000
  S   S9        1.0  0.33560  0.12508  0.05651  1.0000
  Fe  Fe6       1.0  0.32836  0.18297  0.03825  1.0000
  S   S10       1.0  0.30285  0.19380  0.03988  1.0000
  S   S11       1.0  0.34748  0.19632  0.02882  1.0000
  Fe  Fe7       1.0  0.29958  0.17681  0.06303  1.0000
  S   S12       1.0  0.28562  0.18139  0.08656  1.0000
  Fe  Fe8       1.0  0.30277  0.17420  0.02962  1.0000
  S   S13       1.0  0.29259  0.17997  0.00833  1.0000
  S   S14       1.0  0.32523  0.16745  0.06203  1.0000
  S   S15       1.0  0.32860  0.16451  0.02636  1.0000
  Fe  Fe9       1.0  0.28776  0.27954  0.13068  1.0000
  C   C1        1.0  0.48149  0.24027  0.01338  1.0000
  S   S16       1.0  0.29329  0.30344  0.12275  1.0000
  Fe  Fe10      1.0  0.28309  0.25336  0.11902  1.0000
  S   S17       1.0  0.27640  0.23898  0.14303  1.0000
  S   S18       1.0  0.28687  0.24714  0.09595  1.0000
  Fe  Fe11      1.0  0.26237  0.26189  0.14896  1.0000
  H   H2        1.0  0.35768  0.29207  0.98783  1.0000
  H   H3        1.0  0.44132  0.25392  0.07544  1.0000
  C   C2        1.0  0.08350  0.36743  0.09329  1.0000
  S   S19       1.0  0.26720  0.27581  0.12441  1.0000
  S   S20       1.0  0.30412  0.25833  0.12324  1.0000
  Fe  Fe12      1.0  0.30578  0.07161  0.13011  1.0000
  H   H4        1.0  0.31047  0.36650  0.08762  1.0000
  S   S21       1.0  0.29431  0.08370  0.10988  1.0000
  H   H5        1.0  0.17694  0.45149  0.12671  1.0000
  H   H6        1.0  0.14931  0.38702  0.02453  1.0000
  C   C3        1.0  0.28110  0.17396  0.17528  1.0000
  S   S22       1.0  0.32702  0.05179  0.12987  1.0000
  S   S23       1.0  0.31468  0.08547  0.14115  1.0000
  H   H7        1.0  0.31855  0.28512  0.01057  1.0000
  Fe  Fe13      1.0  0.00514  0.38214  0.14856  1.0000
  S   S24       1.0  0.02369  0.39471  0.13270  1.0000
  C   C4        1.0  0.38136  0.28427  0.11008  1.0000
  Fe  Fe14      1.0  0.15266  0.45245  0.05818  1.0000
  S   S25       1.0  0.17623  0.43995  0.04719  1.0000
  S   S26       1.0  0.13448  0.43835  0.07020  1.0000
  Fe  Fe15      1.0  0.17637  0.46222  0.02932  1.0000
  S   S27       1.0  0.18673  0.46058  0.00466  1.0000
  Fe  Fe16      1.0  0.18549  0.45112  0.06052  1.0000
  S   S28       1.0  0.20250  0.43601  0.07503  1.0000
  S   S29       1.0  0.16187  0.46191  0.07303  1.0000
  Fe  Fe17      1.0  0.09620  0.38095  0.02092  1.0000
  S   S30       1.0  0.07494  0.39923  0.02777  1.0000
  S   S31       1.0  0.10536  0.37462  0.99730  1.0000
  Fe  Fe18      1.0  0.10761  0.37640  0.05094  1.0000
  S   S32       1.0  0.08755  0.39462  0.05984  1.0000
  S   S33       1.0  0.12657  0.36211  0.06394  1.0000
  Fe  Fe19      1.0  0.07298  0.38361  0.05178  1.0000
  S   S34       1.0  0.05087  0.37649  0.06696  1.0000
  Fe  Fe20      1.0  0.09142  0.40849  0.03522  1.0000
  S   S35       1.0  0.09394  0.43341  0.02718  1.0000
  S   S36       1.0  0.09293  0.36435  0.04428  1.0000
  S   S37       1.0  0.11283  0.39119  0.02694  1.0000
  Fe  Fe21      1.0  0.17790  0.33577  0.14029  1.0000
  S   S38       1.0  0.17792  0.35784  0.12204  1.0000
  S   S39       1.0  0.18874  0.31406  0.13084  1.0000
  C   C5        1.0  0.20492  0.45663  0.11018  1.0000
  S   S40       1.0  0.16101  0.37669  0.15027  1.0000
  C   C6        1.0  0.34902  0.40897  0.11301  1.0000
  Fe  Fe22      1.0  0.15350  0.36612  0.13483  1.0000
  S   S41       1.0  0.13460  0.38132  0.12222  1.0000
  Fe  Fe23      1.0  0.18551  0.36685  0.13852  1.0000
  S   S42       1.0  0.20512  0.37965  0.12664  1.0000
  S   S43       1.0  0.15260  0.34314  0.15181  1.0000
  S   S44       1.0  0.18769  0.34389  0.15579  1.0000
  Fe  Fe24      1.0  0.25461  0.45903  0.10595  1.0000
  S   S45       1.0  0.23275  0.47043  0.12071  1.0000
  S   S46       1.0  0.48419  0.37260  0.09987  1.0000
  Fe  Fe25      1.0  0.26898  0.44193  0.13363  1.0000
  H   H8        1.0  0.12981  0.39231  0.04909  1.0000
  S   S47       1.0  0.28795  0.42398  0.14403  1.0000
  Fe  Fe26      1.0  0.23408  0.44687  0.13687  1.0000
  C   C7        1.0  0.14769  0.41705  0.10619  1.0000
  H   H9        1.0  0.43324  0.30546  0.01642  1.0000
  S   S48       1.0  0.25484  0.43506  0.12119  1.0000
  S   S49       1.0  0.27095  0.46488  0.11676  1.0000
  S   S50       1.0  0.45165  0.37507  0.13769  1.0000
  Fe  Fe27      1.0  0.37700  0.35376  0.12887  1.0000
  S   S51       1.0  0.37536  0.36599  0.10433  1.0000
  S   S52       1.0  0.38377  0.36539  0.14387  1.0000
  Fe  Fe28      1.0  0.36252  0.32783  0.12862  1.0000
  S   S53       1.0  0.35991  0.33773  0.10405  1.0000
  S   S54       1.0  0.44493  0.28596  0.06373  1.0000
  Fe  Fe29      1.0  0.38389  0.34194  0.09966  1.0000
  S   S55       1.0  0.40054  0.33804  0.07731  1.0000
  Fe  Fe30      1.0  0.35148  0.36081  0.11093  1.0000
  S   S56       1.0  0.33167  0.37814  0.10120  1.0000
  S   S57       1.0  0.38757  0.32989  0.12372  1.0000
  S   S58       1.0  0.35217  0.35057  0.13602  1.0000
  C   C8        1.0  0.43319  0.37180  0.13864  1.0000
  C   C9        1.0  0.42028  0.37877  0.14879  1.0000
  C   C10       1.0  0.40533  0.37659  0.15017  1.0000
  C   C11       1.0  0.40301  0.36755  0.14129  1.0000
  C   C12       1.0  0.41585  0.36067  0.13088  1.0000
  C   C13       1.0  0.43101  0.36273  0.12962  1.0000
  H   H10       1.0  0.42187  0.38574  0.15579  1.0000
  H   H11       1.0  0.44942  0.27092  0.99808  1.0000
  H   H12       1.0  0.41411  0.35369  0.12397  1.0000
  H   H13       1.0  0.44095  0.35738  0.12169  1.0000
  C   C14       1.0  0.29969  0.41115  0.13209  1.0000
  C   C15       1.0  0.30980  0.39774  0.13842  1.0000
  C   C16       1.0  0.31945  0.38740  0.12907  1.0000
  C   C17       1.0  0.31903  0.39044  0.11334  1.0000
  C   C18       1.0  0.30866  0.40370  0.10710  1.0000
  C   C19       1.0  0.29899  0.41406  0.11646  1.0000
  H   H14       1.0  0.33396  0.22261  0.00225  1.0000
  H   H15       1.0  0.32721  0.37710  0.13404  1.0000
  H   H16       1.0  0.30828  0.40612  0.09493  1.0000
  H   H17       1.0  0.29120  0.42442  0.11150  1.0000
  H   H18       1.0  0.30457  0.34814  0.09553  1.0000
  C   C20       1.0  0.20634  0.39590  0.13269  1.0000
  C   C21       1.0  0.21763  0.40446  0.12374  1.0000
  C   C22       1.0  0.21946  0.41709  0.12848  1.0000
  C   C23       1.0  0.21015  0.42111  0.14236  1.0000
  H   H19       1.0  0.09685  0.33714  0.10084  1.0000
  C   C24       1.0  0.19666  0.40021  0.14632  1.0000
  H   H20       1.0  0.22508  0.40125  0.11313  1.0000
  H   H21       1.0  0.22820  0.42357  0.12143  1.0000
  H   H22       1.0  0.49180  0.10853  0.16911  1.0000
  H   H23       1.0  0.18790  0.39368  0.15332  1.0000
  C   C25       1.0  0.12876  0.36777  0.07998  1.0000
  C   C26       1.0  0.14004  0.35828  0.08836  1.0000
  C   C27       1.0  0.14199  0.36236  0.10130  1.0000
  C   C28       1.0  0.13267  0.37600  0.10590  1.0000
  C   C29       1.0  0.12152  0.38561  0.09742  1.0000
  C   C30       1.0  0.11953  0.38149  0.08452  1.0000
  H   H24       1.0  0.14722  0.34763  0.08492  1.0000
  H   H25       1.0  0.15058  0.35484  0.10781  1.0000
  H   H26       1.0  0.11435  0.39625  0.10087  1.0000
  H   H27       1.0  0.11090  0.38899  0.07811  1.0000
  H   H28       1.0  0.18052  0.45840  0.09812  1.0000
  C   C31       1.0  0.07738  0.38561  0.98722  1.0000
  H   H29       1.0  0.16421  0.38893  0.10100  1.0000
  N   N1        1.0  0.47883  0.40482  0.13828  1.0000
  H   H30       1.0  0.07187  0.38826  0.99856  1.0000
  C   C32       1.0  0.17271  0.41984  0.10808  1.0000
  H   H31       1.0  0.17284  0.38188  0.04464  1.0000
  C   C33       1.0  0.21819  0.44379  0.07465  1.0000
  C   C34       1.0  0.22901  0.43499  0.08375  1.0000
  C   C35       1.0  0.24071  0.44147  0.08502  1.0000
  C   C36       1.0  0.24178  0.45671  0.07701  1.0000
  H   H32       1.0  0.44652  0.29176  0.99440  1.0000
  C   C37       1.0  0.21953  0.45887  0.06622  1.0000
  H   H33       1.0  0.22811  0.42328  0.09015  1.0000
  H   H34       1.0  0.24890  0.43467  0.09222  1.0000
  C   C38       1.0  0.12168  0.43923  0.05866  1.0000
  C   C39       1.0  0.12406  0.44695  0.04297  1.0000
  C   C40       1.0  0.11473  0.44608  0.03348  1.0000
  C   C41       1.0  0.10319  0.43729  0.03965  1.0000
  C   C42       1.0  0.10035  0.43021  0.05551  1.0000
  C   C43       1.0  0.10956  0.43119  0.06501  1.0000
  H   H35       1.0  0.13331  0.45326  0.03804  1.0000
  H   H36       1.0  0.11686  0.45169  0.02125  1.0000
  H   H37       1.0  0.09109  0.42390  0.06045  1.0000
  H   H38       1.0  0.10755  0.42535  0.07719  1.0000
  C   C44       1.0  0.03047  0.39041  0.11407  1.0000
  C   C45       1.0  0.02483  0.37959  0.11016  1.0000
  C   C46       1.0  0.03100  0.37563  0.09555  1.0000
  C   C47       1.0  0.04279  0.38249  0.08476  1.0000
  C   C48       1.0  0.04818  0.39359  0.08853  1.0000
  C   C49       1.0  0.04206  0.39751  0.10318  1.0000
  H   H39       1.0  0.01573  0.37424  0.11836  1.0000
  H   H40       1.0  0.02668  0.36715  0.09264  1.0000
  H   H41       1.0  0.05694  0.39927  0.08015  1.0000
  H   H42       1.0  0.04631  0.40605  0.10607  1.0000
  C   C50       1.0  0.28179  0.98563  0.15598  1.0000
  H   H43       1.0  0.13311  0.40437  0.05976  1.0000
  H   H44       1.0  0.12857  0.41261  0.04086  1.0000
  C   C51       1.0  0.16942  0.41661  0.08399  1.0000
  H   H45       1.0  0.14148  0.41159  0.10094  1.0000
  H   H46       1.0  0.16944  0.43276  0.10435  1.0000
  H   H47       1.0  0.14352  0.42992  0.10263  1.0000
  S   S59       1.0  0.35436  0.30571  0.14132  1.0000
  C   C52       1.0  0.22398  0.27749  0.15634  1.0000
  C   C53       1.0  0.22468  0.27829  0.14070  1.0000
  C   C54       1.0  0.21325  0.28900  0.13324  1.0000
  C   C55       1.0  0.20142  0.29933  0.14120  1.0000
  C   C56       1.0  0.20049  0.29834  0.15695  1.0000
  C   C57       1.0  0.27743  0.20119  0.17515  1.0000
  H   H48       1.0  0.23397  0.27055  0.13439  1.0000
  H   H49       1.0  0.21387  0.28961  0.12111  1.0000
  Fe  Fe31      1.0  0.48260  0.23430  0.07491  1.0000
  H   H50       1.0  0.18395  0.46188  0.13631  1.0000
  H   H51       1.0  0.15211  0.42339  0.03383  1.0000
  C   C58       1.0  0.33711  0.30519  0.13659  1.0000
  C   C59       1.0  0.33218  0.29110  0.14052  1.0000
  C   C60       1.0  0.31872  0.29046  0.13631  1.0000
  C   C61       1.0  0.31006  0.30396  0.12832  1.0000
  C   C62       1.0  0.31480  0.31810  0.12468  1.0000
  C   C63       1.0  0.32833  0.31872  0.12874  1.0000
  C   C64       1.0  0.42848  0.27773  0.06990  1.0000
  H   H52       1.0  0.31500  0.27954  0.13934  1.0000
  H   H53       1.0  0.30787  0.32860  0.11891  1.0000
  H   H54       1.0  0.33176  0.32972  0.12611  1.0000
  C   C65       1.0  0.32419  0.11328  0.07102  1.0000
  C   C66       1.0  0.33111  0.10153  0.08215  1.0000
  C   C67       1.0  0.32201  0.09226  0.09406  1.0000
  C   C68       1.0  0.30609  0.09442  0.09454  1.0000
  C   C69       1.0  0.29926  0.10592  0.08318  1.0000
  C   C70       1.0  0.30826  0.11545  0.07153  1.0000
  H   H55       1.0  0.34346  0.09978  0.08175  1.0000
  H   H56       1.0  0.32734  0.08342  0.10283  1.0000
  H   H57       1.0  0.28692  0.10762  0.08358  1.0000
  H   H58       1.0  0.30289  0.12431  0.06284  1.0000
  C   C71       1.0  0.28671  0.22852  0.09413  1.0000
  C   C72       1.0  0.28075  0.21743  0.10674  1.0000
  C   C73       1.0  0.28045  0.20290  0.10442  1.0000
  C   C74       1.0  0.28639  0.19936  0.08960  1.0000
  C   C75       1.0  0.29279  0.21029  0.07722  1.0000
  C   C76       1.0  0.29276  0.22485  0.07944  1.0000
  H   H59       1.0  0.27594  0.22025  0.11808  1.0000
  H   H60       1.0  0.27540  0.19452  0.11403  1.0000
  H   H61       1.0  0.29744  0.20770  0.06581  1.0000
  H   H62       1.0  0.29735  0.23339  0.06968  1.0000
  C   C77       1.0  0.29584  0.16441  0.99927  1.0000
  H   H63       1.0  0.36441  0.98912  0.17007  1.0000
  C   C78       1.0  0.17906  0.46310  0.12603  1.0000
  H   H64       1.0  0.16562  0.42936  0.07990  1.0000
  H   H65       1.0  0.23324  0.41219  0.17092  1.0000
  C   C79       1.0  0.22258  0.47874  0.98433  1.0000
  C   C80       1.0  0.16310  0.43013  0.99130  1.0000
  H   H66       1.0  0.31017  0.39534  0.15059  1.0000
  C   C81       1.0  0.37021  0.32987  0.04962  1.0000
  C   C82       1.0  0.37789  0.34227  0.04364  1.0000
  C   C83       1.0  0.38777  0.34444  0.05184  1.0000
  C   C84       1.0  0.38954  0.33451  0.06623  1.0000
  C   C85       1.0  0.38165  0.32229  0.07228  1.0000
  C   C86       1.0  0.37224  0.31978  0.06386  1.0000
  H   H67       1.0  0.37630  0.35012  0.03265  1.0000
  H   H68       1.0  0.39370  0.35403  0.04722  1.0000
  H   H69       1.0  0.38289  0.31472  0.08345  1.0000
  H   H70       1.0  0.36629  0.31021  0.06853  1.0000
  C   C87       1.0  0.33583  0.24608  0.03613  1.0000
  C   C88       1.0  0.35122  0.23887  0.03018  1.0000
  C   C89       1.0  0.35465  0.22355  0.02811  1.0000
  C   C90       1.0  0.34277  0.21531  0.03207  1.0000
  C   C91       1.0  0.32736  0.22255  0.03794  1.0000
  C   C92       1.0  0.32387  0.23799  0.03978  1.0000
  H   H71       1.0  0.36047  0.24514  0.02682  1.0000
  H   H72       1.0  0.36656  0.21803  0.02345  1.0000
  H   H73       1.0  0.31809  0.21634  0.04101  1.0000
  H   H74       1.0  0.31191  0.24358  0.04421  1.0000
  C   C93       1.0  0.40206  0.26494  0.07732  1.0000
  C   C94       1.0  0.40057  0.28110  0.07307  1.0000
  C   C95       1.0  0.41373  0.28751  0.06941  1.0000
  C   C96       1.0  0.42997  0.26153  0.07473  1.0000
  C   C97       1.0  0.41672  0.25512  0.07844  1.0000
  H   H75       1.0  0.38921  0.28868  0.07250  1.0000
  H   H76       1.0  0.41251  0.30005  0.06579  1.0000
  H   H77       1.0  0.41793  0.24258  0.08176  1.0000
  H   H78       1.0  0.18572  0.41627  0.10450  1.0000
  H   H79       1.0  0.16957  0.41662  0.12104  1.0000
  H   H80       1.0  0.16376  0.41096  0.07841  1.0000
  H   H81       1.0  0.37666  0.27827  0.10393  1.0000
  H   H82       1.0  0.18276  0.39106  0.10270  1.0000
  Fe  Fe32      1.0  0.46706  0.26748  0.06256  1.0000
  H   H83       1.0  0.38610  0.29064  0.13510  1.0000
  H   H84       1.0  0.16756  0.47158  0.12725  1.0000
  H   H85       1.0  0.18235  0.41335  0.07972  1.0000
  H   H86       1.0  0.07471  0.36630  0.08754  1.0000
  H   H87       1.0  0.08139  0.37996  0.09353  1.0000
  N   N2        1.0  0.33570  0.23830  0.08524  1.0000
  C   C98       1.0  0.34568  0.23109  0.07220  1.0000
  C   C99       1.0  0.32725  0.22686  0.09680  1.0000
  C   C100      1.0  0.32426  0.25215  0.07927  1.0000
  C   C101      1.0  0.34557  0.24309  0.09265  1.0000
  H   H88       1.0  0.35167  0.23960  0.06293  1.0000
  H   H89       1.0  0.33863  0.22688  0.06670  1.0000
  H   H90       1.0  0.35485  0.22092  0.07612  1.0000
  H   H91       1.0  0.33549  0.21633  0.10172  1.0000
  H   H92       1.0  0.31927  0.23201  0.10662  1.0000
  H   H93       1.0  0.31984  0.22296  0.09145  1.0000
  H   H94       1.0  0.31699  0.24912  0.07305  1.0000
  H   H95       1.0  0.33014  0.26128  0.07097  1.0000
  H   H96       1.0  0.31609  0.25758  0.08882  1.0000
  H   H97       1.0  0.33835  0.24876  0.10242  1.0000
  H   H98       1.0  0.35224  0.25159  0.08415  1.0000
  H   H99       1.0  0.35431  0.23295  0.09738  1.0000
  H   H100      1.0  0.09525  0.36420  0.08568  1.0000
  H   H101      1.0  0.26009  0.32713  0.11261  1.0000
  H   H102      1.0  0.39682  0.25442  0.11021  1.0000
  H   H103      1.0  0.23220  0.47710  0.06114  1.0000
  H   H104      1.0  0.42744  0.29425  0.03570  1.0000
  N   N3        1.0  0.08244  0.35748  0.10913  1.0000
  H   H105      1.0  0.15584  0.45420  0.01610  1.0000
  S   S60       1.0  0.15182  0.47400  0.03897  1.0000
  H   H106      1.0  0.35265  0.26675  0.00435  1.0000
  C   C102      1.0  0.17901  0.42986  0.98513  1.0000
  H   H107      1.0  0.33606  0.41281  0.11651  1.0000
  N   N4        1.0  0.10774  0.42432  0.97996  1.0000
  H   H108      1.0  0.45475  0.27815  0.03410  1.0000
  H   H109      1.0  0.36733  0.27399  0.13994  1.0000
  H   H110      1.0  0.48778  0.42575  0.12881  1.0000
  C   C103      1.0  0.31423  0.00248  0.12375  1.0000
  S   S61       1.0  0.47806  0.33770  0.12026  1.0000
  H   H111      1.0  0.30950  0.02416  0.13112  1.0000
  C   C104      1.0  0.38104  0.01022  0.15242  1.0000
  H   H112      1.0  0.46094  0.23548  0.00998  1.0000
  H   H113      1.0  0.43233  0.26560  0.04054  1.0000
  H   H114      1.0  0.14740  0.40765  0.01744  1.0000
  H   H115      1.0  0.16633  0.39145  0.11891  1.0000
  Fe  Fe33      1.0  0.31333  0.04132  0.15303  1.0000
  C   C105      1.0  0.16981  0.39514  0.10609  1.0000
  H   H116      1.0  0.14375  0.41350  0.11907  1.0000
  H   H117      1.0  0.09014  0.41062  0.98936  1.0000
  H   H118      1.0  0.16641  0.39526  0.01824  1.0000
  H   H119      1.0  0.15072  0.46894  0.98171  1.0000
  H   H120      1.0  0.21122  0.46576  0.05922  1.0000
  H   H121      1.0  0.28209  0.21197  0.16999  1.0000
  H   H122      1.0  0.12445  0.40510  0.98991  1.0000
  H   H123      1.0  0.00172  0.42651  0.17669  1.0000
  C   C106      1.0  0.18318  0.46961  0.09795  1.0000
  C   C107      1.0  0.39140  0.26691  0.98094  1.0000
  C   C108      1.0  0.33496  0.19583  0.99507  1.0000
  C   C109      1.0  0.36052  0.99603  0.15921  1.0000
  C   C110      1.0  0.24571  0.41053  0.16447  1.0000
  H   H124      1.0  0.23595  0.45905  0.00732  1.0000
  C   C111      1.0  0.09447  0.35923  0.11613  1.0000
  H   H125      1.0  0.23385  0.47108  0.97980  1.0000
  H   H126      1.0  0.33374  0.08475  0.16064  1.0000
  H   H127      1.0  0.39551  0.38187  0.15826  1.0000
  H   H128      1.0  0.14251  0.43882  0.00754  1.0000
  C   C112      1.0  0.47130  0.24017  0.00442  1.0000
  H   H129      1.0  0.47460  0.39340  0.12275  1.0000
  H   H130      1.0  0.40749  0.25266  0.12462  1.0000
  C   C113      1.0  0.37385  0.40289  0.12048  1.0000
  H   H131      1.0  0.30600  0.34408  0.06961  1.0000
  C   C114      1.0  0.48257  0.40052  0.12304  1.0000
  C   C115      1.0  0.35772  0.07238  0.15978  1.0000
  H   H132      1.0  0.33568  0.26039  0.00443  1.0000
  S   S62       1.0  0.29146  0.06026  0.15252  1.0000
  C   C116      1.0  0.22980  0.31932  0.14288  1.0000
  H   H133      1.0  0.42225  0.26711  0.02571  1.0000
  H   H134      1.0  0.37135  0.25933  0.12896  1.0000
  H   H135      1.0  0.27546  0.98964  0.16694  1.0000
  H   H136      1.0  0.22085  0.31965  0.11716  1.0000
  H   H137      1.0  0.21307  0.47275  0.98555  1.0000
  H   H138      1.0  0.32197  0.32421  0.08732  1.0000
  S   S63       1.0  0.47630  0.25605  0.08412  1.0000
  H   H139      1.0  0.11699  0.43128  0.99553  1.0000
  C   C117      1.0  0.19859  0.41277  0.15115  1.0000
  N   N5        1.0  0.16489  0.41219  0.10111  1.0000
  N   N6        1.0  0.44792  0.31680  0.08935  1.0000
  C   C118      1.0  0.45997  0.30208  0.09042  1.0000
  C   C119      1.0  0.44946  0.32535  0.07291  1.0000
  C   C120      1.0  0.45003  0.32656  0.09875  1.0000
  C   C121      1.0  0.43220  0.31322  0.09531  1.0000
  H   H140      1.0  0.45858  0.29434  0.08366  1.0000
  H   H141      1.0  0.45944  0.29546  0.10267  1.0000
  H   H142      1.0  0.47192  0.30434  0.08565  1.0000
  H   H143      1.0  0.44013  0.33623  0.07161  1.0000
  H   H144      1.0  0.46100  0.32873  0.06818  1.0000
  H   H145      1.0  0.44841  0.31812  0.06540  1.0000
  H   H146      1.0  0.46188  0.32925  0.09471  1.0000
  H   H147      1.0  0.44869  0.32063  0.11127  1.0000
  H   H148      1.0  0.44135  0.33794  0.09789  1.0000
  H   H149      1.0  0.43089  0.30603  0.10738  1.0000
  H   H150      1.0  0.42983  0.30677  0.08780  1.0000
  H   H151      1.0  0.42290  0.32410  0.09548  1.0000
  C   C122      1.0  0.22466  0.46712  0.01104  1.0000
  H   H152      1.0  0.46026  0.28986  0.01503  1.0000
  H   H153      1.0  0.31407  0.17236  0.98042  1.0000
  S   S64       1.0  0.31552  0.01535  0.16227  1.0000
  C   C123      1.0  0.28650  0.15336  0.00529  1.0000
  C   C124      1.0  0.31343  0.01159  0.13416  1.0000
  S   S65       1.0  0.23884  0.26492  0.16546  1.0000
  H   H154      1.0  0.31363  0.12869  0.16342  1.0000
  H   H155      1.0  0.43779  0.99072  0.17482  1.0000
  C   C125      1.0  0.32367  0.21947  0.97858  1.0000
  H   H156      1.0  0.28475  0.99603  0.14694  1.0000
  H   H157      1.0  0.25492  0.19183  0.98122  1.0000
  H   H158      1.0  0.20995  0.45458  0.12044  1.0000
  H   H159      1.0  0.40093  0.27346  0.13937  1.0000
  H   H160      1.0  0.47353  0.38263  0.15110  1.0000
  C   C126      1.0  0.25411  0.32284  0.12483  1.0000
  H   H161      1.0  0.23211  0.32488  0.15113  1.0000
  C   C127      1.0  0.34465  0.26704  0.99698  1.0000
  H   H162      1.0  0.08445  0.33310  0.11993  1.0000
  C   C128      1.0  0.38903  0.23654  0.99722  1.0000
  H   H163      1.0  0.20351  0.44518  0.10939  1.0000
  S   S66       1.0  0.40221  0.27278  0.00311  1.0000
  C   C129      1.0  0.39546  0.26110  0.99542  1.0000
  H   H164      1.0  0.38404  0.02191  0.14895  1.0000
  H   H165      1.0  0.07620  0.33938  0.10290  1.0000
  H   H166      1.0  0.24600  0.41909  0.15316  1.0000
  H   H167      1.0  0.06530  0.35493  0.13079  1.0000
  C   C130      1.0  0.15485  0.43851  0.00284  1.0000
  C   C131      1.0  0.30760  0.12176  0.17375  1.0000
  H   H168      1.0  0.21374  0.46066  0.09977  1.0000
  C   C132      1.0  0.48800  0.25195  0.98114  1.0000
  C   C133      1.0  0.32250  0.98812  0.15238  1.0000
  C   C134      1.0  0.19270  0.48354  0.11099  1.0000
  H   H169      1.0  0.46011  0.42415  0.13233  1.0000
  N   N7        1.0  0.32680  0.11486  0.01888  1.0000
  C   C135      1.0  0.31612  0.12937  0.02282  1.0000
  C   C136      1.0  0.32364  0.11213  0.00498  1.0000
  C   C137      1.0  0.32423  0.10159  0.03218  1.0000
  C   C138      1.0  0.34319  0.11642  0.01556  1.0000
  H   H170      1.0  0.31811  0.13174  0.03330  1.0000
  H   H171      1.0  0.30364  0.12868  0.02535  1.0000
  H   H172      1.0  0.31787  0.13965  0.01313  1.0000
  H   H173      1.0  0.33128  0.10115  0.00177  1.0000
  H   H174      1.0  0.31125  0.11127  0.00689  1.0000
  H   H175      1.0  0.32570  0.12183  0.99466  1.0000
  H   H176      1.0  0.32676  0.10321  0.04278  1.0000
  H   H177      1.0  0.33197  0.09040  0.02959  1.0000
  H   H178      1.0  0.31189  0.10027  0.03522  1.0000
  H   H179      1.0  0.34596  0.11850  0.02583  1.0000
  H   H180      1.0  0.34549  0.12641  0.00567  1.0000
  H   H181      1.0  0.35160  0.10568  0.01256  1.0000
  N   N8        1.0  0.29542  0.13558  0.11526  1.0000
  C   C139      1.0  0.30556  0.13350  0.12611  1.0000
  C   C140      1.0  0.30447  0.13893  0.09902  1.0000
  C   C141      1.0  0.28186  0.14872  0.11771  1.0000
  C   C142      1.0  0.28981  0.12112  0.11821  1.0000
  H   H182      1.0  0.29910  0.13092  0.13847  1.0000
  H   H183      1.0  0.31010  0.14415  0.12416  1.0000
  H   H184      1.0  0.31587  0.12360  0.12456  1.0000
  H   H185      1.0  0.29722  0.14040  0.09051  1.0000
  H   H186      1.0  0.30866  0.14993  0.09630  1.0000
  H   H187      1.0  0.31489  0.12932  0.09675  1.0000
  H   H188      1.0  0.27435  0.15100  0.10922  1.0000
  H   H189      1.0  0.28570  0.15973  0.11603  1.0000
  H   H190      1.0  0.27442  0.14639  0.12964  1.0000
  H   H191      1.0  0.28257  0.12194  0.10991  1.0000
  H   H192      1.0  0.28263  0.11835  0.13022  1.0000
  H   H193      1.0  0.29979  0.11094  0.11692  1.0000
  C   C143      1.0  0.18637  0.43901  0.98946  1.0000
  H   H194      1.0  0.37998  0.40138  0.12994  1.0000
  C   C144      1.0  0.43386  0.26663  0.02782  1.0000
  C   C145      1.0  0.26878  0.39282  0.15382  1.0000
  C   C146      1.0  0.46233  0.41340  0.14153  1.0000
  H   H195      1.0  0.31144  0.17437  0.16801  1.0000
  H   H196      1.0  0.48515  0.17803  0.09711  1.0000
  H   H197      1.0  0.19849  0.43937  0.98404  1.0000
  H   H198      1.0  0.35642  0.43197  0.12060  1.0000
  C   C147      1.0  0.31907  0.98617  0.12767  1.0000
  C   C148      1.0  0.35560  0.02021  0.16732  1.0000
  H   H199      1.0  0.06430  0.37464  0.11974  1.0000
  H   H200      1.0  0.31090  0.00807  0.11271  1.0000
  Fe  Fe34      1.0  0.30211  0.07264  0.16363  1.0000
  H   H201      1.0  0.23441  0.30649  0.14632  1.0000
  C   C149      1.0  0.31734  0.00439  0.14859  1.0000
  H   H202      1.0  0.21515  0.46089  0.01295  1.0000
  H   H203      1.0  0.39695  0.24158  0.01503  1.0000
  H   H204      1.0  0.23229  0.34896  0.13026  1.0000
  H   H205      1.0  0.23552  0.34787  0.11028  1.0000
  H   H206      1.0  0.99316  0.33114  0.16197  1.0000
  C   C150      1.0  0.35250  0.42261  0.13048  1.0000
  H   H207      1.0  0.05604  0.39399  0.97863  1.0000
  H   H208      1.0  0.45421  0.40604  0.14197  1.0000
  H   H209      1.0  0.33958  0.42640  0.13455  1.0000
  N   N9        1.0  0.33732  0.28326  0.99033  1.0000
  H   H210      1.0  0.27815  0.19467  0.14814  1.0000
  S   S67       1.0  0.35894  0.06449  0.14390  1.0000
  S   S68       1.0  0.18805  0.47229  0.04139  1.0000
  C   C151      1.0  0.35885  0.02039  0.14021  1.0000
  N   N10       1.0  0.36402  0.01172  0.15477  1.0000
  H   H211      1.0  0.24739  0.37874  0.15118  1.0000
  H   H212      1.0  0.30568  0.10562  0.16153  1.0000
  S   S69       1.0  0.47773  0.21149  0.08999  1.0000
  H   H213      1.0  0.19158  0.47255  0.08675  1.0000
  H   H214      1.0  0.35802  0.42186  0.14017  1.0000
  C   C152      1.0  0.09339  0.37878  0.98383  1.0000
  H   H215      1.0  0.41044  0.26662  0.10646  1.0000
  H   H216      1.0  0.29747  0.18224  0.14601  1.0000
  Fe  Fe35      1.0  0.33448  0.06448  0.14338  1.0000
  C   C153      1.0  0.23032  0.34260  0.12247  1.0000
  C   C154      1.0  0.21168  0.28728  0.16456  1.0000
  S   S70       1.0  0.25494  0.46555  0.08039  1.0000
  H   H217      1.0  0.44191  0.25573  0.02481  1.0000
  S   S71       1.0  0.48778  0.34214  0.07514  1.0000
  N   N11       1.0  0.22249  0.48195  0.99932  1.0000
  H   H218      1.0  0.32322  0.34606  0.05443  1.0000
  H   H219      1.0  0.40430  0.28748  0.12124  1.0000
  H   H220      1.0  0.27778  0.15394  0.01603  1.0000
  C   C155      1.0  0.48110  0.39052  0.15064  1.0000
  C   C156      1.0  0.45545  0.27936  0.02152  1.0000
  H   H221      1.0  0.35172  0.26064  0.98770  1.0000
  H   H222      1.0  0.34775  0.99672  0.16129  1.0000
  C   C157      1.0  0.30687  0.16380  0.98519  1.0000
  H   H223      1.0  0.43171  0.20459  0.97933  1.0000
  C   C158      1.0  0.30317  0.10863  0.17266  1.0000
  C   C159      1.0  0.17798  0.44792  0.00049  1.0000
  H   H224      1.0  0.25934  0.99939  0.13971  1.0000
  H   H225      1.0  0.09301  0.37160  0.11667  1.0000
  H   H226      1.0  0.33097  0.18855  0.98965  1.0000
  C   C160      1.0  0.09426  0.41976  0.99205  1.0000
  H   H227      1.0  0.27005  0.40114  0.14227  1.0000
  C   C161      1.0  0.37047  0.06869  0.16687  1.0000
  H   H228      1.0  0.08420  0.42989  0.99340  1.0000
  N   N12       1.0  0.33808  0.21040  0.98400  1.0000
  S   S72       1.0  0.31399  0.22769  0.15960  1.0000
  H   H229      1.0  0.43009  0.28284  0.99905  1.0000
  H   H230      1.0  0.33526  0.29142  0.01081  1.0000
  N   N13       1.0  0.15195  0.39899  0.04050  1.0000
  C   C162      1.0  0.16004  0.38450  0.04968  1.0000
  C   C163      1.0  0.15854  0.41221  0.03999  1.0000
  C   C164      1.0  0.13513  0.40221  0.04790  1.0000
  C   C165      1.0  0.15389  0.39713  0.02449  1.0000
  H   H231      1.0  0.15544  0.37428  0.05004  1.0000
  H   H232      1.0  0.15826  0.38532  0.06199  1.0000
  H   H233      1.0  0.19128  0.41586  0.16187  1.0000
  H   H234      1.0  0.15752  0.41369  0.05192  1.0000
  S   S73       1.0  0.32241  0.05253  0.16642  1.0000
  C   C166      1.0  0.40144  0.26117  0.11567  1.0000
  C   C167      1.0  0.34972  0.29161  0.98075  1.0000
  H   H235      1.0  0.35314  0.41763  0.10247  1.0000
  H   H236      1.0  0.26923  0.17606  0.17298  1.0000
  H   H237      1.0  0.35399  0.21319  0.99604  1.0000
  H   H238      1.0  0.34562  0.18868  0.99938  1.0000
  H   H239      1.0  0.37144  0.29320  0.11484  1.0000
  H   H240      1.0  0.17110  0.41066  0.03388  1.0000
  H   H241      1.0  0.35365  0.38401  0.13601  1.0000
  H   H242      1.0  0.23843  0.30493  0.11901  1.0000
  H   H243      1.0  0.25935  0.31013  0.12809  1.0000
  H   H244      1.0  0.33343  0.36892  0.06695  1.0000
  H   H245      1.0  0.38208  0.25660  0.14367  1.0000
  N   N14       1.0  0.18993  0.46825  0.11130  1.0000
  H   H246      1.0  0.21689  0.32133  0.14460  1.0000
  H   H247      1.0  0.38991  0.29060  0.10124  1.0000
  H   H248      1.0  0.23901  0.32217  0.10372  1.0000
  H   H249      1.0  0.31065  0.36299  0.06119  1.0000
  S   S74       1.0  0.24820  0.45216  0.15056  1.0000
  C   C168      1.0  0.23369  0.31777  0.11614  1.0000
  C   C169      1.0  0.31576  0.35035  0.06500  1.0000
  Fe  Fe36      1.0  0.47357  0.36180  0.12435  1.0000
  H   H250      1.0  0.32143  0.35112  0.09991  1.0000
  C   C170      1.0  0.31488  0.35361  0.09056  1.0000
  N   N15       1.0  0.38875  0.27308  0.12249  1.0000
  C   C171      1.0  0.39535  0.28151  0.12988  1.0000
  N   N16       1.0  0.32501  0.34769  0.07680  1.0000
  Fe  Fe37      1.0  0.29618  0.24574  0.14775  1.0000
  C   C172      1.0  0.16237  0.44728  0.00759  1.0000
  C   C173      1.0  0.37688  0.26537  0.13429  1.0000
  C   C174      1.0  0.33792  0.35606  0.07003  1.0000
  H   H251      1.0  0.34557  0.35392  0.07830  1.0000
  C   C175      1.0  0.30341  0.18468  0.17231  1.0000
  S   S75       1.0  0.28171  0.26744  0.15575  1.0000
  H   H252      1.0  0.34543  0.35239  0.05925  1.0000
  H   H253      1.0  0.37738  0.39151  0.11688  1.0000
  H   H254      1.0  0.37844  0.41169  0.11037  1.0000
  H   H255      1.0  0.33872  0.28065  0.14685  1.0000
  H   H256      1.0  0.25712  0.32864  0.13244  1.0000
  S   S76       1.0  0.00714  0.35678  0.15064  1.0000
  N   N17       1.0  0.23699  0.32566  0.12656  1.0000
  H   H257      1.0  0.33858  0.32577  0.07136  1.0000
  H   H258      1.0  0.33909  0.32831  0.08993  1.0000
  C   C176      1.0  0.33144  0.33076  0.08156  1.0000
  S   S77       1.0  0.21304  0.43609  0.14925  1.0000
  C   C177      1.0  0.06668  0.36227  0.11876  1.0000
  C   C178      1.0  0.34306  0.21969  0.99189  1.0000
  C   C179      1.0  0.47441  0.24625  0.98833  1.0000
  H   H259      1.0  0.22458  0.46914  0.02251  1.0000
  S   S78       1.0  0.47122  0.24539  0.05446  1.0000
  Fe  Fe38      1.0  0.24902  0.47465  0.13275  1.0000
  H   H260      1.0  0.29481  0.20247  0.14604  1.0000
  N   N18       1.0  0.35666  0.40748  0.12580  1.0000
  C   C180      1.0  0.08510  0.34102  0.10820  1.0000
  H   H261      1.0  0.36653  0.98931  0.14994  1.0000
  H   H262      1.0  0.00722  0.31297  0.16333  1.0000
  S   S79       1.0  0.15317  0.42217  0.98271  1.0000
  H   H263      1.0  0.19127  0.30619  0.16319  1.0000
  H   H264      1.0  0.34556  0.23077  0.98397  1.0000
  C   C181      1.0  0.23142  0.46529  0.06731  1.0000
  H   H265      1.0  0.27412  0.38085  0.15172  1.0000
  H   H266      1.0  0.38524  0.00381  0.16329  1.0000
  C   C182      1.0  0.32794  0.29122  0.00305  1.0000
  C   C183      1.0  0.39389  0.24606  0.00377  1.0000
  H   H267      1.0  0.38850  0.22467  0.00336  1.0000
  H   H268      1.0  0.28072  0.13341  0.00180  1.0000
  H   H269      1.0  0.43726  0.22920  0.98110  1.0000
  H   H270      1.0  0.35149  0.39763  0.10949  1.0000
  H   H271      1.0  0.41722  0.29600  0.02090  1.0000
  C   C184      1.0  0.34361  0.08174  0.16600  1.0000
  H   H272      1.0  0.48151  0.41099  0.11334  1.0000
  C   C185      1.0  0.42899  0.29470  0.02309  1.0000
  H   H273      1.0  0.47906  0.23547  0.02576  1.0000
  S   S80       1.0  0.00133  0.37966  0.17432  1.0000
  H   H274      1.0  0.05733  0.36135  0.11362  1.0000
  C   C186      1.0  0.29898  0.14133  0.98299  1.0000
  H   H275      1.0  0.31728  0.27717  0.98748  1.0000
  H   H276      1.0  0.36083  0.03250  0.13676  1.0000
  H   H277      1.0  0.21740  0.34503  0.12358  1.0000
  C   C187      1.0  0.28814  0.14179  0.99721  1.0000
  N   N19       1.0  0.43997  0.28057  0.01855  1.0000
  H   H278      1.0  0.46413  0.26905  0.01789  1.0000
  H   H279      1.0  0.36521  0.01449  0.13039  1.0000
  H   H280      1.0  0.38143  0.06144  0.16215  1.0000
  H   H281      1.0  0.35733  0.39345  0.14888  1.0000
  H   H282      1.0  0.45906  0.41690  0.15292  1.0000
  H   H283      1.0  0.23048  0.39272  0.15833  1.0000
  C   C188      1.0  0.28965  0.19197  0.15142  1.0000
  H   H284      1.0  0.09392  0.35206  0.12820  1.0000
  S   S81       1.0  0.48950  0.27371  0.04789  1.0000
  H   H285      1.0  0.32232  0.30352  0.99843  1.0000
  H   H286      1.0  0.10651  0.35555  0.10920  1.0000
  Fe  Fe39      1.0  0.16230  0.35295  0.16615  1.0000
  H   H287      1.0  0.27592  0.39541  0.16049  1.0000
  H   H288      1.0  0.38777  0.00364  0.14318  1.0000
  C   C189      1.0  0.35124  0.39545  0.13927  1.0000
  C   C190      1.0  0.44159  0.28160  0.00180  1.0000
  C   C191      1.0  0.25739  0.98866  0.14876  1.0000
  H   H289      1.0  0.26551  0.20388  0.17278  1.0000
  H   H290      1.0  0.34613  0.02124  0.14155  1.0000
  H   H291      1.0  0.32568  0.19833  0.00548  1.0000
  C   C192      1.0  0.32692  0.28314  0.98057  1.0000
  H   H292      1.0  0.09744  0.41496  0.00357  1.0000
  N   N20       1.0  0.28789  0.18794  0.16853  1.0000
  Fe  Fe40      1.0  0.16343  0.48223  0.05286  1.0000
  H   H293      1.0  0.24436  0.39878  0.14096  1.0000
  H   H294      1.0  0.35769  0.03226  0.16424  1.0000
  H   H295      1.0  0.34276  0.02114  0.16969  1.0000
  H   H296      1.0  0.25251  0.41380  0.17100  1.0000
  H   H297      1.0  0.28859  0.16378  0.17037  1.0000
  C   C193      1.0  0.24321  0.39097  0.15277  1.0000
  C   C194      1.0  0.38529  0.24225  0.98256  1.0000
  H   H298      1.0  0.31385  0.22228  0.98850  1.0000
  H   H299      1.0  0.36393  0.15019  0.17125  1.0000
  C   C195      1.0  0.99486  0.31853  0.16249  1.0000
  N   N21       1.0  0.25218  0.39441  0.16213  1.0000
  H   H300      1.0  0.15904  0.48338  0.99613  1.0000
  H   H301      1.0  0.25047  0.99240  0.15972  1.0000
  H   H302      1.0  0.99324  0.31763  0.15117  1.0000
  H   H303      1.0  0.30910  0.19481  0.16698  1.0000
  C   C196      1.0  0.11294  0.43612  0.98437  1.0000
  H   H304      1.0  0.37751  0.12268  0.17146  1.0000
  H   H305      1.0  0.27552  0.18702  0.98061  1.0000
  H   H306      1.0  0.47822  0.39330  0.16233  1.0000
  Fe  Fe41      1.0  0.00094  0.35488  0.17636  1.0000
  H   H307      1.0  0.13004  0.36616  0.17405  1.0000
  H   H308      1.0  0.17221  0.47884  0.09780  1.0000
  H   H309      1.0  0.21108  0.28662  0.17669  1.0000
  H   H310      1.0  0.04975  0.39329  0.17469  1.0000
  H   H311      1.0  0.48707  0.41801  0.14929  1.0000
  C   C197      1.0  0.48930  0.41477  0.13789  1.0000
  H   H312      1.0  0.25592  0.37108  0.17613  1.0000
  H   H313      1.0  0.10329  0.44650  0.98610  1.0000
  H   H314      1.0  0.24700  0.48221  0.99356  1.0000
  Fe  Fe42      1.0  0.49035  0.34813  0.09629  1.0000
  H   H315      1.0  0.34529  0.14469  0.17688  1.0000
  C   C198      1.0  0.12068  0.41043  0.97866  1.0000
  H   H316      1.0  0.41820  0.23954  0.97795  1.0000
  S   S82       1.0  0.46077  0.24724  0.97760  1.0000
  H   H317      1.0  0.19727  0.48304  0.12125  1.0000
  H   H318      1.0  0.99816  0.28839  0.17722  1.0000
  Fe  Fe43      1.0  0.37490  0.12562  0.31877  1.0000
  S   S83       1.0  0.37178  0.10267  0.33494  1.0000
  S   S84       1.0  0.35595  0.14178  0.30686  1.0000
  Fe  Fe44      1.0  0.40684  0.12283  0.32504  1.0000
  S   S85       1.0  0.40652  0.09964  0.34150  1.0000
  S   S86       1.0  0.42635  0.13561  0.31880  1.0000
  Fe  Fe45      1.0  0.39701  0.09430  0.32402  1.0000
  S   S87       1.0  0.40621  0.07104  0.31763  1.0000
  Fe  Fe46      1.0  0.38146  0.11023  0.35095  1.0000
  H   H319      1.0  0.10417  0.33560  0.21868  1.0000
  S   S88       1.0  0.39944  0.11662  0.30651  1.0000
  S   S89       1.0  0.38246  0.13401  0.33581  1.0000
  H   H320      1.0  0.43711  0.07366  0.29004  1.0000
  H   H321      1.0  0.41020  0.04601  0.26993  1.0000
  S   S90       1.0  0.47623  0.11759  0.36078  1.0000
  Fe  Fe47      1.0  0.06152  0.44881  0.31422  1.0000
  S   S91       1.0  0.04455  0.43972  0.33562  1.0000
  S   S92       1.0  0.07571  0.43550  0.29560  1.0000
  H   H322      1.0  0.37936  0.12228  0.20468  1.0000
  S   S93       1.0  0.03735  0.47411  0.34458  1.0000
  Fe  Fe48      1.0  0.05482  0.45124  0.34783  1.0000
  H   H323      1.0  0.08035  0.99077  0.37232  1.0000
  Fe  Fe49      1.0  0.02893  0.46344  0.32999  1.0000
  Fe  Fe50      1.0  0.05482  0.48069  0.32267  1.0000
  S   S94       1.0  0.07302  0.45865  0.32685  1.0000
  S   S95       1.0  0.04519  0.47170  0.30776  1.0000
  Fe  Fe51      1.0  0.30676  0.14512  0.21369  1.0000
  S   S96       1.0  0.28382  0.15550  0.22801  1.0000
  S   S97       1.0  0.31038  0.14210  0.18928  1.0000
  Fe  Fe52      1.0  0.32545  0.14460  0.23689  1.0000
  S   S98       1.0  0.30421  0.15550  0.25279  1.0000
  S   S99       1.0  0.34963  0.13534  0.24195  1.0000
  Fe  Fe53      1.0  0.29278  0.13888  0.24844  1.0000
  S   S100      1.0  0.28083  0.12453  0.27016  1.0000
  Fe  Fe54      1.0  0.29740  0.17110  0.23100  1.0000
  S   S101      1.0  0.28601  0.19661  0.22847  1.0000
  S   S102      1.0  0.31443  0.12693  0.23381  1.0000
  S   S103      1.0  0.31978  0.16182  0.21533  1.0000
  Fe  Fe55      1.0  0.37960  0.07174  0.24778  1.0000
  S   S104      1.0  0.37294  0.09498  0.23217  1.0000
  S   S105      1.0  0.36826  0.06448  0.27289  1.0000
  Fe  Fe56      1.0  0.40165  0.05757  0.22159  1.0000
  S   S106      1.0  0.39714  0.07933  0.20327  1.0000
  S   S107      1.0  0.41606  0.03428  0.21776  1.0000
  Fe  Fe57      1.0  0.39851  0.09129  0.22103  1.0000
  S   S108      1.0  0.41128  0.11072  0.21209  1.0000
  Fe  Fe58      1.0  0.37202  0.08121  0.21576  1.0000
  S   S109      1.0  0.35137  0.08806  0.20470  1.0000
  S   S110      1.0  0.40548  0.06923  0.23829  1.0000
  S   S111      1.0  0.37626  0.05835  0.23242  1.0000
  H   H324      1.0  0.47604  0.06059  0.20072  1.0000
  H   H325      1.0  0.99204  0.35824  0.20803  1.0000
  H   H326      1.0  0.01266  0.40128  0.20410  1.0000
  H   H327      1.0  0.44363  0.10469  0.19673  1.0000
  H   H328      1.0  0.04841  0.45138  0.28454  1.0000
  C   C199      1.0  0.30669  0.22116  0.17954  1.0000
  C   C200      1.0  0.11534  0.30547  0.21684  1.0000
  C   C201      1.0  0.10871  0.37239  0.19080  1.0000
  Fe  Fe59      1.0  0.05546  0.37074  0.27015  1.0000
  S   S112      1.0  0.07987  0.36016  0.25860  1.0000
  S   S113      1.0  0.04628  0.38264  0.29039  1.0000
  Fe  Fe60      1.0  0.04003  0.35834  0.25199  1.0000
  S   S114      1.0  0.06292  0.34635  0.23911  1.0000
  S   S115      1.0  0.01583  0.36121  0.24848  1.0000
  Fe  Fe61      1.0  0.07009  0.33910  0.26209  1.0000
  S   S116      1.0  0.08496  0.31532  0.26966  1.0000
  Fe  Fe62      1.0  0.07075  0.36822  0.23657  1.0000
  S   S117      1.0  0.08145  0.37919  0.21215  1.0000
  S   S118      1.0  0.04637  0.34908  0.27525  1.0000
  S   S119      1.0  0.04732  0.38082  0.24779  1.0000
  C   C202      1.0  0.34913  0.12607  0.20428  1.0000
  C   C203      1.0  0.43771  0.08554  0.29042  1.0000
  S   S120      1.0  0.09118  0.05514  0.35084  1.0000
  H   H329      1.0  0.03636  0.32653  0.21149  1.0000
  H   H330      1.0  0.12745  0.26119  0.36308  1.0000
  S   S121      1.0  0.11564  0.01104  0.34343  1.0000
  Fe  Fe63      1.0  0.10925  0.06432  0.35615  1.0000
  S   S122      1.0  0.11487  0.08793  0.34405  1.0000
  Fe  Fe64      1.0  0.21184  0.12902  0.34939  1.0000
  C   C204      1.0  0.07891  0.98544  0.34347  1.0000
  Fe  Fe65      1.0  0.18855  0.11692  0.33985  1.0000
  S   S123      1.0  0.17689  0.14088  0.32875  1.0000
  H   H331      1.0  0.03863  0.48100  0.26123  1.0000
  C   C205      1.0  0.40813  0.00782  0.27979  1.0000
  S   S124      1.0  0.20202  0.15414  0.33951  1.0000
  Fe  Fe66      1.0  0.17857  0.14777  0.34983  1.0000
  H   H332      1.0  0.03321  0.38498  0.17750  1.0000
  Fe  Fe67      1.0  0.20133  0.14513  0.31927  1.0000
  S   S125      1.0  0.21032  0.15657  0.29437  1.0000
  H   H333      1.0  0.27411  0.17922  0.36326  1.0000
  C   C206      1.0  0.09357  0.46033  0.35951  1.0000
  S   S126      1.0  0.09080  0.26092  0.34958  1.0000
  H   H334      1.0  0.41083  0.00295  0.22675  1.0000
  S   S127      1.0  0.08155  0.23268  0.33975  1.0000
  H   H335      1.0  0.40506  0.11506  0.36594  1.0000
  Fe  Fe68      1.0  0.10198  0.23637  0.34641  1.0000
  H   H336      1.0  0.13296  0.32661  0.20951  1.0000
  Fe  Fe69      1.0  0.06965  0.25628  0.34523  1.0000
  S   S128      1.0  0.05289  0.27540  0.33288  1.0000
  H   H337      1.0  0.31667  0.03243  0.20789  1.0000
  H   H338      1.0  0.30177  0.04413  0.22012  1.0000
  H   H339      1.0  0.46657  0.98967  0.19718  1.0000
  C   C207      1.0  0.07547  0.00181  0.34078  1.0000
  H   H340      1.0  0.29076  0.16540  0.36944  1.0000
  S   S129      1.0  0.47483  0.13714  0.23397  1.0000
  C   C208      1.0  0.37991  0.02978  0.20355  1.0000
  C   C209      1.0  0.04576  0.20867  0.35687  1.0000
  C   C210      1.0  0.03496  0.20542  0.35053  1.0000
  C   C211      1.0  0.02959  0.19152  0.35676  1.0000
  H   H341      1.0  0.04102  0.08781  0.34244  1.0000
  H   H342      1.0  0.48306  0.07819  0.19137  1.0000
  H   H343      1.0  0.04986  0.21940  0.35198  1.0000
  H   H344      1.0  0.03080  0.21367  0.34073  1.0000
  H   H345      1.0  0.45110  0.10858  0.28915  1.0000
  H   H346      1.0  0.46595  0.06576  0.29086  1.0000
  C   C212      1.0  0.14885  0.17883  0.35475  1.0000
  H   H347      1.0  0.42158  0.01371  0.24894  1.0000
  C   C213      1.0  0.12591  0.19973  0.35163  1.0000
  C   C214      1.0  0.13539  0.20953  0.34122  1.0000
  C   C215      1.0  0.12473  0.36586  0.18624  1.0000
  C   C216      1.0  0.15831  0.18831  0.34371  1.0000
  H   H348      1.0  0.46272  0.07185  0.22435  1.0000
  H   H349      1.0  0.23859  0.38423  0.18393  1.0000
  H   H350      1.0  0.37858  0.07068  0.18609  1.0000
  H   H351      1.0  0.11476  0.31351  0.20526  1.0000
  H   H352      1.0  0.43307  0.08013  0.32163  1.0000
  N   N22       1.0  0.04628  0.45662  0.26076  1.0000
  H   H353      1.0  0.05343  0.99247  0.37007  1.0000
  H   H354      1.0  0.48801  0.02373  0.25572  1.0000
  H   H355      1.0  0.40006  0.03552  0.28768  1.0000
  H   H356      1.0  0.34984  0.15533  0.18820  1.0000
  S   S130      1.0  0.15357  0.34970  0.19213  1.0000
  H   H357      1.0  0.39222  0.04776  0.20036  1.0000
  C   C217      1.0  0.13384  0.08952  0.34371  1.0000
  C   C218      1.0  0.14440  0.07672  0.35022  1.0000
  H   H358      1.0  0.05406  0.47661  0.24489  1.0000
  C   C219      1.0  0.16409  0.09229  0.34303  1.0000
  C   C220      1.0  0.15351  0.10521  0.33665  1.0000
  C   C221      1.0  0.13842  0.10380  0.33694  1.0000
  C   C222      1.0  0.39429  0.02917  0.26301  1.0000
  H   H359      1.0  0.99266  0.36797  0.23051  1.0000
  H   H360      1.0  0.15703  0.11620  0.33129  1.0000
  H   H361      1.0  0.13036  0.11374  0.33177  1.0000
  H   H362      1.0  0.35144  0.12920  0.35943  1.0000
  H   H363      1.0  0.43657  0.10633  0.30679  1.0000
  C   C223      1.0  0.10140  0.00135  0.34342  1.0000
  H   H364      1.0  0.12014  0.30800  0.25151  1.0000
  H   H365      1.0  0.28364  0.23607  0.17999  1.0000
  H   H366      1.0  0.46408  0.10384  0.18884  1.0000
  C   C224      1.0  0.40285  0.02604  0.21376  1.0000
  C   C225      1.0  0.07599  0.30401  0.28707  1.0000
  C   C226      1.0  0.05974  0.30747  0.29253  1.0000
  C   C227      1.0  0.05275  0.29858  0.30656  1.0000
  C   C228      1.0  0.06195  0.28609  0.31516  1.0000
  C   C229      1.0  0.07820  0.28241  0.30960  1.0000
  C   C230      1.0  0.08519  0.29135  0.29555  1.0000
  H   H367      1.0  0.05248  0.31676  0.28580  1.0000
  H   H368      1.0  0.04016  0.30131  0.31068  1.0000
  H   H369      1.0  0.08537  0.27266  0.31607  1.0000
  H   H370      1.0  0.09775  0.28850  0.29133  1.0000
  C   C231      1.0  0.13377  0.35887  0.19747  1.0000
  C   C232      1.0  0.12680  0.35860  0.21322  1.0000
  C   C233      1.0  0.11074  0.36490  0.21780  1.0000
  C   C234      1.0  0.10166  0.37173  0.20659  1.0000
  C   C235      1.0  0.34206  0.08700  0.17943  1.0000
  S   S131      1.0  0.00587  0.43419  0.27645  1.0000
  H   H371      1.0  0.13383  0.35348  0.22190  1.0000
  H   H372      1.0  0.10544  0.36464  0.22997  1.0000
  H   H373      1.0  0.06600  0.44885  0.24318  1.0000
  H   H374      1.0  0.99240  0.10944  0.31824  1.0000
  H   H375      1.0  0.30743  0.06698  0.22544  1.0000
  H   H376      1.0  0.43359  0.01649  0.26001  1.0000
  C   C236      1.0  0.01511  0.35314  0.23344  1.0000
  C   C237      1.0  0.02741  0.34143  0.22806  1.0000
  C   C238      1.0  0.02686  0.33562  0.21559  1.0000
  N   N23       1.0  0.08522  0.47638  0.36116  1.0000
  C   C239      1.0  0.43679  0.98657  0.20521  1.0000
  H   H377      1.0  0.03723  0.33667  0.23366  1.0000
  C   C240      1.0  0.00222  0.35892  0.22639  1.0000
  C   C241      1.0  0.10508  0.32697  0.22987  1.0000
  S   S132      1.0  0.23296  0.11923  0.36008  1.0000
  N   N24       1.0  0.11806  0.31328  0.22766  1.0000
  H   H378      1.0  0.44952  0.09069  0.22228  1.0000
  C   C242      1.0  0.35454  0.08282  0.18686  1.0000
  H   H379      1.0  0.44088  0.09209  0.27820  1.0000
  H   H380      1.0  0.34399  0.13478  0.21167  1.0000
  H   H381      1.0  0.46813  0.08469  0.27955  1.0000
  C   C243      1.0  0.48990  0.04206  0.23503  1.0000
  H   H382      1.0  0.20927  0.09401  0.35386  1.0000
  H   H383      1.0  0.07646  0.36300  0.37478  1.0000
  H   H384      1.0  0.06324  0.47365  0.35922  1.0000
  H   H385      1.0  0.03804  0.43951  0.28049  1.0000
  H   H386      1.0  0.42105  0.03010  0.28204  1.0000
  C   C244      1.0  0.41771  0.11476  0.22658  1.0000
  C   C245      1.0  0.41130  0.10968  0.24240  1.0000
  C   C246      1.0  0.41687  0.11288  0.25378  1.0000
  C   C247      1.0  0.42905  0.12084  0.24929  1.0000
  C   C248      1.0  0.43545  0.12583  0.23349  1.0000
  C   C249      1.0  0.42962  0.12302  0.22216  1.0000
  H   H387      1.0  0.40200  0.10340  0.24585  1.0000
  H   H388      1.0  0.41193  0.10898  0.26600  1.0000
  H   H389      1.0  0.44483  0.13201  0.22993  1.0000
  H   H390      1.0  0.43457  0.12705  0.20995  1.0000
  C   C250      1.0  0.26124  0.13347  0.27669  1.0000
  C   C251      1.0  0.25512  0.13229  0.29269  1.0000
  C   C252      1.0  0.23953  0.13950  0.29813  1.0000
  C   C253      1.0  0.22986  0.14749  0.28764  1.0000
  C   C254      1.0  0.23596  0.14857  0.27163  1.0000
  C   C255      1.0  0.25170  0.14173  0.26613  1.0000
  H   H391      1.0  0.26248  0.12597  0.30089  1.0000
  H   H392      1.0  0.23506  0.13898  0.31046  1.0000
  H   H393      1.0  0.22841  0.15451  0.26352  1.0000
  H   H394      1.0  0.25632  0.14243  0.25378  1.0000
  C   C256      1.0  0.30454  0.12572  0.18820  1.0000
  H   H395      1.0  0.40666  0.99939  0.27385  1.0000
  H   H396      1.0  0.04193  0.36433  0.19931  1.0000
  C   C257      1.0  0.34623  0.12823  0.37173  1.0000
  C   C258      1.0  0.29221  0.10363  0.20038  1.0000
  C   C259      1.0  0.29679  0.11667  0.20152  1.0000
  H   H397      1.0  0.38366  0.03044  0.27257  1.0000
  C   C260      1.0  0.08659  0.00974  0.34095  1.0000
  H   H398      1.0  0.28618  0.09668  0.21071  1.0000
  H   H399      1.0  0.29427  0.11972  0.21270  1.0000
  C   C261      1.0  0.01142  0.43608  0.30344  1.0000
  H   H400      1.0  0.08610  0.31056  0.36891  1.0000
  C   C262      1.0  0.28488  0.21968  0.20196  1.0000
  C   C263      1.0  0.29430  0.20713  0.21029  1.0000
  C   C264      1.0  0.31013  0.20234  0.20358  1.0000
  H   H401      1.0  0.28518  0.13720  0.36186  1.0000
  S   S133      1.0  0.47131  0.10067  0.24175  1.0000
  H   H402      1.0  0.27267  0.22361  0.20717  1.0000
  H   H403      1.0  0.31768  0.19338  0.21029  1.0000
  H   H404      1.0  0.02362  0.30010  0.35573  1.0000
  H   H405      1.0  0.47398  0.07770  0.29785  1.0000
  Fe  Fe70      1.0  0.99201  0.44627  0.25803  1.0000
  C   C265      1.0  0.20670  0.06513  0.37001  1.0000
  C   C266      1.0  0.31630  0.20926  0.18821  1.0000
  H   H406      1.0  0.10776  0.29788  0.24798  1.0000
  S   S134      1.0  0.18294  0.09351  0.34333  1.0000
  H   H407      1.0  0.12491  0.29506  0.21491  1.0000
  Fe  Fe71      1.0  0.46136  0.98540  0.25065  1.0000
  C   C267      1.0  0.03504  0.18088  0.36939  1.0000
  C   C268      1.0  0.06805  0.42029  0.29437  1.0000
  C   C269      1.0  0.07517  0.41212  0.28239  1.0000
  C   C270      1.0  0.06862  0.40050  0.28091  1.0000
  C   C271      1.0  0.05515  0.39686  0.29163  1.0000
  C   C272      1.0  0.04830  0.40478  0.30375  1.0000
  C   C273      1.0  0.05458  0.41660  0.30498  1.0000
  H   H408      1.0  0.08565  0.41487  0.27416  1.0000
  H   H409      1.0  0.07403  0.39431  0.27158  1.0000
  H   H410      1.0  0.03792  0.40193  0.31210  1.0000
  H   H411      1.0  0.04884  0.42291  0.31404  1.0000
  Fe  Fe72      1.0  0.49120  0.09430  0.25365  1.0000
  C   C274      1.0  0.39531  0.06978  0.30523  1.0000
  C   C275      1.0  0.38489  0.05979  0.31064  1.0000
  C   C276      1.0  0.37618  0.05863  0.30076  1.0000
  C   C277      1.0  0.37827  0.06710  0.28534  1.0000
  C   C278      1.0  0.38868  0.07712  0.27989  1.0000
  C   C279      1.0  0.39707  0.07861  0.28992  1.0000
  H   H412      1.0  0.38348  0.05302  0.32250  1.0000
  H   H413      1.0  0.36812  0.05088  0.30498  1.0000
  H   H414      1.0  0.39018  0.08380  0.26801  1.0000
  H   H415      1.0  0.40504  0.08641  0.28575  1.0000
  C   C280      1.0  0.35371  0.13873  0.28952  1.0000
  C   C281      1.0  0.34186  0.14902  0.28238  1.0000
  C   C282      1.0  0.34044  0.14784  0.26792  1.0000
  C   C283      1.0  0.35090  0.13638  0.26044  1.0000
  C   C284      1.0  0.36269  0.12592  0.26764  1.0000
  C   C285      1.0  0.36397  0.12695  0.28228  1.0000
  H   H416      1.0  0.33394  0.15818  0.28790  1.0000
  H   H417      1.0  0.33154  0.15616  0.26234  1.0000
  H   H418      1.0  0.37087  0.11703  0.26189  1.0000
  H   H419      1.0  0.37308  0.11886  0.28777  1.0000
  C   C286      1.0  0.44055  0.12978  0.33018  1.0000
  C   C287      1.0  0.44101  0.11648  0.34230  1.0000
  C   C288      1.0  0.45206  0.11274  0.35160  1.0000
  C   C289      1.0  0.46298  0.12202  0.34855  1.0000
  C   C290      1.0  0.46265  0.13515  0.33627  1.0000
  C   C291      1.0  0.45135  0.13909  0.32725  1.0000
  H   H420      1.0  0.43282  0.10916  0.34462  1.0000
  C   C292      1.0  0.41010  0.03418  0.27756  1.0000
  H   H421      1.0  0.47083  0.14250  0.33410  1.0000
  H   H422      1.0  0.45071  0.14952  0.31812  1.0000
  C   C293      1.0  0.28012  0.13967  0.37370  1.0000
  H   H423      1.0  0.47404  0.14327  0.29844  1.0000
  N   N25       1.0  0.24345  0.19281  0.25894  1.0000
  C   C294      1.0  0.25579  0.18249  0.26705  1.0000
  C   C295      1.0  0.24453  0.18755  0.24472  1.0000
  C   C296      1.0  0.24561  0.20903  0.25460  1.0000
  C   C297      1.0  0.22787  0.19218  0.26936  1.0000
  H   H424      1.0  0.25548  0.18621  0.27772  1.0000
  H   H425      1.0  0.26768  0.18250  0.25939  1.0000
  H   H426      1.0  0.25437  0.17020  0.27072  1.0000
  H   H427      1.0  0.23528  0.19493  0.23839  1.0000
  H   H428      1.0  0.25608  0.18807  0.23652  1.0000
  H   H429      1.0  0.24323  0.17527  0.24754  1.0000
  H   H430      1.0  0.25730  0.20993  0.24683  1.0000
  H   H431      1.0  0.24478  0.21342  0.26504  1.0000
  H   H432      1.0  0.23663  0.21710  0.24826  1.0000
  H   H433      1.0  0.21827  0.19998  0.26372  1.0000
  H   H434      1.0  0.22674  0.19566  0.28041  1.0000
  H   H435      1.0  0.22568  0.18020  0.27262  1.0000
  H   H436      1.0  0.03223  0.44524  0.25413  1.0000
  C   C298      1.0  0.39174  0.03568  0.20536  1.0000
  C   C299      1.0  0.33131  0.13728  0.37655  1.0000
  S   S135      1.0  0.43654  0.12457  0.26323  1.0000
  H   H437      1.0  0.14101  0.06572  0.35557  1.0000
  H   H438      1.0  0.44354  0.07235  0.19341  1.0000
  S   S136      1.0  0.36355  0.00726  0.20896  1.0000
  H   H439      1.0  0.05489  0.40025  0.19684  1.0000
  C   C300      1.0  0.22041  0.08521  0.35435  1.0000
  H   H440      1.0  0.00065  0.36623  0.29933  1.0000
  C   C301      1.0  0.45463  0.09741  0.19121  1.0000
  H   H441      1.0  0.47209  0.07129  0.18211  1.0000
  H   H442      1.0  0.48557  0.14502  0.27892  1.0000
  H   H443      1.0  0.08380  0.02235  0.33891  1.0000
  H   H444      1.0  0.07061  0.12030  0.32801  1.0000
  C   C302      1.0  0.99618  0.39739  0.29543  1.0000
  C   C303      1.0  0.46849  0.17327  0.28169  1.0000
  H   H445      1.0  0.02318  0.46492  0.25600  1.0000
  H   H446      1.0  0.45680  0.00108  0.18185  1.0000
  H   H447      1.0  0.25756  0.38578  0.18481  1.0000
  C   C304      1.0  0.13702  0.99665  0.37463  1.0000
  C   C305      1.0  0.42245  0.02155  0.25592  1.0000
  H   H448      1.0  0.41913  0.00260  0.28414  1.0000
  H   H449      1.0  0.42109  0.11336  0.37455  1.0000
  S   S137      1.0  0.05988  0.24673  0.37038  1.0000
  C   C306      1.0  0.29109  0.22673  0.18657  1.0000
  C   C307      1.0  0.02006  0.38938  0.20659  1.0000
  C   C308      1.0  0.41085  0.14341  0.36096  1.0000
  Fe  Fe73      1.0  0.46237  0.12083  0.25341  1.0000
  H   H450      1.0  0.23788  0.05613  0.35976  1.0000
  H   H451      1.0  0.06943  0.39154  0.37386  1.0000
  H   H452      1.0  0.30794  0.05224  0.19986  1.0000
  C   C309      1.0  0.04011  0.45154  0.27762  1.0000
  H   H453      1.0  0.12162  0.24690  0.35730  1.0000
  H   H454      1.0  0.12928  0.21879  0.36946  1.0000
  H   H455      1.0  0.31924  0.03955  0.23815  1.0000
  H   H456      1.0  0.39818  0.00872  0.29005  1.0000
  C   C310      1.0  0.00351  0.44375  0.29141  1.0000
  C   C311      1.0  0.03460  0.45705  0.25215  1.0000
  H   H457      1.0  0.20939  0.05965  0.35986  1.0000
  H   H458      1.0  0.47925  0.18050  0.30371  1.0000
  H   H459      1.0  0.08164  0.13531  0.33939  1.0000
  H   H460      1.0  0.16740  0.00148  0.34356  1.0000
  H   H461      1.0  0.15895  0.21120  0.32890  1.0000
  H   H462      1.0  0.01269  0.30333  0.37463  1.0000
  H   H463      1.0  0.39314  0.02135  0.25617  1.0000
  H   H464      1.0  0.14842  0.01423  0.34713  1.0000
  C   C312      1.0  0.10500  0.98500  0.34575  1.0000
  H   H465      1.0  0.06212  0.09680  0.36837  1.0000
  H   H466      1.0  0.13180  0.98927  0.37054  1.0000
  H   H467      1.0  0.45760  0.16933  0.28866  1.0000
  H   H468      1.0  0.40807  0.14118  0.35077  1.0000
  C   C313      1.0  0.03936  0.08624  0.35491  1.0000
  C   C314      1.0  0.04605  0.37312  0.20258  1.0000
  C   C315      1.0  0.49056  0.03514  0.25060  1.0000
  H   H469      1.0  0.33099  0.09392  0.18436  1.0000
  H   H470      1.0  0.13645  0.12413  0.35761  1.0000
  N   N26       1.0  0.27071  0.15581  0.37297  1.0000
  C   C316      1.0  0.14125  0.12880  0.36484  1.0000
  H   H471      1.0  0.07577  0.01088  0.37318  1.0000
  S   S138      1.0  0.00408  0.46950  0.32732  1.0000
  Fe  Fe74      1.0  0.48520  0.11624  0.22314  1.0000
  C   C317      1.0  0.13266  0.18455  0.35865  1.0000
  H   H472      1.0  0.04321  0.39332  0.34850  1.0000
  N   N27       1.0  0.39256  0.15952  0.26000  1.0000
  C   C318      1.0  0.40473  0.15730  0.24576  1.0000
  C   C319      1.0  0.39419  0.17258  0.26554  1.0000
  C   C320      1.0  0.39442  0.14513  0.27226  1.0000
  C   C321      1.0  0.37690  0.16301  0.25650  1.0000
  H   H473      1.0  0.41671  0.15443  0.24804  1.0000
  H   H474      1.0  0.40378  0.16796  0.23625  1.0000
  H   H475      1.0  0.40375  0.14753  0.24129  1.0000
  H   H476      1.0  0.39286  0.18369  0.25661  1.0000
  H   H477      1.0  0.38517  0.17446  0.27632  1.0000
  H   H478      1.0  0.40589  0.17020  0.26835  1.0000
  H   H479      1.0  0.40609  0.14213  0.27527  1.0000
  H   H480      1.0  0.39335  0.13499  0.26849  1.0000
  H   H481      1.0  0.38538  0.14634  0.28317  1.0000
  H   H482      1.0  0.36743  0.16449  0.26706  1.0000
  H   H483      1.0  0.37537  0.15340  0.25217  1.0000
  H   H484      1.0  0.37497  0.17390  0.24740  1.0000
  S   S139      1.0  0.48424  0.11690  0.19870  1.0000
  S   S140      1.0  0.15703  0.16008  0.36439  1.0000
  H   H485      1.0  0.15517  0.24695  0.35608  1.0000
  S   S141      1.0  0.00330  0.45771  0.23404  1.0000
  S   S142      1.0  0.06371  0.43939  0.36969  1.0000
  H   H486      1.0  0.01152  0.36521  0.27988  1.0000
  H   H487      1.0  0.45231  0.10255  0.36108  1.0000
  C   C322      1.0  0.32925  0.03962  0.22789  1.0000
  H   H488      1.0  0.35906  0.11677  0.17738  1.0000
  N   N28       1.0  0.15366  0.99600  0.36683  1.0000
  H   H489      1.0  0.44494  0.06312  0.31488  1.0000
  N   N29       1.0  0.36163  0.13114  0.19115  1.0000
  H   H490      1.0  0.01889  0.38580  0.21944  1.0000
  C   C323      1.0  0.23405  0.06220  0.36961  1.0000
  H   H491      1.0  0.47013  0.08913  0.21441  1.0000
  C   C324      1.0  0.46168  0.98894  0.18762  1.0000
  C   C325      1.0  0.15111  0.23581  0.36074  1.0000
  S   S143      1.0  0.47500  0.99696  0.25929  1.0000
  S   S144      1.0  0.01832  0.11409  0.35165  1.0000
  N   N30       1.0  0.06992  0.11673  0.35241  1.0000
  H   H492      1.0  0.16759  0.06804  0.35480  1.0000
  H   H493      1.0  0.99194  0.21942  0.36436  1.0000
  H   H494      1.0  0.06410  0.00839  0.33867  1.0000
  S   S145      1.0  0.01609  0.18778  0.34853  1.0000
  C   C326      1.0  0.06095  0.44546  0.25586  1.0000
  S   S146      1.0  0.09486  0.22562  0.37168  1.0000
  H   H495      1.0  0.06225  0.38469  0.33852  1.0000
  H   H496      1.0  0.10664  0.33311  0.23810  1.0000
  H   H497      1.0  0.43155  0.99888  0.20017  1.0000
  C   C327      1.0  0.00189  0.35346  0.21363  1.0000
  C   C328      1.0  0.13302  0.31843  0.22108  1.0000
  C   C329      1.0  0.36828  0.11913  0.18170  1.0000
  C   C330      1.0  0.15950  0.07805  0.34975  1.0000
  H   H498      1.0  0.32845  0.20517  0.18292  1.0000
  S   S147      1.0  0.12729  0.22938  0.33448  1.0000
  C   C331      1.0  0.02855  0.09741  0.36261  1.0000
  H   H499      1.0  0.42384  0.14025  0.35938  1.0000
  C   C332      1.0  0.05445  0.12745  0.35557  1.0000
  N   N31       1.0  0.45833  0.08177  0.20134  1.0000
  H   H500      1.0  0.38993  0.99237  0.22333  1.0000
  H   H501      1.0  0.10175  0.37775  0.18208  1.0000
  S   S148      1.0  0.01402  0.33525  0.19197  1.0000
  C   C333      1.0  0.08240  0.12525  0.34955  1.0000
  Fe  Fe75      1.0  0.00479  0.16749  0.36159  1.0000
  H   H502      1.0  0.37154  0.03726  0.19685  1.0000
  C   C334      1.0  0.05088  0.30398  0.35798  1.0000
  S   S149      1.0  0.21282  0.12045  0.32841  1.0000
  H   H503      1.0  0.37367  0.10784  0.18868  1.0000
  H   H504      1.0  0.10410  0.30149  0.22145  1.0000
  S   S150      1.0  0.48099  0.11305  0.26725  1.0000
  H   H505      1.0  0.05198  0.29825  0.34836  1.0000
  H   H506      1.0  0.12866  0.29197  0.24179  1.0000
  H   H507      1.0  0.04536  0.36953  0.21537  1.0000
  N   N32       1.0  0.21886  0.07341  0.36910  1.0000
  H   H508      1.0  0.14997  0.99503  0.34495  1.0000
  H   H509      1.0  0.12526  0.17719  0.36699  1.0000
  H   H510      1.0  0.24974  0.14992  0.37210  1.0000
  H   H511      1.0  0.16087  0.22653  0.36483  1.0000
  H   H512      1.0  0.09424  0.11753  0.34703  1.0000
  H   H513      1.0  0.35945  0.01411  0.17837  1.0000
  H   H514      1.0  0.33493  0.05723  0.18960  1.0000
  C   C335      1.0  0.47303  0.07257  0.19352  1.0000
  C   C336      1.0  0.40819  0.11757  0.37575  1.0000
  H   H515      1.0  0.03862  0.46119  0.23938  1.0000
  C   C337      1.0  0.36887  0.07389  0.18044  1.0000
  H   H516      1.0  0.44096  0.98666  0.21553  1.0000
  N   N33       1.0  0.32647  0.09824  0.27667  1.0000
  C   C338      1.0  0.33153  0.08721  0.29049  1.0000
  C   C339      1.0  0.31359  0.09360  0.27344  1.0000
  C   C340      1.0  0.33980  0.09793  0.26308  1.0000
  C   C341      1.0  0.32098  0.11418  0.27965  1.0000
  H   H517      1.0  0.33562  0.07504  0.28865  1.0000
  H   H518      1.0  0.32183  0.08729  0.30103  1.0000
  H   H519      1.0  0.34151  0.09017  0.29301  1.0000
  H   H520      1.0  0.30309  0.09421  0.28322  1.0000
  H   H521      1.0  0.30977  0.10148  0.26285  1.0000
  H   H522      1.0  0.31720  0.08150  0.27148  1.0000
  H   H523      1.0  0.33674  0.10668  0.25261  1.0000
  H   H524      1.0  0.34369  0.08631  0.25997  1.0000
  H   H525      1.0  0.35006  0.10055  0.26538  1.0000
  H   H526      1.0  0.31764  0.12285  0.26924  1.0000
  H   H527      1.0  0.33024  0.11782  0.28268  1.0000
  H   H528      1.0  0.31046  0.11504  0.28938  1.0000
  H   H529      1.0  0.14313  0.30842  0.21937  1.0000
  H   H530      1.0  0.09365  0.32343  0.23488  1.0000
  H   H531      1.0  0.03093  0.17019  0.37432  1.0000
  H   H532      1.0  0.32691  0.07059  0.21874  1.0000
  H   H533      1.0  0.17083  0.18390  0.34059  1.0000
  H   H534      1.0  0.01364  0.38953  0.25969  1.0000
  H   H535      1.0  0.11317  0.25088  0.37637  1.0000
  H   H536      1.0  0.30245  0.18217  0.18512  1.0000
  S   S151      1.0  0.29036  0.08258  0.18507  1.0000
  Fe  Fe76      1.0  0.08189  0.24968  0.37434  1.0000
  C   C342      1.0  0.04599  0.18405  0.37560  1.0000
  H   H537      1.0  0.31487  0.07416  0.20514  1.0000
  H   H538      1.0  0.02887  0.45945  0.28174  1.0000
  C   C343      1.0  0.01061  0.39582  0.26929  1.0000
  C   C344      1.0  0.16007  0.00565  0.37301  1.0000
  C   C345      1.0  0.15159  0.20373  0.33709  1.0000
  S   S152      1.0  0.12653  0.04133  0.35771  1.0000
  C   C346      1.0  0.28078  0.16691  0.36394  1.0000
  H   H539      1.0  0.11336  0.20382  0.35432  1.0000
  C   C347      1.0  0.40240  0.01033  0.22002  1.0000
  S   S153      1.0  0.48373  0.03316  0.22380  1.0000
  H   H540      1.0  0.24336  0.06817  0.36908  1.0000
  H   H541      1.0  0.46764  0.16603  0.31183  1.0000
  H   H542      1.0  0.13534  0.32463  0.22880  1.0000
  C   C348      1.0  0.03749  0.39330  0.18132  1.0000
  C   C349      1.0  0.11875  0.30227  0.24286  1.0000
  S   S154      1.0  0.00153  0.43504  0.20456  1.0000
  C   C350      1.0  0.07149  0.11069  0.33853  1.0000
  C   C351      1.0  0.47909  0.16816  0.30449  1.0000
  C   C352      1.0  0.15499  0.00192  0.34986  1.0000
  C   C353      1.0  0.01421  0.34178  0.20822  1.0000
  C   C354      1.0  0.46025  0.08342  0.21627  1.0000
  H   H543      1.0  0.05864  0.37243  0.19678  1.0000
  H   H544      1.0  0.10640  0.45942  0.35505  1.0000
  H   H545      1.0  0.10413  0.48087  0.36780  1.0000
  N   N34       1.0  0.44902  0.08486  0.29957  1.0000
  C   C355      1.0  0.29557  0.09945  0.18598  1.0000
  C   C356      1.0  0.46495  0.07795  0.29168  1.0000
  C   C357      1.0  0.44842  0.10082  0.30082  1.0000
  H   H546      1.0  0.05895  0.43345  0.25827  1.0000
  H   H547      1.0  0.36935  0.14209  0.20480  1.0000
  N   N35       1.0  0.40876  0.02318  0.26907  1.0000
  S   S155      1.0  0.18856  0.12345  0.36165  1.0000
  H   H548      1.0  0.45340  0.07425  0.32249  1.0000
  C   C358      1.0  0.48415  0.14784  0.29037  1.0000
  C   C359      1.0  0.99194  0.42302  0.18561  1.0000
  H   H549      1.0  0.26196  0.15577  0.35342  1.0000
  H   H550      1.0  0.33956  0.12410  0.20017  1.0000
  C   C360      1.0  0.04945  0.47235  0.25754  1.0000
  H   H551      1.0  0.25032  0.17011  0.36454  1.0000
  C   C361      1.0  0.33809  0.04958  0.20051  1.0000
  H   H552      1.0  0.00505  0.40813  0.26477  1.0000
  H   H553      1.0  0.42572  0.09150  0.29552  1.0000
  H   H554      1.0  0.40706  0.15619  0.36040  1.0000
  C   C362      1.0  0.06832  0.47684  0.36732  1.0000
  N   N36       1.0  0.05893  0.37976  0.36350  1.0000
  H   H555      1.0  0.06215  0.10433  0.34024  1.0000
  H   H556      1.0  0.40807  0.98385  0.25370  1.0000
  C   C363      1.0  0.02295  0.30597  0.36517  1.0000
  H   H557      1.0  0.47055  0.17124  0.26976  1.0000
  H   H558      1.0  0.00275  0.10415  0.33363  1.0000
  H   H559      1.0  0.04838  0.37273  0.34900  1.0000
  C   C364      1.0  0.06484  0.39334  0.36328  1.0000
  Fe  Fe77      1.0  0.10757  0.03155  0.35512  1.0000
  C   C365      1.0  0.39055  0.00439  0.21818  1.0000
  N   N37       1.0  0.03653  0.38901  0.19831  1.0000
  H   H560      1.0  0.45692  0.10085  0.30749  1.0000
  H   H561      1.0  0.01502  0.38149  0.20302  1.0000
  N   N38       1.0  0.40319  0.13439  0.37582  1.0000
  C   C366      1.0  0.01145  0.44393  0.31457  1.0000
  H   H562      1.0  0.01792  0.43801  0.32359  1.0000
  C   C367      1.0  0.99494  0.45913  0.29097  1.0000
  H   H563      1.0  0.15336  0.12996  0.35849  1.0000
  H   H564      1.0  0.35368  0.11500  0.21198  1.0000
  H   H565      1.0  0.42346  0.03298  0.24779  1.0000
  C   C368      1.0  0.04825  0.07313  0.36322  1.0000
  H   H566      1.0  0.15365  0.01807  0.37098  1.0000
  H   H567      1.0  0.39428  0.04082  0.25514  1.0000
  H   H568      1.0  0.14887  0.23262  0.35078  1.0000
  H   H569      1.0  0.43421  0.08035  0.21039  1.0000
  C   C369      1.0  0.44544  0.07372  0.20440  1.0000
  H   H570      1.0  0.01797  0.42419  0.30385  1.0000
  C   C370      1.0  0.37909  0.01423  0.21025  1.0000
  H   H571      1.0  0.04475  0.12137  0.35795  1.0000
  Fe  Fe78      1.0  0.48253  0.00801  0.23396  1.0000
  S   S156      1.0  0.01607  0.14505  0.37574  1.0000
  H   H572      1.0  0.03234  0.43641  0.37221  1.0000
  N   N39       1.0  0.00016  0.38844  0.28315  1.0000
  C   C371      1.0  0.44498  0.07515  0.31535  1.0000
  H   H573      1.0  0.33415  0.02735  0.22643  1.0000
  Fe  Fe79      1.0  0.07358  0.22359  0.36541  1.0000
  H   H574      1.0  0.05825  0.47234  0.26390  1.0000
  H   H575      1.0  0.46632  0.18608  0.28070  1.0000
  C   C372      1.0  0.00301  0.45933  0.31410  1.0000
  H   H576      1.0  0.03541  0.41239  0.19985  1.0000
  Fe  Fe80      1.0  0.08244  0.04998  0.37683  1.0000
  C   C373      1.0  0.31811  0.06609  0.21592  1.0000
  H   H577      1.0  0.07011  0.10757  0.37672  1.0000
  H   H578      1.0  0.02059  0.31878  0.36030  1.0000
  H   H579      1.0  0.05658  0.06457  0.35718  1.0000
  H   H580      1.0  0.05290  0.13235  0.36589  1.0000
  H   H581      1.0  0.13421  0.14083  0.36540  1.0000
  H   H582      1.0  0.34321  0.03759  0.19839  1.0000
  H   H583      1.0  0.99842  0.30752  0.19190  1.0000
  H   H584      1.0  0.17268  0.00525  0.36756  1.0000
  H   H585      1.0  0.48825  0.16070  0.31089  1.0000
  C   C374      1.0  0.05134  0.19794  0.36939  1.0000
  H   H586      1.0  0.06216  0.29966  0.36181  1.0000
  S   S157      1.0  0.37280  0.10621  0.37700  1.0000
  S   S158      1.0  0.46683  0.99833  0.22585  1.0000
  H   H587      1.0  0.32511  0.14527  0.36795  1.0000
  H   H588      1.0  0.12991  0.00871  0.37236  1.0000
  C   C375      1.0  0.07179  0.36566  0.36408  1.0000
  N   N40       1.0  0.13687  0.23732  0.37335  1.0000
  H   H589      1.0  0.34741  0.05382  0.20272  1.0000
  C   C376      1.0  0.25764  0.15803  0.36539  1.0000
  H   H590      1.0  0.22330  0.07990  0.34406  1.0000
  Fe  Fe81      1.0  0.00516  0.13364  0.36398  1.0000
  H   H591      1.0  0.02169  0.39603  0.27207  1.0000
  N   N41       1.0  0.48198  0.16481  0.28891  1.0000
  H   H592      1.0  0.08924  0.45644  0.35132  1.0000
  H   H593      1.0  0.33858  0.04344  0.23063  1.0000
  C   C377      1.0  0.05293  0.38274  0.34927  1.0000
  H   H594      1.0  0.06774  0.35516  0.36430  1.0000
  H   H595      1.0  0.08161  0.12991  0.35982  1.0000
  H   H596      1.0  0.04188  0.39735  0.21555  1.0000
  H   H597      1.0  0.09175  0.45176  0.37084  1.0000
  H   H598      1.0  0.19500  0.07325  0.37017  1.0000
  H   H599      1.0  0.04927  0.01283  0.37012  1.0000
  H   H600      1.0  0.99282  0.19906  0.37185  1.0000
  N   N42       1.0  0.32438  0.04991  0.21367  1.0000
  C   C378      1.0  0.31217  0.04438  0.21026  1.0000
  H   H601      1.0  0.08170  0.36705  0.35383  1.0000
  S   S159      1.0  0.99568  0.15599  0.34840  1.0000
  H   H602      1.0  0.45311  0.09667  0.17983  1.0000
  H   H603      1.0  0.28582  0.16518  0.35183  1.0000
  H   H604      1.0  0.00696  0.39836  0.29829  1.0000
  H   H605      1.0  0.44795  0.06181  0.21194  1.0000
  H   H606      1.0  0.06997  0.44477  0.26227  1.0000
  C   C379      1.0  0.07133  0.10351  0.36597  1.0000
  C   C380      1.0  0.35491  0.14602  0.18140  1.0000
  C   C381      1.0  0.00820  0.37224  0.28894  1.0000
  H   H607      1.0  0.22967  0.09154  0.35305  1.0000
  H   H608      1.0  0.08299  0.10242  0.33594  1.0000
  H   H609      1.0  0.04953  0.31672  0.35297  1.0000
  H   H610      1.0  0.27618  0.19881  0.18799  1.0000
  H   H611      1.0  0.04059  0.27723  0.36840  1.0000
  H   H612      1.0  0.05282  0.13746  0.34549  1.0000
  H   H613      1.0  0.07447  0.39559  0.35293  1.0000
  H   H614      1.0  0.08288  0.09519  0.36397  1.0000
  C   C382      1.0  0.04243  0.40027  0.20281  1.0000
  H   H615      1.0  0.05542  0.40416  0.36289  1.0000
  H   H616      1.0  0.01913  0.37192  0.29230  1.0000
  C   C383      1.0  0.99447  0.46682  0.30247  1.0000
  H   H617      1.0  0.28005  0.17040  0.18813  1.0000
  N   N43       1.0  0.03757  0.30054  0.37098  1.0000
  H   H618      1.0  0.38370  0.13727  0.18779  1.0000
  C   C384      1.0  0.12423  0.24962  0.36729  1.0000
  H   H619      1.0  0.14716  0.09727  0.37257  1.0000
  C   C385      1.0  0.09139  0.48108  0.37207  1.0000
  H   H620      1.0  0.38218  0.13739  0.36794  1.0000
  H   H621      1.0  0.16360  0.10407  0.37297  1.0000
  H   H622      1.0  0.08904  0.28242  0.37006  1.0000
  C   C386      1.0  0.37405  0.13335  0.19731  1.0000
  H   H623      1.0  0.03021  0.40516  0.17780  1.0000
  C   C387      1.0  0.25101  0.38337  0.17744  1.0000
  Fe  Fe82      1.0  0.27318  0.13072  0.45347  1.0000
  S   S160      1.0  0.29646  0.11801  0.44148  1.0000
  S   S161      1.0  0.26608  0.13636  0.47731  1.0000
  Fe  Fe83      1.0  0.25647  0.13188  0.42819  1.0000
  S   S162      1.0  0.27833  0.11955  0.41433  1.0000
  S   S163      1.0  0.23342  0.13954  0.42053  1.0000
  Fe  Fe84      1.0  0.28208  0.10392  0.43714  1.0000
  S   S164      1.0  0.28696  0.07787  0.44049  1.0000
  Fe  Fe85      1.0  0.29043  0.13492  0.41969  1.0000
  S   S165      1.0  0.30539  0.14681  0.39814  1.0000
  S   S166      1.0  0.25936  0.11517  0.45076  1.0000
  S   S167      1.0  0.26816  0.14869  0.43195  1.0000
  Fe  Fe86      1.0  0.30389  0.13291  0.54319  1.0000
  C   C388      1.0  0.35035  0.10425  0.53650  1.0000
  S   S168      1.0  0.31348  0.13506  0.51727  1.0000
  S   S169      1.0  0.31220  0.14450  0.55718  1.0000
  S   S170      1.0  0.27907  0.13642  0.55716  1.0000
  Fe  Fe87      1.0  0.03147  0.33459  0.44055  1.0000
  S   S171      1.0  0.05692  0.32359  0.43873  1.0000
  S   S172      1.0  0.01335  0.32064  0.45395  1.0000
  Fe  Fe88      1.0  0.03788  0.36649  0.42327  1.0000
  S   S173      1.0  0.06396  0.35810  0.42043  1.0000
  S   S174      1.0  0.02458  0.39019  0.41326  1.0000
  Fe  Fe89      1.0  0.06009  0.33749  0.41417  1.0000
  S   S175      1.0  0.07363  0.32892  0.39228  1.0000
  Fe  Fe90      1.0  0.05808  0.34505  0.44547  1.0000
  S   S176      1.0  0.06926  0.33966  0.46615  1.0000
  S   S177      1.0  0.03440  0.34678  0.41546  1.0000
  S   S178      1.0  0.03233  0.35518  0.44865  1.0000
  Fe  Fe91      1.0  0.05325  0.37715  0.53845  1.0000
  S   S179      1.0  0.03192  0.38756  0.55468  1.0000
  S   S180      1.0  0.05114  0.38490  0.51316  1.0000
  S   S181      1.0  0.01549  0.24826  0.55352  1.0000
  C   C389      1.0  0.12176  0.99357  0.56985  1.0000
  S   S182      1.0  0.02060  0.26585  0.42110  1.0000
  H   H624      1.0  0.02629  0.30639  0.39323  1.0000
  H   H625      1.0  0.06776  0.27866  0.57249  1.0000
  S   S183      1.0  0.06975  0.38241  0.54979  1.0000
  Fe  Fe92      1.0  0.20010  0.04556  0.45000  1.0000
  S   S184      1.0  0.22471  0.03242  0.44264  1.0000
  S   S185      1.0  0.18869  0.05067  0.47359  1.0000
  Fe  Fe93      1.0  0.19210  0.05036  0.41886  1.0000
  S   S186      1.0  0.21584  0.03734  0.40884  1.0000
  S   S187      1.0  0.17515  0.06345  0.40351  1.0000
  Fe  Fe94      1.0  0.21347  0.02041  0.43183  1.0000
  H   H626      1.0  0.15691  0.99750  0.50759  1.0000
  Fe  Fe95      1.0  0.22481  0.05057  0.42040  1.0000
  S   S188      1.0  0.24353  0.06328  0.40581  1.0000
  S   S189      1.0  0.18873  0.03212  0.44097  1.0000
  S   S190      1.0  0.20121  0.06492  0.42879  1.0000
  S   S191      1.0  0.22994  0.06462  0.51082  1.0000
  C   C390      1.0  0.00031  0.35504  0.48710  1.0000
  S   S192      1.0  0.12942  0.02414  0.40081  1.0000
  N   N44       1.0  0.35962  0.11640  0.53161  1.0000
  H   H627      1.0  0.18042  0.02194  0.47567  1.0000
  S   S193      1.0  0.14993  0.99798  0.55093  1.0000
  H   H628      1.0  0.21558  0.99350  0.49333  1.0000
  C   C391      1.0  0.14084  0.09075  0.55833  1.0000
  H   H629      1.0  0.22358  0.01746  0.47538  1.0000
  S   S194      1.0  0.08158  0.25687  0.39603  1.0000
  C   C392      1.0  0.16304  0.05205  0.40235  1.0000
  Fe  Fe96      1.0  0.99464  0.26780  0.55817  1.0000
  H   H630      1.0  0.00648  0.35289  0.47531  1.0000
  C   C393      1.0  0.14253  0.03476  0.40115  1.0000
  C   C394      1.0  0.15328  0.02823  0.41081  1.0000
  C   C395      1.0  0.16359  0.03685  0.41135  1.0000
  H   H631      1.0  0.18969  0.00202  0.43028  1.0000
  H   H632      1.0  0.32462  0.09602  0.41586  1.0000
  H   H633      1.0  0.15364  0.01652  0.41787  1.0000
  H   H634      1.0  0.17191  0.03173  0.41874  1.0000
  C   C396      1.0  0.20047  0.05519  0.48309  1.0000
  C   C397      1.0  0.21675  0.05256  0.47784  1.0000
  C   C398      1.0  0.22593  0.05556  0.48627  1.0000
  C   C399      1.0  0.21872  0.06162  0.49964  1.0000
  C   C400      1.0  0.20241  0.06496  0.50433  1.0000
  C   C401      1.0  0.19332  0.06150  0.49625  1.0000
  H   H635      1.0  0.22226  0.04811  0.46741  1.0000
  H   H636      1.0  0.23856  0.05315  0.48250  1.0000
  H   H637      1.0  0.19669  0.07029  0.51418  1.0000
  H   H638      1.0  0.18069  0.06387  0.50018  1.0000
  H   H639      1.0  0.21792  0.00852  0.51802  1.0000
  H   H640      1.0  0.23455  0.01007  0.53900  1.0000
  H   H641      1.0  0.04344  0.21453  0.40455  1.0000
  H   H642      1.0  0.15598  0.00417  0.47943  1.0000
  H   H643      1.0  0.03186  0.34892  0.48293  1.0000
  C   C402      1.0  0.01543  0.30518  0.44510  1.0000
  C   C403      1.0  0.02750  0.30288  0.43206  1.0000
  N   N45       1.0  0.10015  0.00490  0.43930  1.0000
  H   H644      1.0  0.04756  0.31694  0.48784  1.0000
  H   H645      1.0  0.03551  0.31064  0.42732  1.0000
  Fe  Fe97      1.0  0.99264  0.14741  0.39251  1.0000
  C   C404      1.0  0.07583  0.30887  0.39339  1.0000
  H   H646      1.0  0.07508  0.00869  0.44643  1.0000
  H   H647      1.0  0.06613  0.46837  0.37867  1.0000
  C   C405      1.0  0.07929  0.27693  0.39471  1.0000
  C   C406      1.0  0.07292  0.28290  0.40821  1.0000
  C   C407      1.0  0.07104  0.29884  0.40753  1.0000
  H   H648      1.0  0.25653  0.99269  0.49382  1.0000
  H   H649      1.0  0.06925  0.27521  0.41923  1.0000
  H   H650      1.0  0.06599  0.30328  0.41798  1.0000
  C   C408      1.0  0.03550  0.40400  0.40163  1.0000
  C   C409      1.0  0.05071  0.40288  0.40299  1.0000
  C   C410      1.0  0.05920  0.41403  0.39341  1.0000
  H   H651      1.0  0.21193  0.11207  0.46467  1.0000
  H   H652      1.0  0.09127  0.99995  0.42211  1.0000
  C   C411      1.0  0.26432  0.15861  0.38891  1.0000
  H   H653      1.0  0.05581  0.39360  0.41160  1.0000
  H   H654      1.0  0.35374  0.10887  0.40730  1.0000
  C   C412      1.0  0.99698  0.15951  0.42132  1.0000
  H   H655      1.0  0.15598  0.02365  0.46836  1.0000
  C   C413      1.0  0.06401  0.35234  0.47913  1.0000
  C   C414      1.0  0.05647  0.36799  0.47497  1.0000
  C   C415      1.0  0.05268  0.37782  0.48551  1.0000
  C   C416      1.0  0.05611  0.37204  0.50039  1.0000
  C   C417      1.0  0.06335  0.35630  0.50467  1.0000
  C   C418      1.0  0.06740  0.34653  0.49401  1.0000
  H   H656      1.0  0.05392  0.37261  0.46349  1.0000
  H   H657      1.0  0.04721  0.39001  0.48208  1.0000
  H   H658      1.0  0.06612  0.35177  0.51605  1.0000
  H   H659      1.0  0.07329  0.33446  0.49728  1.0000
  H   H660      1.0  0.11684  0.12819  0.38931  1.0000
  C   C419      1.0  0.27527  0.07320  0.43088  1.0000
  C   C420      1.0  0.27440  0.08116  0.41562  1.0000
  C   C421      1.0  0.26487  0.07773  0.40797  1.0000
  C   C422      1.0  0.25586  0.06659  0.41564  1.0000
  C   C423      1.0  0.25669  0.05856  0.43093  1.0000
  C   C424      1.0  0.26658  0.06172  0.43848  1.0000
  H   H661      1.0  0.28130  0.08976  0.40953  1.0000
  H   H662      1.0  0.26436  0.08382  0.39611  1.0000
  H   H663      1.0  0.24985  0.04983  0.43685  1.0000
  H   H664      1.0  0.26727  0.05549  0.45028  1.0000
  C   C425      1.0  0.99587  0.17920  0.43510  1.0000
  C   C426      1.0  0.05337  0.00870  0.39932  1.0000
  C   C427      1.0  0.24479  0.12165  0.39843  1.0000
  C   C428      1.0  0.23279  0.13332  0.40420  1.0000
  H   H665      1.0  0.14045  0.04003  0.49573  1.0000
  H   H666      1.0  0.14681  0.11840  0.40188  1.0000
  C   C429      1.0  0.14223  0.04979  0.39189  1.0000
  H   H667      1.0  0.25413  0.11571  0.40442  1.0000
  C   C430      1.0  0.00687  0.28261  0.44412  1.0000
  C   C431      1.0  0.32431  0.13583  0.39244  1.0000
  C   C432      1.0  0.33241  0.12559  0.40352  1.0000
  C   C433      1.0  0.34745  0.11672  0.39870  1.0000
  C   C434      1.0  0.22029  0.14035  0.39667  1.0000
  H   H668      1.0  0.09823  0.01779  0.41612  1.0000
  C   C435      1.0  0.21991  0.99433  0.55359  1.0000
  H   H669      1.0  0.32714  0.12466  0.41580  1.0000
  N   N46       1.0  0.23235  0.00473  0.49580  1.0000
  C   C436      1.0  0.13338  0.98983  0.55695  1.0000
  C   C437      1.0  0.27964  0.13568  0.48811  1.0000
  C   C438      1.0  0.29577  0.13309  0.48186  1.0000
  C   C439      1.0  0.30610  0.13290  0.49089  1.0000
  C   C440      1.0  0.30037  0.13501  0.50625  1.0000
  C   C441      1.0  0.28426  0.13730  0.51254  1.0000
  C   C442      1.0  0.27394  0.13779  0.50345  1.0000
  H   H670      1.0  0.30026  0.13151  0.47003  1.0000
  H   H671      1.0  0.31855  0.13116  0.48593  1.0000
  H   H672      1.0  0.27970  0.13912  0.52426  1.0000
  H   H673      1.0  0.26147  0.14002  0.50827  1.0000
  S   S195      1.0  0.22200  0.99480  0.43275  1.0000
  H   H674      1.0  0.13403  0.05484  0.38434  1.0000
  H   H675      1.0  0.15888  0.12739  0.38448  1.0000
  C   C443      1.0  0.04221  0.22394  0.41067  1.0000
  S   S196      1.0  0.02816  0.25565  0.50651  1.0000
  C   C444      1.0  0.22001  0.13595  0.38322  1.0000
  H   H676      1.0  0.03192  0.35522  0.49976  1.0000
  H   H677      1.0  0.18022  0.00285  0.48763  1.0000
  N   N47       1.0  0.32795  0.07856  0.40292  1.0000
  Fe  Fe98      1.0  0.00274  0.21625  0.43623  1.0000
  N   N48       1.0  0.25407  0.09701  0.52261  1.0000
  C   C445      1.0  0.23717  0.09830  0.52947  1.0000
  C   C446      1.0  0.25623  0.10528  0.50608  1.0000
  C   C447      1.0  0.26194  0.08036  0.52371  1.0000
  C   C448      1.0  0.26085  0.10408  0.53116  1.0000
  H   H678      1.0  0.23513  0.09210  0.54189  1.0000
  H   H679      1.0  0.23169  0.09314  0.52322  1.0000
  H   H680      1.0  0.23078  0.11068  0.52905  1.0000
  H   H681      1.0  0.26882  0.10492  0.50052  1.0000
  H   H682      1.0  0.25149  0.10010  0.49921  1.0000
  H   H683      1.0  0.25012  0.11781  0.50483  1.0000
  H   H684      1.0  0.27471  0.07894  0.51853  1.0000
  H   H685      1.0  0.25696  0.07465  0.51750  1.0000
  H   H686      1.0  0.26052  0.07379  0.53607  1.0000
  H   H687      1.0  0.27351  0.10378  0.52599  1.0000
  H   H688      1.0  0.25978  0.09784  0.54360  1.0000
  H   H689      1.0  0.25483  0.11652  0.53099  1.0000
  H   H690      1.0  0.04268  0.23502  0.40181  1.0000
  C   C449      1.0  0.18908  0.98855  0.41459  1.0000
  H   H691      1.0  0.03033  0.22542  0.41830  1.0000
  C   C450      1.0  0.22507  0.09744  0.43186  1.0000
  Fe  Fe99      1.0  0.01925  0.26307  0.52930  1.0000
  C   C451      1.0  0.08395  0.28695  0.38051  1.0000
  H   H692      1.0  0.30777  0.07306  0.39973  1.0000
  Fe  Fe100     1.0  0.28728  0.11300  0.57202  1.0000
  H   H693      1.0  0.99752  0.31493  0.56293  1.0000
  C   C452      1.0  0.17588  0.01548  0.48758  1.0000
  H   H694      1.0  0.06086  0.00645  0.40779  1.0000
  H   H695      1.0  0.12958  0.24293  0.39593  1.0000
  C   C453      1.0  0.02920  0.29051  0.42505  1.0000
  H   H696      1.0  0.24351  0.09015  0.45199  1.0000
  C   C454      1.0  0.19655  0.99420  0.42269  1.0000
  C   C455      1.0  0.10030  0.00554  0.42295  1.0000
  C   C456      1.0  0.15208  0.01664  0.48022  1.0000
  H   H697      1.0  0.02330  0.33913  0.50199  1.0000
  C   C457      1.0  0.10268  0.98846  0.44793  1.0000
  H   H698      1.0  0.34034  0.14332  0.56906  1.0000
  C   C458      1.0  0.01875  0.28053  0.43088  1.0000
  C   C459      1.0  0.24459  0.11736  0.38496  1.0000
  H   H699      1.0  0.00761  0.36897  0.51452  1.0000
  H   H700      1.0  0.01905  0.38212  0.48799  1.0000
  H   H701      1.0  0.06663  0.31831  0.54654  1.0000
  H   H702      1.0  0.37251  0.12845  0.51042  1.0000
  C   C460      1.0  0.20869  0.99143  0.56741  1.0000
  H   H703      1.0  0.10273  0.98745  0.46032  1.0000
  H   H704      1.0  0.05908  0.28726  0.54772  1.0000
  H   H705      1.0  0.13906  0.01944  0.48318  1.0000
  C   C461      1.0  0.21276  0.98921  0.42142  1.0000
  C   C462      1.0  0.13189  0.22228  0.37900  1.0000
  C   C463      1.0  0.15308  0.01022  0.50744  1.0000
  H   H706      1.0  0.01898  0.30636  0.48580  1.0000
  H   H707      1.0  0.05028  0.37522  0.38836  1.0000
  H   H708      1.0  0.06173  0.20221  0.43894  1.0000
  C   C464      1.0  0.05848  0.28825  0.57692  1.0000
  H   H709      1.0  0.05303  0.02097  0.39255  1.0000
  C   C465      1.0  0.08232  0.30287  0.37988  1.0000
  C   C466      1.0  0.35431  0.11793  0.38280  1.0000
  S   S197      1.0  0.08892  0.34017  0.57318  1.0000
  H   H710      1.0  0.00378  0.21110  0.40199  1.0000
  H   H711      1.0  0.38068  0.10007  0.53666  1.0000
  H   H712      1.0  0.05294  0.29120  0.50503  1.0000
  H   H713      1.0  0.23626  0.10147  0.42716  1.0000
  C   C467      1.0  0.15248  0.05841  0.39250  1.0000
  H   H714      1.0  0.00933  0.41284  0.57045  1.0000
  H   H715      1.0  0.40218  0.13057  0.40029  1.0000
  Fe  Fe101     1.0  0.02843  0.26323  0.55864  1.0000
  H   H716      1.0  0.02290  0.28760  0.49841  1.0000
  H   H717      1.0  0.07948  0.21467  0.41574  1.0000
  H   H718      1.0  0.07092  0.41322  0.39456  1.0000
  N   N49       1.0  0.15860  0.01970  0.49189  1.0000
  H   H719      1.0  0.04131  0.27707  0.47643  1.0000
  H   H720      1.0  0.03763  0.29585  0.46366  1.0000
  C   C468      1.0  0.05265  0.23313  0.42712  1.0000
  H   H721      1.0  0.35086  0.06969  0.38985  1.0000
  C   C469      1.0  0.08486  0.01369  0.44657  1.0000
  H   H722      1.0  0.14007  0.01296  0.51110  1.0000
  S   S198      1.0  0.22214  0.06412  0.55558  1.0000
  H   H723      1.0  0.31819  0.10330  0.39779  1.0000
  H   H724      1.0  0.04099  0.20725  0.44006  1.0000
  H   H725      1.0  0.02157  0.25836  0.47701  1.0000
  H   H726      1.0  0.02965  0.17453  0.40762  1.0000
  H   H727      1.0  0.05354  0.19575  0.42666  1.0000
  Fe  Fe102     1.0  0.21375  0.06784  0.53375  1.0000
  N   N50       1.0  0.04344  0.29601  0.48479  1.0000
  H   H728      1.0  0.02473  0.34496  0.52787  1.0000
  H   H729      1.0  0.14117  0.21266  0.38355  1.0000
  C   C470      1.0  0.04809  0.31117  0.47843  1.0000
  Fe  Fe103     1.0  0.00368  0.25009  0.43256  1.0000
  H   H730      1.0  0.04027  0.31934  0.47085  1.0000
  H   H731      1.0  0.38008  0.12004  0.53622  1.0000
  C   C471      1.0  0.02696  0.29869  0.49349  1.0000
  H   H732      1.0  0.22314  0.08773  0.38189  1.0000
  C   C472      1.0  0.23435  0.08767  0.57535  1.0000
  H   H733      1.0  0.99809  0.34365  0.49466  1.0000
  H   H734      1.0  0.99962  0.38893  0.57451  1.0000
  C   C473      1.0  0.37288  0.11112  0.53953  1.0000
  H   H735      1.0  0.08438  0.01344  0.45892  1.0000
  H   H736      1.0  0.12039  0.11130  0.38132  1.0000
  H   H737      1.0  0.21631  0.10577  0.42539  1.0000
  H   H738      1.0  0.07144  0.22798  0.40001  1.0000
  H   H739      1.0  0.37311  0.10850  0.51081  1.0000
  H   H740      1.0  0.00194  0.24946  0.46970  1.0000
  C   C474      1.0  0.15343  0.03645  0.49227  1.0000
  H   H741      1.0  0.32614  0.06398  0.38896  1.0000
  H   H742      1.0  0.22470  0.02910  0.55602  1.0000
  Fe  Fe104     1.0  0.06875  0.35855  0.56533  1.0000
  H   H743      1.0  0.33532  0.06821  0.42460  1.0000
  C   C475      1.0  0.15141  0.10314  0.37920  1.0000
  H   H744      1.0  0.04713  0.30445  0.38817  1.0000
  C   C476      1.0  0.00419  0.24056  0.51305  1.0000
  C   C477      1.0  0.24728  0.00025  0.50100  1.0000
  H   H745      1.0  0.14960  0.23248  0.39132  1.0000
  H   H746      1.0  0.25354  0.12212  0.57045  1.0000
  H   H747      1.0  0.99862  0.35294  0.51726  1.0000
  H   H748      1.0  0.07293  0.31239  0.56459  1.0000
  H   H749      1.0  0.15729  0.04391  0.48065  1.0000
  H   H750      1.0  0.04155  0.36701  0.37815  1.0000
  S   S199      1.0  0.00727  0.28148  0.56550  1.0000
  C   C478      1.0  0.00524  0.29491  0.45126  1.0000
  C   C479      1.0  0.21427  0.08123  0.38232  1.0000
  H   H751      1.0  0.17651  0.99216  0.41583  1.0000
  H   H752      1.0  0.40421  0.14982  0.38929  1.0000
  C   C480      1.0  0.22673  0.10295  0.56978  1.0000
  H   H753      1.0  0.12110  0.22298  0.38845  1.0000
  C   C481      1.0  0.03637  0.30859  0.38335  1.0000
  H   H754      1.0  0.12213  0.08861  0.54950  1.0000
  C   C482      1.0  0.00303  0.21003  0.39044  1.0000
  C   C483      1.0  0.00090  0.36412  0.50923  1.0000
  H   H755      1.0  0.35039  0.08328  0.40092  1.0000
  H   H756      1.0  0.34002  0.10802  0.53100  1.0000
  S   S200      1.0  0.19509  0.05419  0.54523  1.0000
  S   S201      1.0  0.01282  0.31849  0.53009  1.0000
  C   C484      1.0  0.22585  0.00780  0.54965  1.0000
  H   H757      1.0  0.19578  0.09783  0.44918  1.0000
  H   H758      1.0  0.34495  0.12916  0.54872  1.0000
  H   H759      1.0  0.07888  0.29930  0.55154  1.0000
  H   H760      1.0  0.00475  0.23816  0.52516  1.0000
  H   H761      1.0  0.12238  0.00225  0.57546  1.0000
  H   H762      1.0  0.05053  0.27427  0.50034  1.0000
  C   C485      1.0  0.16736  0.02338  0.56448  1.0000
  C   C486      1.0  0.05372  0.28583  0.49526  1.0000
  H   H763      1.0  0.01709  0.41711  0.38956  1.0000
  H   H764      1.0  0.07172  0.20758  0.40365  1.0000
  H   H765      1.0  0.08261  0.02615  0.44027  1.0000
  H   H766      1.0  0.01802  0.10387  0.38476  1.0000
  C   C487      1.0  0.01223  0.37680  0.48329  1.0000
  Fe  Fe105     1.0  0.20426  0.08627  0.55881  1.0000
  H   H767      1.0  0.01899  0.37542  0.47140  1.0000
  H   H768      1.0  0.04097  0.23557  0.43503  1.0000
  H   H769      1.0  0.36864  0.10893  0.55247  1.0000
  H   H770      1.0  0.05730  0.28618  0.46514  1.0000
  C   C488      1.0  0.01447  0.24882  0.50157  1.0000
  H   H771      1.0  0.06033  0.30974  0.47140  1.0000
  H   H772      1.0  0.08975  0.47311  0.38379  1.0000
  H   H773      1.0  0.22449  0.02532  0.50541  1.0000
  Fe  Fe106     1.0  0.20182  0.05261  0.56734  1.0000
  H   H774      1.0  0.15222  0.06999  0.38528  1.0000
  S   S202      1.0  0.99721  0.28134  0.53340  1.0000
  S   S203      1.0  0.99779  0.23775  0.41775  1.0000
  N   N51       1.0  0.05486  0.30169  0.56409  1.0000
  C   C489      1.0  0.23227  0.12453  0.37728  1.0000
  H   H775      1.0  0.38170  0.15192  0.37794  1.0000
  C   C490      1.0  0.12511  0.09219  0.55842  1.0000
  C   C491      1.0  0.01036  0.34523  0.56624  1.0000
  H   H776      1.0  0.03935  0.32420  0.56105  1.0000
  H   H777      1.0  0.24314  0.00590  0.47151  1.0000
  H   H778      1.0  0.03920  0.29163  0.55822  1.0000
  Fe  Fe107     1.0  0.28817  0.14545  0.57266  1.0000
  C   C492      1.0  0.23366  0.11538  0.56806  1.0000
  H   H779      1.0  0.21310  0.07264  0.39363  1.0000
  H   H780      1.0  0.30693  0.09232  0.41434  1.0000
  S   S204      1.0  0.19007  0.98939  0.52397  1.0000
  H   H781      1.0  0.15205  0.09525  0.39083  1.0000
  H   H782      1.0  0.03323  0.08021  0.39962  1.0000
  H   H783      1.0  0.12448  0.00566  0.43424  1.0000
  C   C493      1.0  0.01376  0.25183  0.48591  1.0000
  H   H784      1.0  0.35744  0.09311  0.53324  1.0000
  H   H785      1.0  0.99600  0.29656  0.46143  1.0000
  H   H786      1.0  0.25673  0.17049  0.38889  1.0000
  H   H787      1.0  0.33596  0.05447  0.41355  1.0000
  H   H788      1.0  0.23341  0.05315  0.38062  1.0000
  H   H789      1.0  0.31813  0.08446  0.38269  1.0000
  H   H790      1.0  0.11324  0.01129  0.45195  1.0000
  H   H791      1.0  0.05379  0.24414  0.41820  1.0000
  H   H792      1.0  0.02317  0.35983  0.54710  1.0000
  C   C494      1.0  0.24832  0.11249  0.57167  1.0000
  C   C495      1.0  0.00333  0.32455  0.55953  1.0000
  H   H793      1.0  0.99887  0.27484  0.44879  1.0000
  H   H794      1.0  0.03113  0.30949  0.57604  1.0000
  C   C496      1.0  0.06998  0.21741  0.40935  1.0000
  H   H795      1.0  0.04684  0.30643  0.54288  1.0000
  H   H796      1.0  0.22719  0.11705  0.44827  1.0000
  H   H797      1.0  0.14759  0.05134  0.55881  1.0000
  H   H798      1.0  0.17012  0.01039  0.56795  1.0000
  H   H799      1.0  0.15848  0.03928  0.50066  1.0000
  H   H800      1.0  0.22786  0.12723  0.56367  1.0000
  N   N52       1.0  0.00956  0.36168  0.49353  1.0000
  C   C497      1.0  0.05265  0.20569  0.43192  1.0000
  C   C498      1.0  0.04501  0.28844  0.47194  1.0000
  C   C499      1.0  0.05266  0.42605  0.38219  1.0000
  H   H801      1.0  0.11181  0.99933  0.41699  1.0000
  C   C500      1.0  0.14021  0.24157  0.38634  1.0000
  H   H802      1.0  0.22905  0.08563  0.46943  1.0000
  C   C501      1.0  0.01127  0.32891  0.54409  1.0000
  H   H803      1.0  0.02536  0.30426  0.50334  1.0000
  C   C502      1.0  0.32929  0.06572  0.41682  1.0000
  Fe  Fe108     1.0  0.31808  0.12051  0.57184  1.0000
  H   H804      1.0  0.25166  0.01070  0.50030  1.0000
  C   C503      1.0  0.04208  0.31382  0.57041  1.0000
  C   C504      1.0  0.02481  0.35075  0.49459  1.0000
  H   H805      1.0  0.04126  0.00804  0.40603  1.0000
  H   H806      1.0  0.08369  0.99603  0.38832  1.0000
  C   C505      1.0  0.22047  0.01481  0.50563  1.0000
  H   H807      1.0  0.31752  0.06398  0.42388  1.0000
  H   H808      1.0  0.06620  0.28362  0.48893  1.0000
  S   S205      1.0  0.19751  0.09091  0.53593  1.0000
  C   C506      1.0  0.36553  0.11928  0.51454  1.0000
  H   H809      1.0  0.27380  0.15747  0.39487  1.0000
  Fe  Fe109     1.0  0.17948  0.07701  0.54933  1.0000
  C   C507      1.0  0.31905  0.09321  0.40791  1.0000
  H   H810      1.0  0.17812  0.02739  0.56355  1.0000
  H   H811      1.0  0.06169  0.23067  0.43401  1.0000
  C   C508      1.0  0.04934  0.00099  0.37780  1.0000
  C   C509      1.0  0.20911  0.01566  0.57313  1.0000
  H   H812      1.0  0.03041  0.28050  0.38746  1.0000
  H   H813      1.0  0.33938  0.13529  0.53026  1.0000
  S   S206      1.0  0.20866  0.10673  0.56471  1.0000
  H   H814      1.0  0.09037  0.47932  0.56942  1.0000
  H   H815      1.0  0.09630  0.45018  0.57444  1.0000
  H   H816      1.0  0.35615  0.14046  0.53248  1.0000
  H   H817      1.0  0.24588  0.99366  0.51334  1.0000
  S   S207      1.0  0.18466  0.07433  0.57260  1.0000
  H   H818      1.0  0.20768  0.12067  0.44564  1.0000
  H   H819      1.0  0.16488  0.02656  0.55262  1.0000
  C   C510      1.0  0.22027  0.01857  0.55929  1.0000
  H   H820      1.0  0.05040  0.17568  0.38520  1.0000
  C   C511      1.0  0.02888  0.41619  0.39060  1.0000
  C   C512      1.0  0.14463  0.09557  0.56977  1.0000
  S   S208      1.0  0.09927  0.06072  0.38188  1.0000
  C   C513      1.0  0.04982  0.29655  0.55268  1.0000
  N   N53       1.0  0.05436  0.22004  0.41980  1.0000
  S   S209      1.0  0.31136  0.10881  0.55700  1.0000
  H   H821      1.0  0.13550  0.99266  0.38748  1.0000
  C   C514      1.0  0.31964  0.07486  0.39312  1.0000
  Fe  Fe110     1.0  0.01169  0.29338  0.54027  1.0000
  H   H822      1.0  0.34321  0.09017  0.38336  1.0000
  C   C515      1.0  0.01830  0.34170  0.53967  1.0000
  H   H823      1.0  0.23963  0.02373  0.47782  1.0000
  S   S210      1.0  0.01925  0.19532  0.42825  1.0000
  H   H824      1.0  0.14406  0.25284  0.38246  1.0000
  C   C516      1.0  0.03750  0.42710  0.38077  1.0000
  N   N54       1.0  0.21982  0.09652  0.44883  1.0000
  C   C517      1.0  0.06895  0.30819  0.55634  1.0000
  S   S211      1.0  0.05733  0.05459  0.38975  1.0000
  S   S212      1.0  0.05412  0.35270  0.55264  1.0000
  S   S213      1.0  0.03399  0.27630  0.53404  1.0000
  C   C518      1.0  0.21646  0.11225  0.45202  1.0000
  Fe  Fe111     1.0  0.03396  0.36359  0.56960  1.0000
  H   H825      1.0  0.03863  0.28866  0.41508  1.0000
  C   C519      1.0  0.40775  0.13722  0.38890  1.0000
  S   S214      1.0  0.15562  0.08228  0.54429  1.0000
  C   C520      1.0  0.00275  0.24663  0.48173  1.0000
  H   H826      1.0  0.00908  0.21864  0.38133  1.0000
  C   C521      1.0  0.20547  0.09023  0.45481  1.0000
  H   H827      1.0  0.11130  0.02432  0.43337  1.0000
  S   S215      1.0  0.04834  0.25569  0.57085  1.0000
  H   H828      1.0  0.05118  0.27886  0.38161  1.0000
  H   H829      1.0  0.20753  0.07839  0.45258  1.0000
  C   C522      1.0  0.23231  0.08613  0.45667  1.0000
  C   C523      1.0  0.01764  0.34999  0.55066  1.0000
  H   H830      1.0  0.15771  0.01233  0.51653  1.0000
  H   H831      1.0  0.10109  0.09882  0.57046  1.0000
  H   H832      1.0  0.18124  0.01826  0.49572  1.0000
  H   H833      1.0  0.29000  0.13755  0.37948  1.0000
  C   C524      1.0  0.34377  0.08048  0.39388  1.0000
  H   H834      1.0  0.01757  0.15548  0.40317  1.0000
  H   H835      1.0  0.23476  0.07404  0.45493  1.0000
  S   S216      1.0  0.01064  0.22823  0.44988  1.0000
  Fe  Fe112     1.0  0.04829  0.39060  0.56740  1.0000
  H   H836      1.0  0.27288  0.13098  0.38038  1.0000
  C   C525      1.0  0.11277  0.01189  0.43978  1.0000
  H   H837      1.0  0.35565  0.12331  0.50837  1.0000
  H   H838      1.0  0.34590  0.10163  0.54937  1.0000
  H   H839      1.0  0.21090  0.14934  0.40113  1.0000
  C   C526      1.0  0.15058  0.04755  0.57049  1.0000
  H   H840      1.0  0.20129  0.08920  0.46764  1.0000
  C   C527      1.0  0.23479  0.01335  0.47939  1.0000
  C   C528      1.0  0.00286  0.33273  0.57063  1.0000
  C   C529      1.0  0.01048  0.18154  0.42594  1.0000
  H   H841      1.0  0.20921  0.01895  0.50169  1.0000
  C   C530      1.0  0.01146  0.16207  0.41205  1.0000
  H   H842      1.0  0.00989  0.19820  0.38887  1.0000
  C   C531      1.0  0.03497  0.08190  0.38714  1.0000
  H   H843      1.0  0.22711  0.08587  0.42899  1.0000
  C   C532      1.0  0.34959  0.13099  0.53593  1.0000
  C   C533      1.0  0.14675  0.12576  0.38995  1.0000
  C   C534      1.0  0.01831  0.17283  0.41458  1.0000
  H   H844      1.0  0.15914  0.00150  0.38582  1.0000
  H   H845      1.0  0.20281  0.08971  0.38232  1.0000
  H   H846      1.0  0.13688  0.02752  0.56515  1.0000
  H   H847      1.0  0.25399  0.10843  0.38045  1.0000
  H   H848      1.0  0.25713  0.15012  0.39621  1.0000
  H   H849      1.0  0.42069  0.13357  0.38783  1.0000
  H   H850      1.0  0.35247  0.16045  0.57662  1.0000
  N   N55       1.0  0.15394  0.03035  0.57572  1.0000
  C   C535      1.0  0.25613  0.09718  0.57689  1.0000
  C   C536      1.0  0.11322  0.09800  0.57023  1.0000
  H   H851      1.0  0.16086  0.05236  0.56950  1.0000
  H   H852      1.0  0.15664  0.09518  0.56937  1.0000
  H   H853      1.0  0.13935  0.13755  0.39102  1.0000
  H   H854      1.0  0.03618  0.38765  0.37744  1.0000
  H   H855      1.0  0.12443  0.10906  0.40002  1.0000
  S   S217      1.0  0.06494  0.20160  0.37752  1.0000
  H   H856      1.0  0.37981  0.13253  0.38863  1.0000
  C   C537      1.0  0.22687  0.99055  0.49709  1.0000
  C   C538      1.0  0.99275  0.23798  0.49312  1.0000
  C   C539      1.0  0.04617  0.37731  0.37742  1.0000
  C   C540      1.0  0.10966  0.98546  0.57605  1.0000
  C   C541      1.0  0.99351  0.23494  0.50877  1.0000
  N   N56       1.0  0.05950  0.99749  0.38897  1.0000
  H   H857      1.0  0.00100  0.38532  0.48201  1.0000
  C   C542      1.0  0.12495  0.11673  0.38816  1.0000
  Fe  Fe113     1.0  0.11511  0.03701  0.38301  1.0000
  N   N57       1.0  0.14110  0.11861  0.38054  1.0000
  H   H858      1.0  0.03704  0.00042  0.38387  1.0000
  S   S218      1.0  0.09728  0.02581  0.38070  1.0000
  C   C543      1.0  0.07553  0.99889  0.38036  1.0000
  H   H859      1.0  0.20541  0.05583  0.38077  1.0000
  H   H860      1.0  0.40237  0.11040  0.38665  1.0000
  C   C544      1.0  0.02638  0.09528  0.37874  1.0000
  C   C545      1.0  0.04605  0.07090  0.37935  1.0000
  C   C546      1.0  0.38598  0.13932  0.37768  1.0000
  H   H861      1.0  0.03479  0.32143  0.37891  1.0000
  C   C547      1.0  0.14004  0.02453  0.57670  1.0000
  H   H862      1.0  0.22891  0.07806  0.57707  1.0000
  H   H863      1.0  0.21043  0.14151  0.37733  1.0000
  C   C548      1.0  0.04007  0.28353  0.37739  1.0000
  Fe  Fe114     1.0  0.07901  0.27559  0.64417  1.0000
  S   S219      1.0  0.06809  0.27619  0.66923  1.0000
  S   S220      1.0  0.06440  0.28594  0.62608  1.0000
  Fe  Fe115     1.0  0.11059  0.25702  0.65109  1.0000
  S   S221      1.0  0.10257  0.25617  0.67677  1.0000
  S   S222      1.0  0.13326  0.24396  0.63865  1.0000
  Fe  Fe116     1.0  0.08075  0.25105  0.67413  1.0000
  S   S223      1.0  0.07125  0.23000  0.68854  1.0000
  Fe  Fe117     1.0  0.09069  0.28147  0.66962  1.0000
  S   S224      1.0  0.09060  0.30332  0.67690  1.0000
  S   S225      1.0  0.08973  0.25009  0.64905  1.0000
  S   S226      1.0  0.10067  0.28265  0.64396  1.0000
  Fe  Fe118     1.0  0.18554  0.17033  0.67598  1.0000
  S   S227      1.0  0.18855  0.14854  0.69457  1.0000
  S   S228      1.0  0.17231  0.19260  0.68368  1.0000
  Fe  Fe119     1.0  0.20361  0.15361  0.65011  1.0000
  S   S229      1.0  0.20846  0.13033  0.66637  1.0000
  S   S230      1.0  0.20905  0.15535  0.62425  1.0000
  Fe  Fe120     1.0  0.18338  0.13705  0.67846  1.0000
  S   S231      1.0  0.16673  0.12082  0.68797  1.0000
  Fe  Fe121     1.0  0.21338  0.14359  0.68124  1.0000
  S   S232      1.0  0.23289  0.13264  0.69438  1.0000
  S   S233      1.0  0.17799  0.15937  0.66109  1.0000
  S   S234      1.0  0.21092  0.16642  0.66369  1.0000
  Fe  Fe122     1.0  0.13561  0.08567  0.63842  1.0000
  S   S235      1.0  0.11316  0.10399  0.63832  1.0000
  S   S236      1.0  0.15958  0.08862  0.63795  1.0000
  Fe  Fe123     1.0  0.12129  0.06017  0.63550  1.0000
  S   S237      1.0  0.09767  0.07613  0.63537  1.0000
  Fe  Fe124     1.0  0.11075  0.09403  0.61950  1.0000
  S   S238      1.0  0.10247  0.10760  0.59780  1.0000
  Fe  Fe125     1.0  0.10194  0.08463  0.65421  1.0000
  S   S239      1.0  0.08267  0.08604  0.67562  1.0000
  S   S240      1.0  0.13408  0.07747  0.61808  1.0000
  S   S241      1.0  0.12462  0.06699  0.65590  1.0000
  H   H864      1.0  0.28651  0.12484  0.72445  1.0000
  H   H865      1.0  0.17794  0.33727  0.77260  1.0000
  C   C549      1.0  0.06812  0.21178  0.59024  1.0000
  H   H866      1.0  0.03324  0.45818  0.70333  1.0000
  S   S242      1.0  0.00174  0.18547  0.66280  1.0000
  H   H867      1.0  0.06659  0.11942  0.59930  1.0000
  H   H868      1.0  0.43273  0.02008  0.72331  1.0000
  N   N58       1.0  0.07800  0.04227  0.67680  1.0000
  C   C550      1.0  0.04984  0.41465  0.59062  1.0000
  C   C551      1.0  0.05443  0.24595  0.63929  1.0000
  C   C552      1.0  0.07352  0.23287  0.62025  1.0000
  C   C553      1.0  0.35058  0.09211  0.76375  1.0000
  H   H869      1.0  0.18243  0.20463  0.60329  1.0000
  C   C554      1.0  0.10699  0.00105  0.63504  1.0000
  C   C555      1.0  0.99982  0.41606  0.58046  1.0000
  S   S243      1.0  0.07565  0.42355  0.62269  1.0000
  S   S244      1.0  0.02373  0.14287  0.67556  1.0000
  H   H870      1.0  0.10036  0.04069  0.66062  1.0000
  H   H871      1.0  0.30989  0.15171  0.58966  1.0000
  H   H872      1.0  0.03770  0.14562  0.60885  1.0000
  H   H873      1.0  0.06870  0.13520  0.63144  1.0000
  C   C556      1.0  0.04073  0.21268  0.59284  1.0000
  C   C557      1.0  0.09182  0.47813  0.58140  1.0000
  H   H874      1.0  0.07708  0.03744  0.70138  1.0000
  H   H875      1.0  0.38443  0.99790  0.71031  1.0000
  H   H876      1.0  0.03126  0.43343  0.59799  1.0000
  C   C558      1.0  0.13278  0.10110  0.58172  1.0000
  Fe  Fe126     1.0  0.38729  0.05543  0.76601  1.0000
  S   S245      1.0  0.36834  0.04536  0.76408  1.0000
  Fe  Fe127     1.0  0.40691  0.05199  0.73393  1.0000
  S   S246      1.0  0.38974  0.04186  0.72858  1.0000
  S   S247      1.0  0.43043  0.05579  0.71926  1.0000
  Fe  Fe128     1.0  0.37130  0.06002  0.73985  1.0000
  S   S248      1.0  0.35078  0.07664  0.73113  1.0000
  Fe  Fe129     1.0  0.38810  0.02783  0.75323  1.0000
  H   H877      1.0  0.21766  0.19168  0.60292  1.0000
  S   S249      1.0  0.38867  0.07151  0.74261  1.0000
  S   S250      1.0  0.40682  0.03653  0.75764  1.0000
  H   H878      1.0  0.12965  0.02954  0.58506  1.0000
  C   C559      1.0  0.03933  0.47649  0.72805  1.0000
  C   C560      1.0  0.25157  0.16647  0.61082  1.0000
  C   C561      1.0  0.05293  0.25447  0.61232  1.0000
  S   S251      1.0  0.48794  0.15376  0.69227  1.0000
  S   S252      1.0  0.25760  0.17195  0.77246  1.0000
  H   H879      1.0  0.07061  0.06595  0.66471  1.0000
  C   C562      1.0  0.29276  0.14791  0.61939  1.0000
  N   N59       1.0  0.03969  0.47408  0.71264  1.0000
  C   C563      1.0  0.02858  0.38989  0.74457  1.0000
  H   H880      1.0  0.44504  0.00489  0.70230  1.0000
  C   C564      1.0  0.04679  0.22975  0.62724  1.0000
  C   C565      1.0  0.33622  0.17141  0.73778  1.0000
  N   N60       1.0  0.19836  0.20567  0.61627  1.0000
  H   H881      1.0  0.03099  0.20694  0.59674  1.0000
  C   C566      1.0  0.99286  0.47939  0.69720  1.0000
  H   H882      1.0  0.03487  0.99865  0.65128  1.0000
  S   S253      1.0  0.45432  0.17436  0.66897  1.0000
  C   C567      1.0  0.17642  0.02352  0.62643  1.0000
  N   N61       1.0  0.48061  0.18748  0.61773  1.0000
  C   C568      1.0  0.00083  0.47102  0.68550  1.0000
  C   C569      1.0  0.36273  0.14213  0.59381  1.0000
  Fe  Fe130     1.0  0.36742  0.15087  0.65595  1.0000
  S   S254      1.0  0.35838  0.13799  0.64397  1.0000
  S   S255      1.0  0.34990  0.16729  0.67007  1.0000
  Fe  Fe131     1.0  0.40164  0.13767  0.64266  1.0000
  S   S256      1.0  0.39541  0.12422  0.62896  1.0000
  S   S257      1.0  0.42726  0.13187  0.64350  1.0000
  Fe  Fe132     1.0  0.37676  0.14544  0.62324  1.0000
  H   H883      1.0  0.09594  0.04595  0.63123  1.0000
  Fe  Fe133     1.0  0.37770  0.11798  0.65069  1.0000
  S   S258      1.0  0.37635  0.09286  0.65873  1.0000
  S   S259      1.0  0.38468  0.15984  0.63471  1.0000
  S   S260      1.0  0.38495  0.13000  0.66489  1.0000
  Fe  Fe134     1.0  0.06329  0.44024  0.63883  1.0000
  S   S261      1.0  0.07756  0.44865  0.65005  1.0000
  C   C570      1.0  0.08758  0.02534  0.63358  1.0000
  H   H884      1.0  0.18095  0.22385  0.62605  1.0000
  H   H885      1.0  0.44186  0.00384  0.73656  1.0000
  H   H886      1.0  0.19481  0.99971  0.58800  1.0000
  C   C571      1.0  0.47315  0.12500  0.72423  1.0000
  H   H887      1.0  0.19333  0.10603  0.59630  1.0000
  Fe  Fe135     1.0  0.05890  0.44444  0.67162  1.0000
  S   S262      1.0  0.06378  0.43486  0.69563  1.0000
  C   C572      1.0  0.24585  0.39290  0.77116  1.0000
  S   S263      1.0  0.04589  0.43398  0.66108  1.0000
  Fe  Fe136     1.0  0.27967  0.18044  0.76076  1.0000
  H   H888      1.0  0.46384  0.11590  0.69482  1.0000
  H   H889      1.0  0.03997  0.44955  0.72105  1.0000
  Fe  Fe137     1.0  0.26098  0.16352  0.75065  1.0000
  S   S264      1.0  0.27496  0.13969  0.75944  1.0000
  S   S265      1.0  0.24034  0.17102  0.73912  1.0000
  C   C573      1.0  0.44362  0.01479  0.72782  1.0000
  Fe  Fe138     1.0  0.29583  0.15060  0.74901  1.0000
  S   S266      1.0  0.31904  0.13670  0.73850  1.0000
  H   H890      1.0  0.04798  0.13856  0.63297  1.0000
  S   S267      1.0  0.28203  0.17366  0.73835  1.0000
  Fe  Fe139     1.0  0.10707  0.32938  0.74272  1.0000
  S   S268      1.0  0.09226  0.35291  0.73480  1.0000
  S   S269      1.0  0.10175  0.30712  0.74119  1.0000
  Fe  Fe140     1.0  0.12887  0.34309  0.75282  1.0000
  S   S270      1.0  0.11588  0.36765  0.74551  1.0000
  H   H891      1.0  0.46657  0.17163  0.61860  1.0000
  Fe  Fe141     1.0  0.09426  0.35819  0.75654  1.0000
  Fe  Fe142     1.0  0.11509  0.36030  0.72449  1.0000
  S   S271      1.0  0.11962  0.37560  0.70065  1.0000
  H   H892      1.0  0.48069  0.36680  0.77015  1.0000
  S   S272      1.0  0.12991  0.33635  0.73062  1.0000
  C   C574      1.0  0.20701  0.11842  0.61085  1.0000
  C   C575      1.0  0.06115  0.31134  0.74543  1.0000
  H   H893      1.0  0.09419  0.43898  0.59409  1.0000
  S   S273      1.0  0.01265  0.35353  0.58032  1.0000
  H   H894      1.0  0.17902  0.12577  0.62975  1.0000
  H   H895      1.0  0.21224  0.12753  0.61209  1.0000
  H   H896      1.0  0.14225  0.01158  0.58061  1.0000
  H   H897      1.0  0.00424  0.42318  0.58568  1.0000
  H   H898      1.0  0.33227  0.13525  0.61168  1.0000
  C   C576      1.0  0.09148  0.00910  0.63496  1.0000
  H   H899      1.0  0.05272  0.40877  0.71454  1.0000
  H   H900      1.0  0.47384  0.16829  0.63581  1.0000
  H   H901      1.0  0.13026  0.00274  0.63461  1.0000
  H   H902      1.0  0.14785  0.03093  0.60004  1.0000
  C   C577      1.0  0.31147  0.15840  0.59737  1.0000
  S   S274      1.0  0.38850  0.00211  0.76147  1.0000
  H   H903      1.0  0.04046  0.26062  0.61535  1.0000
  H   H904      1.0  0.03418  0.23529  0.63076  1.0000
  H   H905      1.0  0.05693  0.46939  0.69204  1.0000
  H   H906      1.0  0.48240  0.00290  0.71252  1.0000
  C   C578      1.0  0.03311  0.46036  0.71474  1.0000
  H   H907      1.0  0.01938  0.38888  0.58841  1.0000
  C   C579      1.0  0.31454  0.10514  0.72079  1.0000
  H   H908      1.0  0.21601  0.23646  0.75026  1.0000
  N   N62       1.0  0.19179  0.12530  0.60623  1.0000
  H   H909      1.0  0.05185  0.31352  0.73891  1.0000
  C   C580      1.0  0.47187  0.00306  0.76504  1.0000
  H   H910      1.0  0.24717  0.37997  0.77435  1.0000
  H   H911      1.0  0.07684  0.22243  0.62941  1.0000
  H   H912      1.0  0.46710  0.13756  0.72232  1.0000
  H   H913      1.0  0.08145  0.24083  0.61847  1.0000
  C   C581      1.0  0.38535  0.99300  0.74840  1.0000
  H   H914      1.0  0.47038  0.09222  0.71553  1.0000
  H   H915      1.0  0.18049  0.11985  0.71521  1.0000
  H   H916      1.0  0.07567  0.03168  0.63326  1.0000
  H   H917      1.0  0.29185  0.11314  0.69450  1.0000
  H   H918      1.0  0.03239  0.41608  0.72208  1.0000
  H   H919      1.0  0.00422  0.98753  0.65859  1.0000
  H   H920      1.0  0.21252  0.20206  0.63280  1.0000
  C   C582      1.0  0.11838  0.00913  0.63419  1.0000
  Fe  Fe143     1.0  0.01932  0.20067  0.65435  1.0000
  H   H921      1.0  0.32514  0.12747  0.69747  1.0000
  H   H922      1.0  0.25701  0.21682  0.73484  1.0000
  S   S275      1.0  0.01679  0.22266  0.66240  1.0000
  H   H923      1.0  0.13054  0.36354  0.77467  1.0000
  C   C583      1.0  0.03092  0.23833  0.67400  1.0000
  H   H924      1.0  0.44487  0.02297  0.73421  1.0000
  H   H925      1.0  0.06555  0.32834  0.64275  1.0000
  H   H926      1.0  0.30622  0.09568  0.69959  1.0000
  S   S276      1.0  0.36979  0.15490  0.60002  1.0000
  H   H927      1.0  0.08464  0.33342  0.65429  1.0000
  H   H928      1.0  0.99452  0.47458  0.70897  1.0000
  H   H929      1.0  0.06872  0.33124  0.62193  1.0000
  C   C584      1.0  0.45918  0.02655  0.70364  1.0000
  C   C585      1.0  0.19412  0.13642  0.59104  1.0000
  H   H930      1.0  0.24511  0.20747  0.72910  1.0000
  H   H931      1.0  0.22147  0.20934  0.60448  1.0000
  H   H932      1.0  0.28438  0.15944  0.61856  1.0000
  H   H933      1.0  0.07027  0.39655  0.58565  1.0000
  C   C586      1.0  0.06596  0.22746  0.58228  1.0000
  H   H934      1.0  0.32693  0.16464  0.74358  1.0000
  H   H935      1.0  0.06701  0.32141  0.74101  1.0000
  H   H936      1.0  0.31835  0.12750  0.60727  1.0000
  H   H937      1.0  0.45800  0.18443  0.63202  1.0000
  H   H938      1.0  0.32482  0.16011  0.61939  1.0000
  C   C587      1.0  0.03317  0.99182  0.64377  1.0000
  H   H939      1.0  0.47070  0.99428  0.73033  1.0000
  S   S277      1.0  0.02114  0.16789  0.63367  1.0000
  H   H940      1.0  0.21287  0.20965  0.76426  1.0000
  C   C588      1.0  0.44984  0.11721  0.72459  1.0000
  C   C589      1.0  0.47510  0.09949  0.72025  1.0000
  S   S278      1.0  0.07396  0.37349  0.76953  1.0000
  H   H941      1.0  0.08151  0.47309  0.61262  1.0000
  H   H942      1.0  0.48886  0.18622  0.63780  1.0000
  C   C590      1.0  0.07986  0.41890  0.69657  1.0000
  C   C591      1.0  0.08805  0.41280  0.68343  1.0000
  C   C592      1.0  0.10050  0.39968  0.68463  1.0000
  C   C593      1.0  0.10445  0.39236  0.69906  1.0000
  C   C594      1.0  0.09618  0.39842  0.71222  1.0000
  C   C595      1.0  0.08410  0.41183  0.71090  1.0000
  H   H943      1.0  0.08477  0.41810  0.67235  1.0000
  H   H944      1.0  0.10685  0.39499  0.67444  1.0000
  H   H945      1.0  0.09925  0.39293  0.72336  1.0000
  H   H946      1.0  0.07805  0.41673  0.72099  1.0000
  H   H947      1.0  0.32688  0.11082  0.68991  1.0000
  H   H948      1.0  0.32273  0.09455  0.71716  1.0000
  Fe  Fe144     1.0  0.06177  0.47222  0.64454  1.0000
  H   H949      1.0  0.04639  0.46614  0.73474  1.0000
  H   H950      1.0  0.48122  0.12160  0.69453  1.0000
  C   C596      1.0  0.18399  0.10791  0.72227  1.0000
  C   C597      1.0  0.06968  0.05389  0.66528  1.0000
  C   C598      1.0  0.07099  0.04583  0.69239  1.0000
  H   H951      1.0  0.30292  0.16982  0.59587  1.0000
  H   H952      1.0  0.18526  0.14338  0.61914  1.0000
  C   C599      1.0  0.46863  0.12239  0.70037  1.0000
  H   H953      1.0  0.05745  0.40846  0.74052  1.0000
  H   H954      1.0  0.04467  0.43780  0.61607  1.0000
  H   H955      1.0  0.05601  0.14073  0.65737  1.0000
  H   H956      1.0  0.47198  0.12038  0.73702  1.0000
  C   C600      1.0  0.34170  0.15869  0.68915  1.0000
  C   C601      1.0  0.32711  0.16630  0.69658  1.0000
  C   C602      1.0  0.32012  0.15962  0.71174  1.0000
  C   C603      1.0  0.32785  0.14548  0.71969  1.0000
  C   C604      1.0  0.34266  0.13807  0.71247  1.0000
  C   C605      1.0  0.34950  0.14454  0.69711  1.0000
  H   H957      1.0  0.32107  0.17726  0.69044  1.0000
  H   H958      1.0  0.30873  0.16539  0.71712  1.0000
  H   H959      1.0  0.34885  0.12731  0.71873  1.0000
  H   H960      1.0  0.36089  0.13874  0.69154  1.0000
  S   S279      1.0  0.04032  0.18085  0.65191  1.0000
  C   C606      1.0  0.36505  0.12620  0.60073  1.0000
  H   H961      1.0  0.00864  0.45978  0.68823  1.0000
  H   H962      1.0  0.10093  0.98807  0.58627  1.0000
  C   C607      1.0  0.06465  0.40549  0.59231  1.0000
  C   C608      1.0  0.47165  0.00540  0.72169  1.0000
  H   H963      1.0  0.25500  0.07293  0.58308  1.0000
  N   N63       1.0  0.33015  0.18819  0.73786  1.0000
  H   H964      1.0  0.10426  0.32426  0.61534  1.0000
  C   C609      1.0  0.44665  0.16201  0.66275  1.0000
  C   C610      1.0  0.43116  0.16672  0.66078  1.0000
  C   C611      1.0  0.42497  0.15746  0.65511  1.0000
  C   C612      1.0  0.43432  0.14350  0.65126  1.0000
  C   C613      1.0  0.44975  0.13868  0.65342  1.0000
  C   C614      1.0  0.45588  0.14784  0.65925  1.0000
  H   H965      1.0  0.42396  0.17766  0.66349  1.0000
  H   H966      1.0  0.41306  0.16126  0.65347  1.0000
  H   H967      1.0  0.45703  0.12788  0.65046  1.0000
  H   H968      1.0  0.46778  0.14404  0.66083  1.0000
  H   H969      1.0  0.44853  0.03195  0.69874  1.0000
  H   H970      1.0  0.13578  0.10468  0.59062  1.0000
  H   H971      1.0  0.08397  0.40132  0.60332  1.0000
  H   H972      1.0  0.25822  0.17190  0.61504  1.0000
  H   H973      1.0  0.29050  0.14138  0.63171  1.0000
  H   H974      1.0  0.20919  0.21012  0.59183  1.0000
  C   C615      1.0  0.45564  0.00046  0.70736  1.0000
  S   S280      1.0  0.04008  0.41221  0.57758  1.0000
  H   H975      1.0  0.06026  0.26306  0.61035  1.0000
  S   S281      1.0  0.07663  0.99912  0.63735  1.0000
  C   C616      1.0  0.35686  0.08115  0.71087  1.0000
  C   C617      1.0  0.35503  0.09674  0.70282  1.0000
  C   C618      1.0  0.36073  0.10043  0.68668  1.0000
  C   C619      1.0  0.36811  0.08846  0.67861  1.0000
  C   C620      1.0  0.36961  0.07286  0.68661  1.0000
  C   C621      1.0  0.36414  0.06920  0.70279  1.0000
  H   H976      1.0  0.34961  0.10595  0.70911  1.0000
  H   H977      1.0  0.35951  0.11250  0.68051  1.0000
  H   H978      1.0  0.37528  0.06360  0.68035  1.0000
  H   H979      1.0  0.36543  0.05712  0.70898  1.0000
  C   C622      1.0  0.43730  0.06533  0.72938  1.0000
  C   C623      1.0  0.45243  0.05993  0.73232  1.0000
  C   C624      1.0  0.45699  0.06653  0.74207  1.0000
  H   H980      1.0  0.47409  0.09444  0.73295  1.0000
  C   C625      1.0  0.43159  0.08421  0.74540  1.0000
  C   C626      1.0  0.42713  0.07777  0.73558  1.0000
  H   H981      1.0  0.46041  0.05031  0.72759  1.0000
  H   H982      1.0  0.46851  0.06214  0.74462  1.0000
  H   H983      1.0  0.42340  0.09350  0.75055  1.0000
  H   H984      1.0  0.41573  0.08245  0.73288  1.0000
  S   S282      1.0  0.27619  0.16476  0.58558  1.0000
  C   C627      1.0  0.41646  0.09245  0.65830  1.0000
  H   H985      1.0  0.46255  0.13492  0.69769  1.0000
  H   H986      1.0  0.41318  0.08277  0.65565  1.0000
  H   H987      1.0  0.08006  0.14084  0.58870  1.0000
  H   H988      1.0  0.07179  0.05776  0.69252  1.0000
  C   C628      1.0  0.23945  0.21770  0.76358  1.0000
  C   C629      1.0  0.15395  0.34934  0.77252  1.0000
  C   C630      1.0  0.38595  0.00023  0.73267  1.0000
  H   H989      1.0  0.00453  0.23565  0.60550  1.0000
  H   H990      1.0  0.27611  0.39451  0.76471  1.0000
  H   H991      1.0  0.42675  0.09559  0.64917  1.0000
  H   H992      1.0  0.06700  0.45388  0.60071  1.0000
  H   H993      1.0  0.38827  0.01176  0.72826  1.0000
  H   H994      1.0  0.02078  0.46193  0.72152  1.0000
  N   N64       1.0  0.08733  0.46385  0.59201  1.0000
  H   H995      1.0  0.18386  0.02041  0.61535  1.0000
  H   H996      1.0  0.99412  0.23680  0.63338  1.0000
  C   C631      1.0  0.03863  0.22830  0.58466  1.0000
  H   H997      1.0  0.10144  0.03417  0.68075  1.0000
  C   C632      1.0  0.35869  0.11637  0.59601  1.0000
  H   H998      1.0  0.40656  0.10270  0.65703  1.0000
  H   H999      1.0  0.44792  0.11303  0.73747  1.0000
  H   H1000     1.0  0.07246  0.11488  0.61744  1.0000
  H   H1001     1.0  0.08623  0.45216  0.61599  1.0000
  H   H1002     1.0  0.48782  0.09821  0.71474  1.0000
  C   C633      1.0  0.04317  0.24025  0.67933  1.0000
  C   C634      1.0  0.05542  0.20449  0.59583  1.0000
  Fe  Fe145     1.0  0.02273  0.16587  0.65824  1.0000
  H   H1003     1.0  0.20004  0.22809  0.61808  1.0000
  H   H1004     1.0  0.18134  0.01500  0.63612  1.0000
  H   H1005     1.0  0.04286  0.25144  0.68138  1.0000
  C   C635      1.0  0.29532  0.12864  0.71386  1.0000
  C   C636      1.0  0.09769  0.33656  0.61517  1.0000
  C   C637      1.0  0.06330  0.12231  0.61100  1.0000
  H   H1006     1.0  0.03831  0.29628  0.76201  1.0000
  H   H1007     1.0  0.44309  0.12950  0.72221  1.0000
  H   H1008     1.0  0.33857  0.20943  0.72967  1.0000
  C   C638      1.0  0.05031  0.42882  0.60946  1.0000
  H   H1009     1.0  0.47264  0.20215  0.63446  1.0000
  H   H1010     1.0  0.01415  0.39917  0.60369  1.0000
  C   C639      1.0  0.22358  0.20508  0.75597  1.0000
  C   C640      1.0  0.25116  0.41532  0.77616  1.0000
  C   C641      1.0  0.07238  0.40822  0.60231  1.0000
  H   H1011     1.0  0.09617  0.05462  0.67249  1.0000
  H   H1012     1.0  0.39541  0.09521  0.68529  1.0000
  C   C642      1.0  0.40539  0.08486  0.68579  1.0000
  H   H1013     1.0  0.46089  0.03524  0.70909  1.0000
  Fe  Fe146     1.0  0.03279  0.45868  0.65436  1.0000
  H   H1014     1.0  0.10636  0.34376  0.61333  1.0000
  C   C643      1.0  0.42400  0.10148  0.67698  1.0000
  H   H1015     1.0  0.16448  0.02179  0.62756  1.0000
  C   C644      1.0  0.03140  0.22400  0.67087  1.0000
  H   H1016     1.0  0.10147  0.46281  0.60777  1.0000
  H   H1017     1.0  0.05791  0.23600  0.64876  1.0000
  H   H1018     1.0  0.10170  0.34006  0.64198  1.0000
  C   C645      1.0  0.09472  0.04295  0.67247  1.0000
  H   H1019     1.0  0.04751  0.33338  0.76257  1.0000
  H   H1020     1.0  0.23305  0.39818  0.77321  1.0000
  H   H1021     1.0  0.22917  0.19336  0.76208  1.0000
  H   H1022     1.0  0.21793  0.08383  0.73057  1.0000
  C   C646      1.0  0.47092  0.01918  0.76037  1.0000
  H   H1023     1.0  0.04194  0.25157  0.64330  1.0000
  C   C647      1.0  0.18661  0.19850  0.61420  1.0000
  H   H1024     1.0  0.05482  0.37479  0.72729  1.0000
  H   H1025     1.0  0.03858  0.39895  0.71393  1.0000
  H   H1026     1.0  0.19969  0.11479  0.73965  1.0000
  H   H1027     1.0  0.19732  0.03360  0.63479  1.0000
  H   H1028     1.0  0.08486  0.36219  0.62709  1.0000
  H   H1029     1.0  0.31507  0.18379  0.76057  1.0000
  H   H1030     1.0  0.18785  0.22888  0.60533  1.0000
  S   S283      1.0  0.04916  0.46428  0.63130  1.0000
  H   H1031     1.0  0.05482  0.25103  0.60111  1.0000
  C   C648      1.0  0.08922  0.46295  0.60777  1.0000
  H   H1032     1.0  0.03680  0.41491  0.74749  1.0000
  C   C649      1.0  0.38378  0.99237  0.72250  1.0000
  H   H1033     1.0  0.30469  0.17045  0.62261  1.0000
  H   H1034     1.0  0.41461  0.11230  0.67577  1.0000
  H   H1035     1.0  0.33470  0.07030  0.76719  1.0000
  C   C650      1.0  0.06798  0.11666  0.66452  1.0000
  C   C651      1.0  0.06673  0.10227  0.67487  1.0000
  C   C652      1.0  0.05248  0.10068  0.68529  1.0000
  C   C653      1.0  0.03947  0.11323  0.68526  1.0000
  H   H1036     1.0  0.07908  0.11807  0.65672  1.0000
  H   H1037     1.0  0.05145  0.08970  0.69344  1.0000
  H   H1038     1.0  0.02847  0.11182  0.69331  1.0000
  H   H1039     1.0  0.24788  0.22553  0.75968  1.0000
  C   C654      1.0  0.20512  0.08756  0.73099  1.0000
  H   H1040     1.0  0.18309  0.10428  0.61624  1.0000
  N   N65       1.0  0.30913  0.14977  0.61380  1.0000
  H   H1041     1.0  0.19927  0.14593  0.59157  1.0000
  C   C655      1.0  0.23505  0.14343  0.70665  1.0000
  C   C656      1.0  0.24737  0.13774  0.71458  1.0000
  C   C657      1.0  0.24918  0.14611  0.72453  1.0000
  C   C658      1.0  0.23863  0.16019  0.72665  1.0000
  C   C659      1.0  0.22631  0.16581  0.71876  1.0000
  C   C660      1.0  0.22454  0.15750  0.70877  1.0000
  H   H1042     1.0  0.25549  0.12683  0.71304  1.0000
  H   H1043     1.0  0.25862  0.14165  0.73067  1.0000
  H   H1044     1.0  0.21809  0.17667  0.72034  1.0000
  H   H1045     1.0  0.21501  0.16201  0.70272  1.0000
  C   C661      1.0  0.22806  0.15729  0.61413  1.0000
  C   C662      1.0  0.23401  0.15307  0.59968  1.0000
  C   C663      1.0  0.24893  0.15506  0.59106  1.0000
  C   C664      1.0  0.25767  0.16191  0.59653  1.0000
  Fe  Fe147     1.0  0.00157  0.18861  0.63769  1.0000
  C   C665      1.0  0.23695  0.16379  0.61982  1.0000
  H   H1046     1.0  0.22719  0.14812  0.59515  1.0000
  H   H1047     1.0  0.10425  0.47806  0.58061  1.0000
  H   H1048     1.0  0.28988  0.14148  0.61224  1.0000
  H   H1049     1.0  0.23251  0.16697  0.63101  1.0000
  C   C666      1.0  0.16470  0.11182  0.67412  1.0000
  C   C667      1.0  0.17759  0.10722  0.66255  1.0000
  C   C668      1.0  0.17596  0.09962  0.65190  1.0000
  C   C669      1.0  0.16131  0.09719  0.65227  1.0000
  C   C670      1.0  0.14840  0.10178  0.66383  1.0000
  C   C671      1.0  0.15016  0.10887  0.67488  1.0000
  H   H1050     1.0  0.18890  0.10920  0.66203  1.0000
  H   H1051     1.0  0.18607  0.09571  0.64327  1.0000
  H   H1052     1.0  0.13708  0.09985  0.66430  1.0000
  H   H1053     1.0  0.14017  0.11230  0.68387  1.0000
  C   C672      1.0  0.14398  0.22974  0.65125  1.0000
  C   C673      1.0  0.15232  0.21565  0.64696  1.0000
  C   C674      1.0  0.16114  0.20417  0.65682  1.0000
  C   C675      1.0  0.16181  0.20690  0.67088  1.0000
  C   C676      1.0  0.15345  0.22100  0.67516  1.0000
  C   C677      1.0  0.14445  0.23238  0.66541  1.0000
  H   H1054     1.0  0.15166  0.21356  0.63613  1.0000
  H   H1055     1.0  0.16723  0.19316  0.65366  1.0000
  H   H1056     1.0  0.15391  0.22313  0.68606  1.0000
  H   H1057     1.0  0.13815  0.24334  0.66869  1.0000
  C   C678      1.0  0.09448  0.30375  0.69465  1.0000
  C   C679      1.0  0.09596  0.29050  0.70675  1.0000
  C   C680      1.0  0.09852  0.29157  0.72088  1.0000
  C   C681      1.0  0.09973  0.30583  0.72294  1.0000
  C   C682      1.0  0.09841  0.31901  0.71078  1.0000
  C   C683      1.0  0.09573  0.31798  0.69674  1.0000
  H   H1058     1.0  0.09502  0.27948  0.70527  1.0000
  H   H1059     1.0  0.09954  0.28131  0.73023  1.0000
  H   H1060     1.0  0.09934  0.33005  0.71220  1.0000
  H   H1061     1.0  0.09463  0.32827  0.68743  1.0000
  C   C684      1.0  0.07150  0.30067  0.61118  1.0000
  C   C685      1.0  0.06088  0.31290  0.60404  1.0000
  C   C686      1.0  0.06625  0.32495  0.59225  1.0000
  C   C687      1.0  0.48287  0.02544  0.76153  1.0000
  C   C688      1.0  0.09292  0.31232  0.59436  1.0000
  C   C689      1.0  0.08755  0.30032  0.60630  1.0000
  H   H1062     1.0  0.04845  0.31321  0.60782  1.0000
  H   H1063     1.0  0.46942  0.02463  0.69381  1.0000
  N   N66       1.0  0.05483  0.30890  0.76245  1.0000
  H   H1064     1.0  0.09583  0.29071  0.61155  1.0000
  C   C690      1.0  0.05568  0.22766  0.68214  1.0000
  C   C691      1.0  0.05587  0.21314  0.67962  1.0000
  C   C692      1.0  0.04387  0.21137  0.67379  1.0000
  H   H1065     1.0  0.06540  0.20330  0.68192  1.0000
  H   H1066     1.0  0.04422  0.20022  0.67163  1.0000
  S   S284      1.0  0.00784  0.43762  0.75016  1.0000
  H   H1067     1.0  0.05837  0.04543  0.69607  1.0000
  N   N67       1.0  0.08568  0.33784  0.62970  1.0000
  H   H1068     1.0  0.08092  0.31532  0.63261  1.0000
  C   C693      1.0  0.48361  0.19507  0.62857  1.0000
  H   H1069     1.0  0.46125  0.02675  0.75545  1.0000
  H   H1070     1.0  0.48244  0.20723  0.59856  1.0000
  H   H1071     1.0  0.34722  0.19551  0.71744  1.0000
  H   H1072     1.0  0.44337  0.07652  0.66648  1.0000
  H   H1073     1.0  0.35808  0.08099  0.76085  1.0000
  H   H1074     1.0  0.08685  0.13700  0.60623  1.0000
  H   H1075     1.0  0.17719  0.10778  0.73443  1.0000
  H   H1076     1.0  0.06774  0.38535  0.72934  1.0000
  C   C694      1.0  0.05641  0.38167  0.73480  1.0000
  C   C695      1.0  0.19152  0.22235  0.61641  1.0000
  H   H1077     1.0  0.32076  0.19297  0.71747  1.0000
  S   S285      1.0  0.29536  0.15830  0.77029  1.0000
  N   N68       1.0  0.04324  0.39528  0.73664  1.0000
  C   C696      1.0  0.11440  0.02532  0.63316  1.0000
  H   H1078     1.0  0.07458  0.05157  0.65338  1.0000
  N   N69       1.0  0.06208  0.13907  0.60974  1.0000
  H   H1079     1.0  0.04749  0.39734  0.75786  1.0000
  H   H1080     1.0  0.47338  0.01352  0.72784  1.0000
  H   H1081     1.0  0.37173  0.12144  0.60974  1.0000
  S   S286      1.0  0.04406  0.46867  0.66694  1.0000
  H   H1082     1.0  0.05783  0.15450  0.62513  1.0000
  H   H1083     1.0  0.16044  0.01301  0.59549  1.0000
  H   H1084     1.0  0.10535  0.31203  0.59056  1.0000
  Fe  Fe148     1.0  0.47972  0.16749  0.67059  1.0000
  N   N70       1.0  0.11352  0.19666  0.69040  1.0000
  C   C697      1.0  0.11273  0.21347  0.68837  1.0000
  C   C698      1.0  0.09929  0.19468  0.68709  1.0000
  C   C699      1.0  0.11454  0.18857  0.70660  1.0000
  C   C700      1.0  0.12752  0.18994  0.67956  1.0000
  H   H1085     1.0  0.11209  0.21997  0.67622  1.0000
  H   H1086     1.0  0.12317  0.21542  0.69095  1.0000
  H   H1087     1.0  0.10216  0.21899  0.69622  1.0000
  H   H1088     1.0  0.09976  0.18222  0.68777  1.0000
  H   H1089     1.0  0.08858  0.19894  0.69559  1.0000
  H   H1090     1.0  0.09762  0.20145  0.67529  1.0000
  H   H1091     1.0  0.10417  0.19345  0.71508  1.0000
  H   H1092     1.0  0.12519  0.18982  0.70944  1.0000
  H   H1093     1.0  0.11511  0.17586  0.70856  1.0000
  H   H1094     1.0  0.12755  0.19631  0.66727  1.0000
  H   H1095     1.0  0.12819  0.17741  0.68030  1.0000
  H   H1096     1.0  0.13846  0.19056  0.68229  1.0000
  C   C701      1.0  0.43258  0.07439  0.67536  1.0000
  N   N71       1.0  0.41959  0.08831  0.67411  1.0000
  H   H1097     1.0  0.42622  0.09884  0.68889  1.0000
  H   H1098     1.0  0.05796  0.33439  0.58688  1.0000
  C   C702      1.0  0.31985  0.13422  0.61503  1.0000
  H   H1099     1.0  0.07104  0.35845  0.61869  1.0000
  H   H1100     1.0  0.21563  0.11218  0.60205  1.0000
  H   H1101     1.0  0.10003  0.32039  0.64417  1.0000
  H   H1102     1.0  0.44468  0.11004  0.72018  1.0000
  H   H1103     1.0  0.06777  0.35566  0.63949  1.0000
  H   H1104     1.0  0.30605  0.10112  0.73155  1.0000
  C   C703      1.0  0.09336  0.33275  0.64308  1.0000
  S   S287      1.0  0.12876  0.03497  0.63308  1.0000
  N   N72       1.0  0.16338  0.37308  0.72211  1.0000
  C   C704      1.0  0.17721  0.36539  0.72903  1.0000
  C   C705      1.0  0.15087  0.38098  0.73340  1.0000
  C   C706      1.0  0.15771  0.36122  0.71834  1.0000
  C   C707      1.0  0.16763  0.38472  0.70772  1.0000
  H   H1105     1.0  0.18689  0.35927  0.72088  1.0000
  H   H1106     1.0  0.17429  0.35650  0.73989  1.0000
  H   H1107     1.0  0.18173  0.37395  0.73220  1.0000
  H   H1108     1.0  0.14024  0.38694  0.72856  1.0000
  H   H1109     1.0  0.14732  0.37247  0.74433  1.0000
  H   H1110     1.0  0.15477  0.38989  0.73669  1.0000
  H   H1111     1.0  0.14702  0.36652  0.71347  1.0000
  H   H1112     1.0  0.15468  0.35209  0.72888  1.0000
  H   H1113     1.0  0.16669  0.35519  0.70963  1.0000
  H   H1114     1.0  0.17709  0.37918  0.69896  1.0000
  H   H1115     1.0  0.17180  0.39398  0.71013  1.0000
  H   H1116     1.0  0.15739  0.39055  0.70221  1.0000
  H   H1117     1.0  0.06350  0.46079  0.70974  1.0000
  H   H1118     1.0  0.20741  0.18483  0.63178  1.0000
  H   H1119     1.0  0.02723  0.23465  0.58254  1.0000
  C   C708      1.0  0.48487  0.99327  0.77055  1.0000
  C   C709      1.0  0.05609  0.47137  0.70371  1.0000
  C   C710      1.0  0.99816  0.47690  0.67039  1.0000
  S   S288      1.0  0.00694  0.46602  0.65601  1.0000
  H   H1120     1.0  0.02412  0.99930  0.63723  1.0000
  C   C711      1.0  0.08225  0.32474  0.58745  1.0000
  C   C712      1.0  0.21227  0.20417  0.60330  1.0000
  H   H1121     1.0  0.31794  0.12708  0.62712  1.0000
  H   H1122     1.0  0.30726  0.18837  0.73569  1.0000
  H   H1123     1.0  0.07620  0.15618  0.59895  1.0000
  S   S289      1.0  0.28130  0.20496  0.75953  1.0000
  C   C713      1.0  0.04796  0.29494  0.76785  1.0000
  S   S290      1.0  0.45739  0.99484  0.76323  1.0000
  H   H1124     1.0  0.34601  0.16622  0.74397  1.0000
  H   H1125     1.0  0.07952  0.20543  0.59247  1.0000
  H   H1126     1.0  0.46295  0.20714  0.61016  1.0000
  H   H1127     1.0  0.47165  0.19424  0.59690  1.0000
  H   H1128     1.0  0.08258  0.01742  0.68579  1.0000
  H   H1129     1.0  0.05208  0.11877  0.61735  1.0000
  H   H1130     1.0  0.11013  0.98852  0.63613  1.0000
  H   H1131     1.0  0.33409  0.18581  0.76063  1.0000
  H   H1132     1.0  0.34755  0.09983  0.75273  1.0000
  H   H1133     1.0  0.35782  0.09757  0.76775  1.0000
  H   H1134     1.0  0.24552  0.20634  0.76989  1.0000
  H   H1135     1.0  0.04792  0.16121  0.60090  1.0000
  H   H1136     1.0  0.43548  0.07114  0.68703  1.0000
  H   H1137     1.0  0.02629  0.38230  0.73821  1.0000
  H   H1138     1.0  0.32157  0.11146  0.72401  1.0000
  H   H1139     1.0  0.07585  0.22885  0.60926  1.0000
  C   C714      1.0  0.29806  0.10596  0.70390  1.0000
  H   H1140     1.0  0.02722  0.47841  0.73525  1.0000
  H   H1141     1.0  0.40152  0.07521  0.68375  1.0000
  H   H1142     1.0  0.35289  0.19228  0.73556  1.0000
  H   H1143     1.0  0.48582  0.12437  0.71900  1.0000
  H   H1144     1.0  0.42947  0.06414  0.67362  1.0000
  C   C715      1.0  0.32753  0.08163  0.77000  1.0000
  H   H1145     1.0  0.22269  0.23010  0.73216  1.0000
  H   H1146     1.0  0.00718  0.38168  0.60656  1.0000
  H   H1147     1.0  0.18289  0.14185  0.58718  1.0000
  C   C716      1.0  0.24837  0.20921  0.73925  1.0000
  C   C717      1.0  0.04636  0.40441  0.74603  1.0000
  C   C718      1.0  0.07080  0.46440  0.59263  1.0000
  H   H1148     1.0  0.48220  0.03787  0.75788  1.0000
  H   H1149     1.0  0.06417  0.02556  0.67993  1.0000
  H   H1150     1.0  0.00917  0.40656  0.76926  1.0000
  C   C719      1.0  0.34276  0.19673  0.72978  1.0000
  C   C720      1.0  0.99279  0.23469  0.60500  1.0000
  H   H1151     1.0  0.25644  0.41954  0.76369  1.0000
  C   C721      1.0  0.00967  0.39251  0.59801  1.0000
  C   C722      1.0  0.35416  0.14814  0.58208  1.0000
  C   C723      1.0  0.05897  0.14197  0.62551  1.0000
  C   C724      1.0  0.07663  0.02645  0.67705  1.0000
  H   H1152     1.0  0.06144  0.25465  0.63776  1.0000
  H   H1153     1.0  0.08214  0.02328  0.66554  1.0000
  S   S291      1.0  0.04861  0.36720  0.58367  1.0000
  N   N73       1.0  0.45751  0.01181  0.71512  1.0000
  C   C725      1.0  0.05495  0.12943  0.66478  1.0000
  H   H1154     1.0  0.04833  0.22554  0.61652  1.0000
  H   H1155     1.0  0.17624  0.19881  0.62407  1.0000
  S   S292      1.0  0.15145  0.33784  0.76111  1.0000
  C   C726      1.0  0.31703  0.19444  0.72974  1.0000
  H   H1156     1.0  0.46599  0.99785  0.69779  1.0000
  C   C727      1.0  0.15778  0.02592  0.59124  1.0000
  N   N74       1.0  0.17590  0.03975  0.62674  1.0000
  C   C728      1.0  0.16929  0.05061  0.61370  1.0000
  C   C729      1.0  0.16593  0.04331  0.64165  1.0000
  C   C730      1.0  0.19191  0.04160  0.62516  1.0000
  H   H1157     1.0  0.17676  0.04862  0.60226  1.0000
  H   H1158     1.0  0.16832  0.06300  0.61387  1.0000
  H   H1159     1.0  0.15742  0.04915  0.61422  1.0000
  H   H1160     1.0  0.17053  0.03536  0.65178  1.0000
  H   H1161     1.0  0.16522  0.05549  0.64229  1.0000
  H   H1162     1.0  0.15374  0.04211  0.64312  1.0000
  H   H1163     1.0  0.19187  0.05377  0.62531  1.0000
  H   H1164     1.0  0.19972  0.03900  0.61399  1.0000
  H   H1165     1.0  0.20180  0.07885  0.72679  1.0000
  C   C731      1.0  0.46926  0.17754  0.62635  1.0000
  H   H1166     1.0  0.19154  0.18602  0.61358  1.0000
  C   C732      1.0  0.31248  0.15859  0.62336  1.0000
  H   H1167     1.0  0.31212  0.20708  0.72960  1.0000
  H   H1168     1.0  0.02125  0.24811  0.67189  1.0000
  H   H1169     1.0  0.30138  0.13596  0.71698  1.0000
  C   C733      1.0  0.04060  0.12762  0.67500  1.0000
  N   N75       1.0  0.46667  0.11603  0.71735  1.0000
  C   C734      1.0  0.32452  0.19020  0.75412  1.0000
  S   S293      1.0  0.05773  0.18565  0.60766  1.0000
  H   H1170     1.0  0.28914  0.10150  0.71402  1.0000
  H   H1171     1.0  0.31274  0.12851  0.68493  1.0000
  H   H1172     1.0  0.19895  0.08695  0.74342  1.0000
  Fe  Fe149     1.0  0.03697  0.18456  0.62770  1.0000
  C   C735      1.0  0.22657  0.23114  0.74227  1.0000
  N   N76       1.0  0.23448  0.21578  0.75028  1.0000
  N   N77       1.0  0.30656  0.11513  0.70827  1.0000
  H   H1173     1.0  0.28886  0.13630  0.70483  1.0000
  H   H1174     1.0  0.23450  0.23948  0.73780  1.0000
  H   H1175     1.0  0.05700  0.05383  0.66827  1.0000
  H   H1176     1.0  0.16910  0.13864  0.61512  1.0000
  H   H1177     1.0  0.20572  0.10989  0.62223  1.0000
  H   H1178     1.0  0.32387  0.08905  0.75917  1.0000
  S   S294      1.0  0.01742  0.20548  0.62957  1.0000
  C   C736      1.0  0.34953  0.12252  0.58477  1.0000
  H   H1179     1.0  0.36050  0.10405  0.60143  1.0000
  H   H1180     1.0  0.25350  0.15162  0.57999  1.0000
  H   H1181     1.0  0.09234  0.34063  0.60478  1.0000
  S   S295      1.0  0.45095  0.08610  0.76222  1.0000
  H   H1182     1.0  0.05768  0.37372  0.74626  1.0000
  C   C737      1.0  0.31832  0.12073  0.69454  1.0000
  C   C738      1.0  0.11710  0.10214  0.58205  1.0000
  H   H1183     1.0  0.40741  0.08135  0.69786  1.0000
  H   H1184     1.0  0.43474  0.10434  0.66843  1.0000
  H   H1185     1.0  0.22930  0.22268  0.77217  1.0000
  H   H1186     1.0  0.05113  0.14650  0.59015  1.0000
  C   C739      1.0  0.07695  0.35425  0.62871  1.0000
  C   C740      1.0  0.09742  0.44992  0.58631  1.0000
  H   H1187     1.0  0.10997  0.44899  0.58587  1.0000
  C   C741      1.0  0.07692  0.14349  0.60049  1.0000
  H   H1188     1.0  0.02905  0.38311  0.75667  1.0000
  C   C742      1.0  0.04913  0.14849  0.60207  1.0000
  C   C743      1.0  0.44638  0.07841  0.74893  1.0000
  C   C744      1.0  0.20305  0.19757  0.63119  1.0000
  H   H1189     1.0  0.19308  0.19904  0.64134  1.0000
  H   H1190     1.0  0.01835  0.39997  0.74526  1.0000
  N   N78       1.0  0.20107  0.10344  0.72143  1.0000
  C   C745      1.0  0.20949  0.10366  0.70508  1.0000
  C   C746      1.0  0.20572  0.11463  0.72731  1.0000
  H   H1191     1.0  0.20691  0.11555  0.69774  1.0000
  H   H1192     1.0  0.20602  0.09571  0.70002  1.0000
  H   H1193     1.0  0.22242  0.10028  0.70393  1.0000
  H   H1194     1.0  0.18013  0.09993  0.71759  1.0000
  H   H1195     1.0  0.20285  0.12675  0.72033  1.0000
  H   H1196     1.0  0.21859  0.11178  0.72652  1.0000
  H   H1197     1.0  0.31953  0.20270  0.75465  1.0000
  H   H1198     1.0  0.25081  0.39625  0.75846  1.0000
  C   C747      1.0  0.06526  0.41991  0.61089  1.0000
  C   C748      1.0  0.04271  0.42630  0.59924  1.0000
  H   H1199     1.0  0.31086  0.15244  0.63583  1.0000
  C   C749      1.0  0.09902  0.03344  0.63255  1.0000
  N   N79       1.0  0.33641  0.08928  0.77577  1.0000
  H   H1200     1.0  0.21984  0.20314  0.74619  1.0000
  C   C750      1.0  0.04162  0.40520  0.72114  1.0000
  H   H1201     1.0  0.07013  0.30094  0.74232  1.0000
  N   N80       1.0  0.05692  0.24075  0.62475  1.0000
  C   C751      1.0  0.07472  0.32778  0.63183  1.0000
  H   H1202     1.0  0.45452  0.98914  0.71567  1.0000
  H   H1203     1.0  0.34070  0.16948  0.72567  1.0000
  H   H1204     1.0  0.04941  0.21931  0.63667  1.0000
  C   C752      1.0  0.00933  0.42998  0.76956  1.0000
  H   H1205     1.0  0.17388  0.11746  0.60121  1.0000
  H   H1206     1.0  0.06282  0.47482  0.59680  1.0000
  C   C753      1.0  0.18080  0.13365  0.61806  1.0000
  C   C754      1.0  0.18523  0.11274  0.60494  1.0000
  Fe  Fe150     1.0  0.47409  0.07525  0.76891  1.0000
  S   S296      1.0  0.29472  0.12220  0.58841  1.0000
  C   C755      1.0  0.24904  0.08479  0.57889  1.0000
  S   S297      1.0  0.10717  0.33396  0.76570  1.0000
  H   H1207     1.0  0.25449  0.19762  0.74494  1.0000
  H   H1208     1.0  0.32339  0.16084  0.59300  1.0000
  C   C756      1.0  0.47412  0.19956  0.60526  1.0000
  H   H1209     1.0  0.06895  0.46482  0.58100  1.0000
  H   H1210     1.0  0.07315  0.31681  0.76658  1.0000
  H   H1211     1.0  0.99286  0.22203  0.60751  1.0000
  H   H1212     1.0  0.28349  0.23273  0.76723  1.0000
  H   H1213     1.0  0.03296  0.32509  0.75991  1.0000
  H   H1214     1.0  0.06261  0.29164  0.58560  1.0000
  H   H1215     1.0  0.20219  0.13049  0.58181  1.0000
  S   S298      1.0  0.34075  0.11012  0.57997  1.0000
  C   C757      1.0  0.28702  0.20772  0.77531  1.0000
  H   H1216     1.0  0.01498  0.98692  0.67258  1.0000
  C   C758      1.0  0.04260  0.32273  0.76606  1.0000
  S   S299      1.0  0.27486  0.09314  0.58063  1.0000
  H   H1217     1.0  0.00893  0.45218  0.77374  1.0000
  H   H1218     1.0  0.04442  0.98972  0.63510  1.0000
  C   C759      1.0  0.05119  0.23575  0.57959  1.0000
  N   N81       1.0  0.99573  0.40204  0.59197  1.0000
  H   H1219     1.0  0.16823  0.03013  0.59088  1.0000
  C   C760      1.0  0.28726  0.22279  0.77608  1.0000
  H   H1220     1.0  0.99715  0.32907  0.58268  1.0000
  H   H1221     1.0  0.06146  0.48145  0.70187  1.0000
  H   H1222     1.0  0.07716  0.29629  0.76775  1.0000
  H   H1223     1.0  0.32287  0.11234  0.76854  1.0000
  C   C761      1.0  0.06764  0.30653  0.77042  1.0000
  H   H1224     1.0  0.05692  0.28429  0.76534  1.0000
  H   H1225     1.0  0.07573  0.23317  0.57824  1.0000
  S   S300      1.0  0.20132  0.02980  0.58443  1.0000
  H   H1226     1.0  0.04797  0.28332  0.58317  1.0000
  H   H1227     1.0  0.44425  0.04866  0.76984  1.0000
  H   H1228     1.0  0.04518  0.31791  0.57925  1.0000
  C   C762      1.0  0.00934  0.41424  0.77622  1.0000
  C   C763      1.0  0.16851  0.34657  0.77639  1.0000
  H   H1229     1.0  0.42353  0.05229  0.77171  1.0000
  C   C764      1.0  0.43391  0.04327  0.77491  1.0000
  H   H1230     1.0  0.43560  0.03348  0.76921  1.0000
  H   H1231     1.0  0.14054  0.05328  0.57867  1.0000
  S   S301      1.0  0.99388  0.48343  0.74116  1.0000
  C   C765      1.0  0.34732  0.13843  0.57776  1.0000
  H   H1232     1.0  0.99184  0.26122  0.61280  1.0000
  C   C766      1.0  0.20345  0.00200  0.57731  1.0000
  C   C767      1.0  0.27055  0.39104  0.77725  1.0000
  S   S302      1.0  0.35906  0.35267  0.88619  1.0000
  H   H1233     1.0  0.21477  0.41498  0.91568  1.0000
  C   C768      1.0  0.43516  0.25016  0.90967  1.0000
  H   H1234     1.0  0.48854  0.20721  0.93254  1.0000
  H   H1235     1.0  0.41669  0.27522  0.87711  1.0000
  C   C769      1.0  0.44187  0.22716  0.89896  1.0000
  H   H1236     1.0  0.31684  0.07912  0.77883  1.0000
  C   C770      1.0  0.30456  0.31162  0.83777  1.0000
  C   C771      1.0  0.31497  0.37740  0.88783  1.0000
  Fe  Fe151     1.0  0.30428  0.02486  0.86076  1.0000
  S   S303      1.0  0.31508  0.03275  0.87570  1.0000
  S   S304      1.0  0.29700  0.00179  0.86931  1.0000
  Fe  Fe152     1.0  0.30758  0.05314  0.83458  1.0000
  S   S305      1.0  0.31895  0.06340  0.84693  1.0000
  S   S306      1.0  0.30264  0.06447  0.81078  1.0000
  Fe  Fe153     1.0  0.33242  0.03894  0.85356  1.0000
  S   S307      1.0  0.35766  0.03606  0.85338  1.0000
  Fe  Fe154     1.0  0.30066  0.05656  0.86800  1.0000
  S   S308      1.0  0.28777  0.07187  0.88532  1.0000
  S   S309      1.0  0.32293  0.02917  0.83915  1.0000
  S   S310      1.0  0.28801  0.04815  0.85514  1.0000
  H   H1237     1.0  0.00741  0.44218  0.80208  1.0000
  H   H1238     1.0  0.01408  0.38013  0.95290  1.0000
  C   C772      1.0  0.35041  0.38687  0.81750  1.0000
  C   C773      1.0  0.00894  0.43998  0.77884  1.0000
  Fe  Fe155     1.0  0.00005  0.36188  0.85865  1.0000
  C   C774      1.0  0.47179  0.37740  0.79668  1.0000
  S   S311      1.0  0.01076  0.35409  0.87977  1.0000
  Fe  Fe156     1.0  0.00449  0.35563  0.82662  1.0000
  S   S312      1.0  0.01971  0.33990  0.81058  1.0000
  H   H1239     1.0  0.31636  0.31378  0.83135  1.0000
  C   C775      1.0  0.25101  0.30008  0.82564  1.0000
  S   S313      1.0  0.01703  0.36745  0.83616  1.0000
  H   H1240     1.0  0.28299  0.34280  0.81697  1.0000
  Fe  Fe157     1.0  0.37966  0.25268  0.91601  1.0000
  S   S314      1.0  0.38148  0.26373  0.93421  1.0000
  S   S315      1.0  0.39790  0.24961  0.89427  1.0000
  Fe  Fe158     1.0  0.34974  0.24296  0.93415  1.0000
  S   S316      1.0  0.34832  0.25336  0.95392  1.0000
  S   S317      1.0  0.33056  0.23115  0.93610  1.0000
  Fe  Fe159     1.0  0.35574  0.27354  0.93582  1.0000
  S   S318      1.0  0.34491  0.29670  0.94236  1.0000
  Fe  Fe160     1.0  0.37382  0.24287  0.95121  1.0000
  H   H1241     1.0  0.36931  0.38579  0.82782  1.0000
  S   S319      1.0  0.35443  0.26435  0.91597  1.0000
  S   S320      1.0  0.37482  0.23067  0.93286  1.0000
  S   S321      1.0  0.28314  0.24026  0.84349  1.0000
  S   S322      1.0  0.29578  0.27105  0.84188  1.0000
  Fe  Fe161     1.0  0.30203  0.24538  0.85120  1.0000
  S   S323      1.0  0.30865  0.23559  0.87439  1.0000
  Fe  Fe162     1.0  0.32944  0.15369  0.92210  1.0000
  S   S324      1.0  0.30677  0.16070  0.93834  1.0000
  S   S325      1.0  0.34945  0.16520  0.91837  1.0000
  Fe  Fe163     1.0  0.31766  0.12963  0.91366  1.0000
  S   S326      1.0  0.29386  0.13482  0.92945  1.0000
  S   S327      1.0  0.32619  0.11452  0.89584  1.0000
  Fe  Fe164     1.0  0.29553  0.15988  0.91996  1.0000
  S   S328      1.0  0.27613  0.18001  0.91312  1.0000
  Fe  Fe165     1.0  0.30731  0.13528  0.94659  1.0000
  H   H1242     1.0  0.43653  0.32259  0.88019  1.0000
  S   S329      1.0  0.31823  0.15479  0.90288  1.0000
  S   S330      1.0  0.33105  0.12798  0.93161  1.0000
  S   S331      1.0  0.17035  0.40740  0.91039  1.0000
  S   S332      1.0  0.18401  0.41189  0.94497  1.0000
  C   C776      1.0  0.42724  0.23137  0.89494  1.0000
  C   C777      1.0  0.22649  0.41704  0.91118  1.0000
  H   H1243     1.0  0.32607  0.40315  0.88238  1.0000
  S   S333      1.0  0.19065  0.36274  0.86560  1.0000
  Fe  Fe166     1.0  0.07387  0.39230  0.88951  1.0000
  S   S334      1.0  0.07837  0.37184  0.90927  1.0000
  S   S335      1.0  0.05668  0.39712  0.87419  1.0000
  Fe  Fe167     1.0  0.09684  0.40820  0.89421  1.0000
  S   S336      1.0  0.10330  0.38925  0.91433  1.0000
  S   S337      1.0  0.10717  0.42930  0.88734  1.0000
  Fe  Fe168     1.0  0.10363  0.37321  0.89966  1.0000
  S   S338      1.0  0.12293  0.35169  0.89923  1.0000
  Fe  Fe169     1.0  0.07770  0.38963  0.92232  1.0000
  S   S339      1.0  0.06410  0.38930  0.94717  1.0000
  S   S340      1.0  0.09931  0.39213  0.87870  1.0000
  S   S341      1.0  0.07109  0.41011  0.90331  1.0000
  H   H1244     1.0  0.35748  0.32130  0.88717  1.0000
  H   H1245     1.0  0.26786  0.32272  0.83067  1.0000
  H   H1246     1.0  0.25253  0.43225  0.91946  1.0000
  C   C778      1.0  0.17168  0.36041  0.87528  1.0000
  C   C779      1.0  0.15849  0.37177  0.87172  1.0000
  C   C780      1.0  0.14340  0.36953  0.87964  1.0000
  C   C781      1.0  0.14153  0.35569  0.89065  1.0000
  C   C782      1.0  0.15473  0.34448  0.89434  1.0000
  C   C783      1.0  0.16977  0.34696  0.88685  1.0000
  H   H1247     1.0  0.15991  0.38233  0.86298  1.0000
  H   H1248     1.0  0.13324  0.37826  0.87683  1.0000
  H   H1249     1.0  0.15334  0.33377  0.90286  1.0000
  H   H1250     1.0  0.17996  0.33821  0.88969  1.0000
  C   C784      1.0  0.15364  0.41441  0.90244  1.0000
  C   C785      1.0  0.14957  0.40489  0.89528  1.0000
  C   C786      1.0  0.13533  0.40952  0.89051  1.0000
  C   C787      1.0  0.12549  0.42401  0.89219  1.0000
  C   C788      1.0  0.13010  0.43403  0.89830  1.0000
  C   C789      1.0  0.14412  0.42916  0.90357  1.0000
  H   H1251     1.0  0.15721  0.39378  0.89377  1.0000
  H   H1252     1.0  0.13190  0.40193  0.88549  1.0000
  H   H1253     1.0  0.12258  0.44533  0.89942  1.0000
  H   H1254     1.0  0.14747  0.43683  0.90851  1.0000
  C   C790      1.0  0.42458  0.32043  0.88577  1.0000
  H   H1255     1.0  0.16583  0.35416  0.92088  1.0000
  H   H1256     1.0  0.47946  0.35269  0.81888  1.0000
  N   N82       1.0  0.41387  0.33426  0.89121  1.0000
  H   H1257     1.0  0.15450  0.36971  0.90914  1.0000
  C   C791      1.0  0.43045  0.23549  0.97195  1.0000
  C   C792      1.0  0.03580  0.39663  0.91883  1.0000
  H   H1258     1.0  0.23097  0.40661  0.89153  1.0000
  H   H1259     1.0  0.14734  0.47800  0.96256  1.0000
  H   H1260     1.0  0.23016  0.30706  0.84252  1.0000
  H   H1261     1.0  0.32516  0.36853  0.89164  1.0000
  C   C793      1.0  0.29868  0.22118  0.88629  1.0000
  C   C794      1.0  0.30690  0.20803  0.89510  1.0000
  C   C795      1.0  0.29982  0.19553  0.90333  1.0000
  C   C796      1.0  0.28433  0.19626  0.90332  1.0000
  C   C797      1.0  0.27581  0.20968  0.89503  1.0000
  C   C798      1.0  0.28304  0.22212  0.88638  1.0000
  H   H1262     1.0  0.31898  0.20719  0.89510  1.0000
  H   H1263     1.0  0.30648  0.18517  0.90950  1.0000
  H   H1264     1.0  0.26380  0.21031  0.89494  1.0000
  H   H1265     1.0  0.27659  0.23234  0.87966  1.0000
  C   C799      1.0  0.33610  0.21255  0.93179  1.0000
  C   C800      1.0  0.35180  0.20468  0.92861  1.0000
  C   C801      1.0  0.35584  0.19013  0.92452  1.0000
  C   C802      1.0  0.34418  0.18329  0.92381  1.0000
  C   C803      1.0  0.32851  0.19111  0.92718  1.0000
  C   C804      1.0  0.32447  0.20570  0.93111  1.0000
  H   H1266     1.0  0.36090  0.20970  0.92918  1.0000
  H   H1267     1.0  0.36801  0.18413  0.92195  1.0000
  H   H1268     1.0  0.31950  0.18614  0.92643  1.0000
  H   H1269     1.0  0.31233  0.21183  0.93328  1.0000
  C   C805      1.0  0.44799  0.22041  0.95368  1.0000
  H   H1270     1.0  0.25960  0.19928  0.93814  1.0000
  H   H1271     1.0  0.42138  0.32801  0.91286  1.0000
  H   H1272     1.0  0.34530  0.07547  0.87651  1.0000
  C   C806      1.0  0.48304  0.31156  0.90915  1.0000
  C   C807      1.0  0.33841  0.28616  0.82088  1.0000
  H   H1273     1.0  0.38292  0.26220  0.96357  1.0000
  H   H1274     1.0  0.48462  0.33809  0.80759  1.0000
  H   H1275     1.0  0.34196  0.38745  0.87683  1.0000
  H   H1276     1.0  0.48318  0.30314  0.91997  1.0000
  C   C808      1.0  0.41636  0.24467  0.89882  1.0000
  C   C809      1.0  0.42031  0.25405  0.90622  1.0000
  H   H1277     1.0  0.24533  0.45040  0.88141  1.0000
  H   H1278     1.0  0.41202  0.26449  0.90900  1.0000
  C   C810      1.0  0.34106  0.07901  0.79012  1.0000
  C   C811      1.0  0.02323  0.36610  0.87891  1.0000
  C   C812      1.0  0.03521  0.36052  0.88726  1.0000
  C   C813      1.0  0.04555  0.36995  0.88608  1.0000
  C   C814      1.0  0.04370  0.38507  0.87678  1.0000
  C   C815      1.0  0.03149  0.39072  0.86877  1.0000
  C   C816      1.0  0.02140  0.38124  0.86971  1.0000
  H   H1279     1.0  0.03672  0.34877  0.89431  1.0000
  H   H1280     1.0  0.05510  0.36541  0.89208  1.0000
  H   H1281     1.0  0.02988  0.40247  0.86170  1.0000
  H   H1282     1.0  0.01211  0.38571  0.86336  1.0000
  H   H1283     1.0  0.29732  0.39326  0.86668  1.0000
  C   C817      1.0  0.41874  0.02976  0.79815  1.0000
  C   C818      1.0  0.02039  0.38898  0.94458  1.0000
  C   C819      1.0  0.03277  0.36515  0.79665  1.0000
  C   C820      1.0  0.03484  0.34903  0.79890  1.0000
  C   C821      1.0  0.47778  0.35813  0.78117  1.0000
  H   H1284     1.0  0.20431  0.46916  0.89696  1.0000
  H   H1285     1.0  0.36150  0.30966  0.82142  1.0000
  C   C822      1.0  0.25065  0.41529  0.89150  1.0000
  C   C823      1.0  0.29741  0.19721  0.79873  1.0000
  H   H1286     1.0  0.46512  0.35813  0.78328  1.0000
  C   C824      1.0  0.29750  0.08500  0.88759  1.0000
  C   C825      1.0  0.31035  0.08922  0.87626  1.0000
  C   C826      1.0  0.31856  0.09892  0.87868  1.0000
  C   C827      1.0  0.31405  0.10442  0.89246  1.0000
  C   C828      1.0  0.30077  0.10077  0.90355  1.0000
  C   C829      1.0  0.29248  0.09111  0.90108  1.0000
  H   H1287     1.0  0.31411  0.08492  0.86568  1.0000
  H   H1288     1.0  0.32866  0.10195  0.86995  1.0000
  H   H1289     1.0  0.29722  0.10497  0.91423  1.0000
  H   H1290     1.0  0.28247  0.08796  0.90987  1.0000
  H   H1291     1.0  0.21549  0.44984  0.78894  1.0000
  H   H1292     1.0  0.17426  0.48154  0.95450  1.0000
  C   C830      1.0  0.29730  0.00106  0.83936  1.0000
  H   H1293     1.0  0.24824  0.38020  0.80074  1.0000
  H   H1294     1.0  0.13481  0.37978  0.79014  1.0000
  H   H1295     1.0  0.02755  0.40810  0.91637  1.0000
  H   H1296     1.0  0.29604  0.00029  0.81642  1.0000
  H   H1297     1.0  0.29641  0.01355  0.83654  1.0000
  Fe  Fe170     1.0  0.48280  0.37428  0.83993  1.0000
  C   C831      1.0  0.46962  0.32746  0.88883  1.0000
  C   C832      1.0  0.27991  0.11624  0.80597  1.0000
  C   C833      1.0  0.28839  0.10854  0.81754  1.0000
  C   C834      1.0  0.29535  0.09263  0.81905  1.0000
  C   C835      1.0  0.29396  0.08438  0.80894  1.0000
  C   C836      1.0  0.28587  0.09217  0.79705  1.0000
  C   C837      1.0  0.27881  0.10811  0.79558  1.0000
  H   H1298     1.0  0.28972  0.11492  0.82524  1.0000
  H   H1299     1.0  0.30189  0.08683  0.82797  1.0000
  N   N83       1.0  0.22800  0.47104  0.88574  1.0000
  H   H1300     1.0  0.03336  0.36000  0.93984  1.0000
  H   H1301     1.0  0.30008  0.40655  0.87635  1.0000
  H   H1302     1.0  0.49044  0.20389  0.90628  1.0000
  C   C838      1.0  0.36359  0.04018  0.82170  1.0000
  C   C839      1.0  0.36673  0.04368  0.83431  1.0000
  C   C840      1.0  0.37659  0.05387  0.83164  1.0000
  C   C841      1.0  0.38289  0.06096  0.81636  1.0000
  H   H1303     1.0  0.30954  0.40690  0.85630  1.0000
  H   H1304     1.0  0.35609  0.03217  0.82374  1.0000
  H   H1305     1.0  0.37898  0.05665  0.84136  1.0000
  C   C842      1.0  0.30610  0.39903  0.86777  1.0000
  H   H1306     1.0  0.32928  0.25104  0.88123  1.0000
  H   H1307     1.0  0.43827  0.25769  0.91497  1.0000
  C   C843      1.0  0.00812  0.43432  0.79485  1.0000
  C   C844      1.0  0.33125  0.39580  0.87357  1.0000
  C   C845      1.0  0.00843  0.40862  0.79224  1.0000
  C   C846      1.0  0.00754  0.41871  0.80159  1.0000
  H   H1308     1.0  0.04471  0.39838  0.92399  1.0000
  H   H1309     1.0  0.33820  0.36938  0.86371  1.0000
  C   C847      1.0  0.35931  0.24165  0.86718  1.0000
  H   H1310     1.0  0.25302  0.46738  0.87770  1.0000
  H   H1311     1.0  0.21838  0.45958  0.90896  1.0000
  Fe  Fe171     1.0  0.46862  0.24863  0.92153  1.0000
  C   C848      1.0  0.44582  0.23652  0.90639  1.0000
  Fe  Fe172     1.0  0.16449  0.42820  0.95737  1.0000
  C   C849      1.0  0.35438  0.33732  0.90173  1.0000
  C   C850      1.0  0.35031  0.33942  0.91702  1.0000
  C   C851      1.0  0.34717  0.32693  0.92951  1.0000
  C   C852      1.0  0.34838  0.31230  0.92669  1.0000
  C   C853      1.0  0.35234  0.31024  0.91141  1.0000
  C   C854      1.0  0.35507  0.32283  0.89893  1.0000
  H   H1312     1.0  0.34967  0.35064  0.91922  1.0000
  H   H1313     1.0  0.34405  0.32854  0.94134  1.0000
  H   H1314     1.0  0.35300  0.29905  0.90917  1.0000
  H   H1315     1.0  0.41233  0.34833  0.90715  1.0000
  S   S342      1.0  0.45105  0.26428  0.93629  1.0000
  H   H1316     1.0  0.25864  0.17171  0.96646  1.0000
  S   S343      1.0  0.26386  0.44811  0.80265  1.0000
  Fe  Fe173     1.0  0.27347  0.14910  0.78014  1.0000
  H   H1317     1.0  0.17771  0.47351  0.97368  1.0000
  C   C855      1.0  0.07547  0.38533  0.96120  1.0000
  H   H1318     1.0  0.27710  0.30387  0.84016  1.0000
  H   H1319     1.0  0.38973  0.34115  0.90269  1.0000
  S   S344      1.0  0.18576  0.44157  0.91454  1.0000
  H   H1320     1.0  0.42431  0.35064  0.87201  1.0000
  H   H1321     1.0  0.33505  0.40370  0.86226  1.0000
  C   C856      1.0  0.28500  0.19485  0.94951  1.0000
  Fe  Fe174     1.0  0.27851  0.26577  0.83199  1.0000
  H   H1322     1.0  0.18220  0.35351  0.78816  1.0000
  S   S345      1.0  0.22060  0.43174  0.93501  1.0000
  H   H1323     1.0  0.16665  0.37406  0.91907  1.0000
  C   C857      1.0  0.23800  0.31085  0.83163  1.0000
  C   C858      1.0  0.22467  0.47501  0.87003  1.0000
  H   H1324     1.0  0.25683  0.21401  0.94877  1.0000
  C   C859      1.0  0.29768  0.21224  0.79953  1.0000
  C   C860      1.0  0.22060  0.42975  0.80721  1.0000
  C   C861      1.0  0.41269  0.34768  0.87779  1.0000
  N   N84       1.0  0.48126  0.36184  0.79438  1.0000
  S   S346      1.0  0.17719  0.44760  0.95002  1.0000
  C   C862      1.0  0.37974  0.05746  0.80375  1.0000
  H   H1325     1.0  0.47486  0.38096  0.80593  1.0000
  S   S347      1.0  0.45801  0.37912  0.83691  1.0000
  Fe  Fe175     1.0  0.19460  0.37072  0.83959  1.0000
  C   C863      1.0  0.24392  0.46116  0.88553  1.0000
  C   C864      1.0  0.42852  0.05147  0.79902  1.0000
  H   H1326     1.0  0.32552  0.23066  0.97035  1.0000
  H   H1327     1.0  0.04193  0.39343  0.90744  1.0000
  H   H1328     1.0  0.04305  0.29276  0.78066  1.0000
  H   H1329     1.0  0.30638  0.37101  0.88744  1.0000
  C   C865      1.0  0.15940  0.33947  0.85310  1.0000
  C   C866      1.0  0.24676  0.39313  0.79713  1.0000
  H   H1330     1.0  0.42698  0.04793  0.81191  1.0000
  H   H1331     1.0  0.34809  0.06740  0.78803  1.0000
  H   H1332     1.0  0.19123  0.46794  0.92464  1.0000
  H   H1333     1.0  0.36814  0.04384  0.79673  1.0000
  H   H1334     1.0  0.48586  0.09365  0.80815  1.0000
  Fe  Fe176     1.0  0.19570  0.43218  0.93593  1.0000
  C   C867      1.0  0.38608  0.25757  0.97466  1.0000
  N   N85       1.0  0.14837  0.34725  0.84268  1.0000
  Fe  Fe177     1.0  0.17203  0.42284  0.92491  1.0000
  H   H1335     1.0  0.42422  0.22410  0.88921  1.0000
  N   N86       1.0  0.31991  0.38751  0.87250  1.0000
  H   H1336     1.0  0.35691  0.41033  0.83708  1.0000
  Fe  Fe178     1.0  0.27278  0.44678  0.82366  1.0000
  H   H1337     1.0  0.12479  0.35816  0.94425  1.0000
  C   C868      1.0  0.32740  0.37780  0.86081  1.0000
  H   H1338     1.0  0.42054  0.25382  0.86379  1.0000
  C   C869      1.0  0.13479  0.35786  0.93399  1.0000
  H   H1339     1.0  0.21285  0.48272  0.86976  1.0000
  C   C870      1.0  0.47739  0.34994  0.80865  1.0000
  H   H1340     1.0  0.00788  0.39664  0.79742  1.0000
  H   H1341     1.0  0.28870  0.34144  0.83467  1.0000
  Fe  Fe179     1.0  0.46823  0.25630  0.95185  1.0000
  H   H1342     1.0  0.29710  0.30079  0.81659  1.0000
  N   N87       1.0  0.02765  0.38450  0.92941  1.0000
  H   H1343     1.0  0.47366  0.38659  0.78588  1.0000
  H   H1344     1.0  0.43195  0.34059  0.89751  1.0000
  H   H1345     1.0  0.36237  0.03327  0.88642  1.0000
  H   H1346     1.0  0.14097  0.34545  0.93433  1.0000
  H   H1347     1.0  0.00655  0.39416  0.92067  1.0000
  C   C871      1.0  0.04480  0.37261  0.78752  1.0000
  C   C872      1.0  0.26636  0.19441  0.97413  1.0000
  H   H1348     1.0  0.45309  0.23057  0.94668  1.0000
  C   C873      1.0  0.29190  0.33649  0.82409  1.0000
  H   H1349     1.0  0.28522  0.20722  0.94846  1.0000
  S   S348      1.0  0.47818  0.05304  0.78684  1.0000
  S   S349      1.0  0.27039  0.13586  0.80497  1.0000
  H   H1350     1.0  0.09687  0.37537  0.94679  1.0000
  H   H1351     1.0  0.13245  0.38866  0.92169  1.0000
  H   H1352     1.0  0.25233  0.39679  0.80451  1.0000
  H   H1353     1.0  0.41131  0.30125  0.83888  1.0000
  H   H1354     1.0  0.35758  0.21231  0.88463  1.0000
  H   H1355     1.0  0.31940  0.37100  0.85995  1.0000
  H   H1356     1.0  0.42590  0.31011  0.89563  1.0000
  H   H1357     1.0  0.27367  0.32046  0.84849  1.0000
  H   H1358     1.0  0.22972  0.48295  0.90221  1.0000
  S   S350      1.0  0.25408  0.28054  0.83597  1.0000
  C   C874      1.0  0.23653  0.44910  0.79563  1.0000
  S   S351      1.0  0.48104  0.27556  0.94000  1.0000
  H   H1359     1.0  0.33516  0.98943  0.78406  1.0000
  H   H1360     1.0  0.01188  0.40043  0.94325  1.0000
  H   H1361     1.0  0.02055  0.37993  0.91088  1.0000
  H   H1362     1.0  0.23399  0.39835  0.79986  1.0000
  C   C875      1.0  0.29193  0.19497  0.78680  1.0000
  S   S352      1.0  0.48452  0.23923  0.93813  1.0000
  S   S353      1.0  0.30534  0.21423  0.81441  1.0000
  H   H1363     1.0  0.40973  0.23817  0.95467  1.0000
  N   N88       1.0  0.29267  0.31951  0.82829  1.0000
  C   C876      1.0  0.27718  0.31652  0.83731  1.0000
  H   H1364     1.0  0.34835  0.08406  0.79451  1.0000
  H   H1365     1.0  0.40819  0.34515  0.86883  1.0000
  C   C877      1.0  0.29812  0.99251  0.85448  1.0000
  C   C878      1.0  0.17096  0.35576  0.78519  1.0000
  H   H1366     1.0  0.44540  0.02277  0.80849  1.0000
  C   C879      1.0  0.48262  0.33424  0.88155  1.0000
  N   N89       1.0  0.25714  0.10481  0.86055  1.0000
  C   C880      1.0  0.25885  0.11961  0.84914  1.0000
  C   C881      1.0  0.24130  0.10225  0.86263  1.0000
  C   C882      1.0  0.25944  0.10564  0.87564  1.0000
  C   C883      1.0  0.26895  0.09170  0.85479  1.0000
  H   H1367     1.0  0.27059  0.12202  0.84745  1.0000
  H   H1368     1.0  0.24996  0.12974  0.85296  1.0000
  H   H1369     1.0  0.25745  0.11932  0.83752  1.0000
  H   H1370     1.0  0.23967  0.09112  0.87114  1.0000
  H   H1371     1.0  0.23206  0.11188  0.86702  1.0000
  H   H1372     1.0  0.23923  0.10158  0.85143  1.0000
  H   H1373     1.0  0.25085  0.11548  0.88031  1.0000
  H   H1374     1.0  0.27141  0.10727  0.87452  1.0000
  H   H1375     1.0  0.25817  0.09467  0.88455  1.0000
  H   H1376     1.0  0.26785  0.08033  0.86306  1.0000
  H   H1377     1.0  0.28108  0.09303  0.85339  1.0000
  H   H1378     1.0  0.26772  0.09079  0.84333  1.0000
  N   N90       1.0  0.05836  0.38580  0.82440  1.0000
  C   C884      1.0  0.04285  0.39442  0.82118  1.0000
  C   C885      1.0  0.05691  0.37059  0.83514  1.0000
  C   C886      1.0  0.06415  0.39504  0.83164  1.0000
  C   C887      1.0  0.06946  0.38317  0.80966  1.0000
  C   C888      1.0  0.30856  0.15218  0.97716  1.0000
  H   H1379     1.0  0.03406  0.39620  0.83213  1.0000
  H   H1380     1.0  0.03825  0.38807  0.81532  1.0000
  H   H1381     1.0  0.04850  0.37211  0.84634  1.0000
  H   H1382     1.0  0.05261  0.36330  0.83001  1.0000
  H   H1383     1.0  0.06833  0.36381  0.83801  1.0000
  H   H1384     1.0  0.05578  0.39767  0.84250  1.0000
  H   H1385     1.0  0.06575  0.40644  0.82371  1.0000
  H   H1386     1.0  0.07554  0.38871  0.83485  1.0000
  H   H1387     1.0  0.07042  0.39436  0.80103  1.0000
  H   H1388     1.0  0.06568  0.37584  0.80415  1.0000
  H   H1389     1.0  0.08140  0.37708  0.81158  1.0000
  H   H1390     1.0  0.33957  0.06101  0.87070  1.0000
  S   S354      1.0  0.26128  0.41068  0.87373  1.0000
  H   H1391     1.0  0.44066  0.26953  0.85691  1.0000
  S   S355      1.0  0.15138  0.43776  0.93814  1.0000
  C   C889      1.0  0.43432  0.27770  0.84799  1.0000
  H   H1392     1.0  0.33087  0.38508  0.84903  1.0000
  H   H1393     1.0  0.39016  0.06918  0.81432  1.0000
  S   S356      1.0  0.48956  0.06075  0.82164  1.0000
  H   H1394     1.0  0.34272  0.27469  0.85839  1.0000
  H   H1395     1.0  0.11712  0.40126  0.97544  1.0000
  C   C890      1.0  0.23563  0.41231  0.89755  1.0000
  S   S357      1.0  0.38087  0.22984  0.97364  1.0000
  C   C891      1.0  0.29709  0.99353  0.82799  1.0000
  H   H1396     1.0  0.33290  0.11036  0.78357  1.0000
  C   C892      1.0  0.41102  0.28340  0.86774  1.0000
  H   H1397     1.0  0.30935  0.38433  0.89697  1.0000
  H   H1398     1.0  0.39818  0.28393  0.87178  1.0000
  H   H1399     1.0  0.35709  0.28576  0.97115  1.0000
  H   H1400     1.0  0.40181  0.26254  0.85895  1.0000
  H   H1401     1.0  0.41885  0.25835  0.84383  1.0000
  H   H1402     1.0  0.06339  0.30451  0.78329  1.0000
  H   H1403     1.0  0.18552  0.42313  0.97641  1.0000
  N   N91       1.0  0.26966  0.19136  0.95836  1.0000
  H   H1404     1.0  0.14178  0.36295  0.95871  1.0000
  N   N92       1.0  0.19510  0.41460  0.86284  1.0000
  C   C893      1.0  0.18361  0.42685  0.87029  1.0000
  C   C894      1.0  0.21109  0.41699  0.86032  1.0000
  C   C895      1.0  0.19171  0.41549  0.84771  1.0000
  C   C896      1.0  0.19397  0.39906  0.87301  1.0000
  H   H1405     1.0  0.17142  0.42541  0.87227  1.0000
  H   H1406     1.0  0.18418  0.43872  0.86296  1.0000
  H   H1407     1.0  0.18567  0.42642  0.88185  1.0000
  H   H1408     1.0  0.22009  0.40769  0.85511  1.0000
  H   H1409     1.0  0.21254  0.42840  0.85229  1.0000
  H   H1410     1.0  0.21387  0.41678  0.87148  1.0000
  H   H1411     1.0  0.20016  0.40646  0.84172  1.0000
  H   H1412     1.0  0.19242  0.42706  0.83969  1.0000
  H   H1413     1.0  0.17974  0.41368  0.84919  1.0000
  H   H1414     1.0  0.20248  0.38951  0.86777  1.0000
  H   H1415     1.0  0.18210  0.39679  0.87505  1.0000
  H   H1416     1.0  0.19628  0.39800  0.88462  1.0000
  C   C897      1.0  0.37037  0.04681  0.80641  1.0000
  C   C898      1.0  0.06844  0.38881  0.97593  1.0000
  C   C899      1.0  0.29244  0.22507  0.78825  1.0000
  S   S358      1.0  0.38781  0.06646  0.78480  1.0000
  H   H1417     1.0  0.28775  0.19292  0.93746  1.0000
  S   S359      1.0  0.32903  0.28256  0.80822  1.0000
  H   H1418     1.0  0.30340  0.33912  0.81720  1.0000
  H   H1419     1.0  0.34844  0.30423  0.80361  1.0000
  C   C900      1.0  0.29706  0.31345  0.81392  1.0000
  C   C901      1.0  0.09146  0.37850  0.95789  1.0000
  H   H1420     1.0  0.39239  0.27864  0.97459  1.0000
  H   H1421     1.0  0.43503  0.24614  0.96562  1.0000
  C   C902      1.0  0.34721  0.29773  0.81557  1.0000
  H   H1422     1.0  0.15787  0.34958  0.94956  1.0000
  H   H1423     1.0  0.32724  0.05054  0.91353  1.0000
  H   H1424     1.0  0.13114  0.41346  0.96975  1.0000
  H   H1425     1.0  0.03721  0.32110  0.77877  1.0000
  N   N93       1.0  0.31108  0.18394  0.85716  1.0000
  C   C903      1.0  0.30256  0.20043  0.85436  1.0000
  C   C904      1.0  0.32445  0.18240  0.86404  1.0000
  C   C905      1.0  0.31688  0.17887  0.84220  1.0000
  C   C906      1.0  0.30039  0.17417  0.86802  1.0000
  H   H1426     1.0  0.29768  0.20455  0.86537  1.0000
  H   H1427     1.0  0.29262  0.20218  0.84876  1.0000
  H   H1428     1.0  0.31035  0.20823  0.84655  1.0000
  H   H1429     1.0  0.32044  0.18616  0.87533  1.0000
  H   H1430     1.0  0.33117  0.17008  0.86634  1.0000
  H   H1431     1.0  0.33268  0.18974  0.85621  1.0000
  H   H1432     1.0  0.32484  0.18617  0.83372  1.0000
  H   H1433     1.0  0.30705  0.18010  0.83662  1.0000
  H   H1434     1.0  0.32339  0.16647  0.84379  1.0000
  H   H1435     1.0  0.30643  0.16162  0.87047  1.0000
  H   H1436     1.0  0.29010  0.17515  0.86324  1.0000
  H   H1437     1.0  0.29578  0.17777  0.87942  1.0000
  C   C907      1.0  0.32655  0.10433  0.77915  1.0000
  H   H1438     1.0  0.13976  0.36830  0.85147  1.0000
  H   H1439     1.0  0.43950  0.27382  0.83680  1.0000
  N   N94       1.0  0.14546  0.36755  0.93375  1.0000
  C   C908      1.0  0.15147  0.36202  0.94821  1.0000
  H   H1440     1.0  0.22868  0.41116  0.82554  1.0000
  S   S360      1.0  0.46389  0.23071  0.91196  1.0000
  C   C909      1.0  0.41454  0.26253  0.85490  1.0000
  H   H1441     1.0  0.34892  0.02929  0.90489  1.0000
  Fe  Fe180     1.0  0.99861  0.38871  0.83051  1.0000
  C   C910      1.0  0.06109  0.34777  0.78268  1.0000
  H   H1442     1.0  0.39649  0.29013  0.84419  1.0000
  S   S361      1.0  0.35346  0.34021  0.85063  1.0000
  N   N95       1.0  0.41732  0.27822  0.85285  1.0000
  H   H1443     1.0  0.29466  0.18733  0.95525  1.0000
  H   H1444     1.0  0.28876  0.31958  0.80615  1.0000
  H   H1445     1.0  0.41759  0.05990  0.79643  1.0000
  H   H1446     1.0  0.34469  0.30381  0.97520  1.0000
  H   H1447     1.0  0.45010  0.21664  0.89632  1.0000
  C   C911      1.0  0.23254  0.42437  0.91897  1.0000
  C   C912      1.0  0.25685  0.42232  0.89945  1.0000
  H   H1448     1.0  0.24658  0.45761  0.89732  1.0000
  H   H1449     1.0  0.42032  0.31726  0.87705  1.0000
  H   H1450     1.0  0.22519  0.33474  0.82862  1.0000
  H   H1451     1.0  0.32569  0.07010  0.90210  1.0000
  Fe  Fe181     1.0  0.36860  0.34350  0.86437  1.0000
  C   C913      1.0  0.23509  0.32652  0.82370  1.0000
  H   H1452     1.0  0.05086  0.32776  0.79427  1.0000
  H   H1453     1.0  0.02942  0.39007  0.95009  1.0000
  S   S362      1.0  0.21718  0.37813  0.82730  1.0000
  Fe  Fe182     1.0  0.16630  0.45563  0.92943  1.0000
  C   C914      1.0  0.24783  0.42668  0.91333  1.0000
  H   H1454     1.0  0.26853  0.42447  0.89485  1.0000
  H   H1455     1.0  0.39854  0.32086  0.90875  1.0000
  H   H1456     1.0  0.32999  0.26898  0.84060  1.0000
  C   C915      1.0  0.33624  0.41471  0.82809  1.0000
  N   N96       1.0  0.43189  0.03784  0.79197  1.0000
  C   C916      1.0  0.10304  0.43093  0.96485  1.0000
  H   H1457     1.0  0.15437  0.34198  0.86488  1.0000
  C   C917      1.0  0.40937  0.28931  0.84079  1.0000
  S   S363      1.0  0.38465  0.32012  0.86387  1.0000
  N   N97       1.0  0.25360  0.39810  0.78040  1.0000
  H   H1458     1.0  0.45527  0.21390  0.96238  1.0000
  H   H1459     1.0  0.45345  0.32423  0.85045  1.0000
  H   H1460     1.0  0.44911  0.01636  0.79068  1.0000
  S   S364      1.0  0.19624  0.35552  0.82342  1.0000
  H   H1461     1.0  0.36850  0.05418  0.89499  1.0000
  H   H1462     1.0  0.14459  0.39165  0.93246  1.0000
  H   H1463     1.0  0.43673  0.28945  0.84629  1.0000
  Fe  Fe183     1.0  0.31275  0.26609  0.82001  1.0000
  C   C918      1.0  0.26117  0.30505  0.81162  1.0000
  H   H1464     1.0  0.46627  0.34538  0.84916  1.0000
  H   H1465     1.0  0.34084  0.21876  0.89900  1.0000
  S   S365      1.0  0.32052  0.24064  0.83009  1.0000
  C   C919      1.0  0.24498  0.33147  0.80951  1.0000
  H   H1466     1.0  0.27116  0.29675  0.80687  1.0000
  C   C920      1.0  0.44816  0.33626  0.84600  1.0000
  H   H1467     1.0  0.34130  0.26060  0.88641  1.0000
  S   S366      1.0  0.32706  0.43118  0.83623  1.0000
  H   H1468     1.0  0.35485  0.05023  0.91330  1.0000
  S   S367      1.0  0.38391  0.35612  0.84413  1.0000
  S   S368      1.0  0.17972  0.39164  0.82721  1.0000
  C   C921      1.0  0.45545  0.34822  0.84526  1.0000
  C   C922      1.0  0.34731  0.22207  0.88677  1.0000
  H   H1469     1.0  0.33942  0.22285  0.87913  1.0000
  H   H1470     1.0  0.33224  0.24596  0.90073  1.0000
  H   H1471     1.0  0.39309  0.32808  0.89021  1.0000
  H   H1472     1.0  0.41370  0.28575  0.82941  1.0000
  S   S369      1.0  0.42486  0.32478  0.84238  1.0000
  C   C923      1.0  0.25807  0.32073  0.80349  1.0000
  C   C924      1.0  0.33813  0.24920  0.88823  1.0000
  H   H1473     1.0  0.35291  0.06965  0.90138  1.0000
  H   H1474     1.0  0.37397  0.22567  0.89078  1.0000
  C   C925      1.0  0.43400  0.33985  0.84115  1.0000
  C   C926      1.0  0.32882  0.40952  0.81964  1.0000
  C   C927      1.0  0.35597  0.05703  0.90105  1.0000
  C   C928      1.0  0.15882  0.36779  0.79014  1.0000
  H   H1475     1.0  0.12977  0.36203  0.92341  1.0000
  Fe  Fe184     1.0  0.39899  0.33237  0.84237  1.0000
  C   C929      1.0  0.35099  0.40623  0.83078  1.0000
  H   H1476     1.0  0.12467  0.34814  0.84227  1.0000
  H   H1477     1.0  0.13486  0.32953  0.85163  1.0000
  N   N98       1.0  0.35206  0.23700  0.88387  1.0000
  C   C930      1.0  0.42010  0.33800  0.90269  1.0000
  C   C931      1.0  0.32923  0.05759  0.90140  1.0000
  H   H1478     1.0  0.42118  0.01912  0.79342  1.0000
  Fe  Fe185     1.0  0.37084  0.31774  0.84818  1.0000
  Fe  Fe186     1.0  0.27100  0.43065  0.85734  1.0000
  C   C932      1.0  0.33682  0.27786  0.83637  1.0000
  C   C933      1.0  0.34416  0.28098  0.84640  1.0000
  C   C934      1.0  0.36349  0.23511  0.89333  1.0000
  H   H1479     1.0  0.36959  0.23249  0.86342  1.0000
  N   N99       1.0  0.34573  0.05352  0.89306  1.0000
  C   C935      1.0  0.35008  0.03671  0.89291  1.0000
  Fe  Fe187     1.0  0.30112  0.23729  0.82141  1.0000
  Fe  Fe188     1.0  0.21774  0.36477  0.80994  1.0000
  H   H1480     1.0  0.15737  0.32994  0.82865  1.0000
  H   H1481     1.0  0.21756  0.45103  0.89394  1.0000
  H   H1482     1.0  0.32110  0.05554  0.89542  1.0000
  S   S370      1.0  0.25602  0.45205  0.84551  1.0000
  H   H1483     1.0  0.26570  0.32447  0.79246  1.0000
  C   C936      1.0  0.44639  0.02687  0.79569  1.0000
  H   H1484     1.0  0.12662  0.38540  0.94247  1.0000
  C   C937      1.0  0.13331  0.34238  0.84978  1.0000
  H   H1485     1.0  0.12803  0.34553  0.86137  1.0000
  H   H1486     1.0  0.36770  0.24603  0.89100  1.0000
  S   S371      1.0  0.28645  0.44391  0.86110  1.0000
  H   H1487     1.0  0.48462  0.34639  0.77925  1.0000
  H   H1488     1.0  0.41303  0.29516  0.86662  1.0000
  C   C938      1.0  0.44876  0.36380  0.83934  1.0000
  S   S372      1.0  0.45454  0.30616  0.91108  1.0000
  C   C939      1.0  0.34766  0.06279  0.87688  1.0000
  H   H1489     1.0  0.15969  0.36902  0.94823  1.0000
  H   H1490     1.0  0.04853  0.37022  0.93684  1.0000
  N   N100      1.0  0.43144  0.22553  0.96132  1.0000
  C   C940      1.0  0.35797  0.39225  0.82566  1.0000
  H   H1491     1.0  0.36347  0.25265  0.86468  1.0000
  H   H1492     1.0  0.35818  0.23218  0.90598  1.0000
  H   H1493     1.0  0.04328  0.40619  0.81352  1.0000
  H   H1494     1.0  0.32160  0.29522  0.97494  1.0000
  Fe  Fe189     1.0  0.46542  0.28201  0.92289  1.0000
  S   S373      1.0  0.00457  0.41228  0.82180  1.0000
  H   H1495     1.0  0.16225  0.32656  0.85453  1.0000
  H   H1496     1.0  0.25177  0.42156  0.82429  1.0000
  C   C941      1.0  0.42723  0.35543  0.83550  1.0000
  Fe  Fe190     1.0  0.37009  0.35098  0.83004  1.0000
  H   H1497     1.0  0.45957  0.33090  0.88360  1.0000
  H   H1498     1.0  0.16631  0.34651  0.82173  1.0000
  H   H1499     1.0  0.15690  0.36840  0.83596  1.0000
  H   H1500     1.0  0.30903  0.31477  0.80718  1.0000
  H   H1501     1.0  0.30143  0.18723  0.80742  1.0000
  Fe  Fe191     1.0  0.27316  0.46507  0.84686  1.0000
  H   H1502     1.0  0.45667  0.03239  0.79085  1.0000
  Fe  Fe192     1.0  0.20249  0.39789  0.81346  1.0000
  C   C942      1.0  0.23077  0.42181  0.81732  1.0000
  H   H1503     1.0  0.33018  0.39167  0.80774  1.0000
  C   C943      1.0  0.43459  0.36734  0.83459  1.0000
  H   H1504     1.0  0.41644  0.35833  0.83153  1.0000
  C   C944      1.0  0.01543  0.38302  0.92248  1.0000
  S   S374      1.0  0.38652  0.32808  0.82635  1.0000
  C   C945      1.0  0.22336  0.44357  0.79667  1.0000
  S   S375      1.0  0.20438  0.42302  0.80693  1.0000
  S   S376      1.0  0.24118  0.35108  0.79936  1.0000
  H   H1505     1.0  0.42934  0.37936  0.83002  1.0000
  C   C946      1.0  0.14569  0.36437  0.84042  1.0000
  H   H1506     1.0  0.40457  0.35830  0.88141  1.0000
  H   H1507     1.0  0.34740  0.19939  0.96440  1.0000
  C   C947      1.0  0.24379  0.42771  0.81663  1.0000
  C   C948      1.0  0.15505  0.34279  0.82745  1.0000
  H   H1508     1.0  0.02184  0.37183  0.80202  1.0000
  C   C949      1.0  0.14427  0.37053  0.78628  1.0000
  H   H1509     1.0  0.33067  0.07692  0.79962  1.0000
  C   C950      1.0  0.05898  0.36392  0.78056  1.0000
  Fe  Fe193     1.0  0.18307  0.37718  0.80974  1.0000
  H   H1510     1.0  0.31768  0.41623  0.81711  1.0000
  H   H1511     1.0  0.04472  0.36564  0.92058  1.0000
  H   H1512     1.0  0.30571  0.29876  0.84086  1.0000
  S   S377      1.0  0.28656  0.42449  0.83537  1.0000
  H   H1513     1.0  0.35082  0.24368  0.85972  1.0000
  C   C951      1.0  0.39816  0.33091  0.89856  1.0000
  H   H1514     1.0  0.48239  0.34305  0.87090  1.0000
  C   C952      1.0  0.13690  0.38402  0.93259  1.0000
  S   S378      1.0  0.16097  0.37928  0.80174  1.0000
  H   H1515     1.0  0.13824  0.37065  0.83181  1.0000
  C   C953      1.0  0.33597  0.39569  0.81423  1.0000
  S   S379      1.0  0.48177  0.26688  0.90687  1.0000
  H   H1516     1.0  0.34253  0.03372  0.88698  1.0000
  C   C954      1.0  0.21654  0.46236  0.89687  1.0000
  H   H1517     1.0  0.42324  0.22756  0.94078  1.0000
  C   C955      1.0  0.03905  0.36942  0.93177  1.0000
  S   S380      1.0  0.36326  0.29491  0.85372  1.0000
  H   H1518     1.0  0.14701  0.34842  0.81929  1.0000
  H   H1519     1.0  0.41632  0.02617  0.81108  1.0000
  H   H1520     1.0  0.29266  0.23670  0.78875  1.0000
  C   C956      1.0  0.35065  0.20659  0.97052  1.0000
  C   C957      1.0  0.04904  0.34030  0.79199  1.0000
  H   H1521     1.0  0.00919  0.37377  0.93000  1.0000
  S   S381      1.0  0.20471  0.38528  0.79486  1.0000
  C   C958      1.0  0.25735  0.20140  0.95009  1.0000
  C   C959      1.0  0.35322  0.29231  0.84105  1.0000
  H   H1522     1.0  0.44922  0.21284  0.94557  1.0000
  C   C960      1.0  0.24678  0.44129  0.80558  1.0000
  S   S382      1.0  0.35863  0.36891  0.81185  1.0000
  Fe  Fe194     1.0  0.30107  0.43938  0.83789  1.0000
  H   H1523     1.0  0.30157  0.31569  0.84883  1.0000
  S   S383      1.0  0.48929  0.37778  0.86047  1.0000
  H   H1524     1.0  0.24559  0.19911  0.95638  1.0000
  H   H1525     1.0  0.35977  0.05940  0.86999  1.0000
  S   S384      1.0  0.28890  0.46146  0.82383  1.0000
  H   H1526     1.0  0.31738  0.15156  0.96651  1.0000
  H   H1527     1.0  0.46484  0.34935  0.81137  1.0000
  S   S385      1.0  0.29495  0.26258  0.80914  1.0000
  C   C961      1.0  0.46995  0.31589  0.90254  1.0000
  C   C962      1.0  0.15872  0.36631  0.92015  1.0000
  H   H1528     1.0  0.27927  0.16683  0.96564  1.0000
  H   H1529     1.0  0.42652  0.24532  0.94278  1.0000
  H   H1530     1.0  0.36181  0.20005  0.97416  1.0000
  C   C963      1.0  0.35456  0.30086  0.82565  1.0000
  H   H1531     1.0  0.17061  0.34349  0.84862  1.0000
  H   H1532     1.0  0.04312  0.38510  0.78600  1.0000
  C   C964      1.0  0.26996  0.17479  0.95968  1.0000
  H   H1533     1.0  0.27670  0.39478  0.78407  1.0000
  H   H1534     1.0  0.11300  0.43437  0.95541  1.0000
  H   H1535     1.0  0.23878  0.45956  0.78707  1.0000
  H   H1536     1.0  0.33350  0.27704  0.97101  1.0000
  H   H1537     1.0  0.26604  0.20680  0.97364  1.0000
  C   C965      1.0  0.10034  0.37523  0.96917  1.0000
  H   H1538     1.0  0.09889  0.42231  0.96133  1.0000
  H   H1539     1.0  0.42519  0.20412  0.96263  1.0000
  H   H1540     1.0  0.45903  0.37750  0.80038  1.0000
  H   H1541     1.0  0.49052  0.25660  0.96873  1.0000
  H   H1542     1.0  0.31571  0.10263  0.78813  1.0000
  H   H1543     1.0  0.29165  0.18334  0.78646  1.0000
  H   H1544     1.0  0.43815  0.05794  0.79436  1.0000
  H   H1545     1.0  0.27209  0.11395  0.78675  1.0000
  H   H1546     1.0  0.27220  0.17211  0.94800  1.0000
  C   C966      1.0  0.42234  0.23451  0.94936  1.0000
  H   H1547     1.0  0.29577  0.48119  0.85575  1.0000
  H   H1548     1.0  0.40780  0.03740  0.79486  1.0000
  H   H1549     1.0  0.28479  0.08581  0.78918  1.0000
  H   H1550     1.0  0.35306  0.21735  0.96185  1.0000
  Fe  Fe195     1.0  0.49010  0.06564  0.79616  1.0000
  C   C967      1.0  0.18890  0.48021  0.92445  1.0000
  S   S386      1.0  0.30036  0.12713  0.97273  1.0000
  S   S387      1.0  0.48371  0.08857  0.77987  1.0000
  C   C968      1.0  0.14678  0.48037  0.97403  1.0000
  H   H1551     1.0  0.27275  0.37804  0.78041  1.0000
  H   H1552     1.0  0.11262  0.36973  0.96668  1.0000
  H   H1553     1.0  0.21129  0.47864  0.92901  1.0000
  H   H1554     1.0  0.09334  0.44148  0.96540  1.0000
  H   H1555     1.0  0.31982  0.21290  0.97227  1.0000
  H   H1556     1.0  0.22514  0.46435  0.86616  1.0000
  H   H1557     1.0  0.41260  0.21520  0.97652  1.0000
  S   S388      1.0  0.15927  0.48165  0.92185  1.0000
  C   C969      1.0  0.42499  0.21172  0.97033  1.0000
  H   H1558     1.0  0.23335  0.48125  0.86123  1.0000
  H   H1559     1.0  0.25645  0.41970  0.78326  1.0000
  H   H1560     1.0  0.12289  0.44015  0.97535  1.0000
  H   H1561     1.0  0.23845  0.42099  0.77814  1.0000
  H   H1562     1.0  0.07213  0.34100  0.77751  1.0000
  C   C970      1.0  0.14182  0.36135  0.77751  1.0000
  Fe  Fe196     1.0  0.17548  0.69194  0.14033  1.0000
  H   H1563     1.0  0.29225  0.78356  0.99667  1.0000
  S   S389      1.0  0.15388  0.69966  0.13026  1.0000
  Fe  Fe197     1.0  0.20813  0.69414  0.14198  1.0000
  H   H1564     1.0  0.10590  0.63818  0.98894  1.0000
  S   S390      1.0  0.22780  0.70690  0.13025  1.0000
  Fe  Fe198     1.0  0.19750  0.66363  0.15464  1.0000
  S   S391      1.0  0.20210  0.63803  0.15519  1.0000
  C   C971      1.0  0.21253  0.56175  0.99147  1.0000
  S   S392      1.0  0.03425  0.62051  0.17028  1.0000
  S   S393      1.0  0.19991  0.67959  0.13093  1.0000
  S   S394      1.0  0.18385  0.70830  0.14873  1.0000
  Fe  Fe199     1.0  0.10420  0.64581  0.08835  1.0000
  S   S395      1.0  0.12686  0.64401  0.07080  1.0000
  S   S396      1.0  0.10053  0.62385  0.10582  1.0000
  Fe  Fe200     1.0  0.09435  0.67997  0.07612  1.0000
  S   S397      1.0  0.11629  0.68131  0.05730  1.0000
  S   S398      1.0  0.07512  0.70100  0.07970  1.0000
  Fe  Fe201     1.0  0.11281  0.65936  0.05341  1.0000
  Fe  Fe202     1.0  0.12843  0.66584  0.07619  1.0000
  S   S399      1.0  0.15220  0.66542  0.07947  1.0000
  S   S400      1.0  0.08980  0.65926  0.07073  1.0000
  S   S401      1.0  0.10679  0.66634  0.09530  1.0000
  H   H1565     1.0  0.21999  0.55188  0.03320  1.0000
  S   S402      1.0  0.31859  0.97498  0.11502  1.0000
  H   H1566     1.0  0.15390  0.53188  0.02034  1.0000
  C   C972      1.0  0.33746  0.73036  0.14020  1.0000
  H   H1567     1.0  0.22687  0.64499  0.08586  1.0000
  C   C973      1.0  0.25603  0.56097  0.17354  1.0000
  C   C974      1.0  0.25109  0.60874  0.15840  1.0000
  S   S403      1.0  0.46730  0.77159  0.11485  1.0000
  H   H1568     1.0  0.39903  0.72116  0.11265  1.0000
  H   H1569     1.0  0.27692  0.48678  0.13495  1.0000
  S   S404      1.0  0.14767  0.53641  0.98104  1.0000
  H   H1570     1.0  0.47680  0.77594  0.02083  1.0000
  C   C975      1.0  0.36702  0.94880  0.15172  1.0000
  H   H1571     1.0  0.11564  0.53472  0.98942  1.0000
  Fe  Fe203     1.0  0.38605  0.78505  0.08463  1.0000
  S   S405      1.0  0.37470  0.78366  0.06648  1.0000
  S   S406      1.0  0.37516  0.80577  0.09541  1.0000
  Fe  Fe204     1.0  0.40949  0.75510  0.08216  1.0000
  S   S407      1.0  0.40035  0.75052  0.06396  1.0000
  S   S408      1.0  0.43031  0.73821  0.09003  1.0000
  Fe  Fe205     1.0  0.39898  0.77586  0.05329  1.0000
  S   S409      1.0  0.40566  0.78277  0.02730  1.0000
  Fe  Fe206     1.0  0.37674  0.75856  0.07838  1.0000
  S   S410      1.0  0.35668  0.74876  0.07908  1.0000
  S   S411      1.0  0.41040  0.77993  0.07010  1.0000
  S   S412      1.0  0.38584  0.76045  0.09800  1.0000
  S   S413      1.0  0.37819  0.67635  0.08333  1.0000
  Fe  Fe207     1.0  0.29303  0.85930  0.03142  1.0000
  S   S414      1.0  0.30440  0.87401  0.03893  1.0000
  S   S415      1.0  0.28669  0.86765  0.00786  1.0000
  Fe  Fe208     1.0  0.29490  0.83382  0.06052  1.0000
  S   S416      1.0  0.30660  0.84588  0.07069  1.0000
  S   S417      1.0  0.29091  0.80971  0.07132  1.0000
  Fe  Fe209     1.0  0.28929  0.86742  0.06259  1.0000
  S   S418      1.0  0.27792  0.88496  0.07775  1.0000
  Fe  Fe210     1.0  0.32084  0.85160  0.04640  1.0000
  S   S419      1.0  0.34675  0.85017  0.03966  1.0000
  S   S420      1.0  0.27610  0.85482  0.05447  1.0000
  S   S421      1.0  0.31086  0.83737  0.03694  1.0000
  H   H1572     1.0  0.44021  0.78359  0.02994  1.0000
  S   S422      1.0  0.25868  0.79978  0.14279  1.0000
  C   C976      1.0  0.34814  0.84140  0.00397  1.0000
  H   H1573     1.0  0.33932  0.62707  0.09914  1.0000
  C   C977      1.0  0.04347  0.62116  0.12688  1.0000
  H   H1574     1.0  0.48739  0.73658  0.17528  1.0000
  H   H1575     1.0  0.48045  0.65331  0.12217  1.0000
  S   S423      1.0  0.32950  0.90465  0.09813  1.0000
  H   H1576     1.0  0.24978  0.54115  0.06979  1.0000
  C   C978      1.0  0.10676  0.65218  0.01956  1.0000
  Fe  Fe211     1.0  0.38064  0.66952  0.13902  1.0000
  H   H1577     1.0  0.31035  0.78196  0.09026  1.0000
  H   H1578     1.0  0.33154  0.81032  0.09263  1.0000
  S   S424      1.0  0.34089  0.93038  0.11811  1.0000
  H   H1579     1.0  0.28175  0.54799  0.15487  1.0000
  S   S425      1.0  0.12033  0.65235  0.03001  1.0000
  H   H1580     1.0  0.46251  0.62348  0.14905  1.0000
  H   H1581     1.0  0.45873  0.74194  0.03238  1.0000
  Fe  Fe212     1.0  0.17110  0.57487  0.06870  1.0000
  S   S426      1.0  0.18476  0.59357  0.06165  1.0000
  S   S427      1.0  0.14729  0.57944  0.06394  1.0000
  Fe  Fe213     1.0  0.19915  0.54908  0.07517  1.0000
  S   S428      1.0  0.21571  0.56515  0.06810  1.0000
  S   S429      1.0  0.20585  0.52306  0.08149  1.0000
  Fe  Fe214     1.0  0.19577  0.58011  0.08188  1.0000
  S   S430      1.0  0.19920  0.59099  0.09945  1.0000
  Fe  Fe215     1.0  0.20327  0.57711  0.04850  1.0000
  S   S431      1.0  0.18005  0.56302  0.09044  1.0000
  S   S432      1.0  0.18881  0.55945  0.05418  1.0000
  C   C979      1.0  0.31472  0.79103  0.11379  1.0000
  Fe  Fe216     1.0  0.28194  0.58709  0.13897  1.0000
  S   S433      1.0  0.29012  0.60311  0.11651  1.0000
  H   H1582     1.0  0.47549  0.74222  0.03893  1.0000
  Fe  Fe217     1.0  0.29480  0.55799  0.12556  1.0000
  S   S434      1.0  0.30432  0.57164  0.10195  1.0000
  S   S435      1.0  0.29851  0.53164  0.13068  1.0000
  Fe  Fe218     1.0  0.31233  0.58464  0.11480  1.0000
  S   S436      1.0  0.33625  0.59057  0.10653  1.0000
  Fe  Fe219     1.0  0.28132  0.58881  0.10587  1.0000
  S   S437      1.0  0.26820  0.60011  0.08664  1.0000
  S   S438      1.0  0.30481  0.56952  0.13817  1.0000
  S   S439      1.0  0.27120  0.57426  0.12858  1.0000
  C   C980      1.0  0.25548  0.52376  0.13523  1.0000
  C   C981      1.0  0.27426  0.49918  0.13449  1.0000
  C   C982      1.0  0.28634  0.50669  0.13284  1.0000
  C   C983      1.0  0.28308  0.52278  0.13218  1.0000
  H   H1583     1.0  0.06950  0.62902  0.12782  1.0000
  C   C984      1.0  0.32194  0.77675  0.09337  1.0000
  H   H1584     1.0  0.03490  0.69380  0.14108  1.0000
  H   H1585     1.0  0.29828  0.50001  0.13205  1.0000
  H   H1586     1.0  0.23675  0.52933  0.07041  1.0000
  H   H1587     1.0  0.20531  0.50342  0.99618  1.0000
  C   C985      1.0  0.21865  0.59267  0.09588  1.0000
  C   C986      1.0  0.22745  0.59575  0.08062  1.0000
  C   C987      1.0  0.24275  0.59781  0.07789  1.0000
  C   C988      1.0  0.24949  0.59627  0.09039  1.0000
  C   C989      1.0  0.24079  0.59282  0.10565  1.0000
  C   C990      1.0  0.22530  0.59130  0.10838  1.0000
  H   H1588     1.0  0.22232  0.59694  0.07091  1.0000
  H   H1589     1.0  0.24940  0.60058  0.06606  1.0000
  H   H1590     1.0  0.24576  0.59180  0.11536  1.0000
  H   H1591     1.0  0.21851  0.58893  0.12020  1.0000
  C   C991      1.0  0.06061  0.63855  0.12249  1.0000
  H   H1592     1.0  0.31815  0.79864  0.11928  1.0000
  C   C992      1.0  0.16899  0.50978  0.06611  1.0000
  C   C993      1.0  0.16513  0.52305  0.07230  1.0000
  C   C994      1.0  0.17634  0.52682  0.07755  1.0000
  C   C995      1.0  0.19142  0.51732  0.07663  1.0000
  C   C996      1.0  0.19515  0.50381  0.07088  1.0000
  C   C997      1.0  0.18391  0.50005  0.06565  1.0000
  H   H1593     1.0  0.15353  0.53053  0.07292  1.0000
  H   H1594     1.0  0.17330  0.53717  0.08221  1.0000
  H   H1595     1.0  0.20685  0.49652  0.07002  1.0000
  C   C998      1.0  0.44706  0.77244  0.02654  1.0000
  H   H1596     1.0  0.41489  0.73293  0.12212  1.0000
  C   C999      1.0  0.29205  0.89063  0.08353  1.0000
  C   C1000     1.0  0.30786  0.88685  0.07624  1.0000
  C   C1001     1.0  0.31910  0.89152  0.08065  1.0000
  C   C1002     1.0  0.31473  0.89969  0.09263  1.0000
  C   C1003     1.0  0.29892  0.90345  0.10001  1.0000
  C   C1004     1.0  0.28758  0.89903  0.09537  1.0000
  H   H1597     1.0  0.31144  0.88049  0.06703  1.0000
  H   H1598     1.0  0.33119  0.88887  0.07463  1.0000
  H   H1599     1.0  0.29543  0.90978  0.10925  1.0000
  H   H1600     1.0  0.27536  0.90199  0.10105  1.0000
  C   C1005     1.0  0.28832  0.85273  0.99833  1.0000
  H   H1601     1.0  0.35968  0.80470  0.02478  1.0000
  H   H1602     1.0  0.01823  0.74324  0.13265  1.0000
  H   H1603     1.0  0.47109  0.70439  0.09112  1.0000
  C   C1006     1.0  0.29161  0.82536  0.99859  1.0000
  C   C1007     1.0  0.29051  0.83709  0.00626  1.0000
  H   H1604     1.0  0.33684  0.84479  0.01213  1.0000
  H   H1605     1.0  0.35060  0.70754  0.17230  1.0000
  H   H1606     1.0  0.29309  0.81332  0.00490  1.0000
  H   H1607     1.0  0.29098  0.83402  0.01842  1.0000
  C   C1008     1.0  0.26642  0.80302  0.12263  1.0000
  C   C1009     1.0  0.27784  0.79296  0.09913  1.0000
  C   C1010     1.0  0.28068  0.80760  0.09079  1.0000
  C   C1011     1.0  0.27602  0.82011  0.09829  1.0000
  C   C1012     1.0  0.26877  0.81784  0.11420  1.0000
  H   H1608     1.0  0.28122  0.78332  0.09332  1.0000
  H   H1609     1.0  0.27809  0.83148  0.09187  1.0000
  H   H1610     1.0  0.26530  0.82747  0.12002  1.0000
  C   C1013     1.0  0.35729  0.60148  0.11466  1.0000
  C   C1014     1.0  0.34207  0.59880  0.11869  1.0000
  C   C1015     1.0  0.33144  0.60385  0.13155  1.0000
  C   C1016     1.0  0.33594  0.61177  0.14017  1.0000
  H   H1611     1.0  0.36559  0.59748  0.10479  1.0000
  H   H1612     1.0  0.31969  0.60186  0.13473  1.0000
  H   H1613     1.0  0.47869  0.69725  0.07353  1.0000
  C   C1017     1.0  0.36822  0.81993  0.08025  1.0000
  C   C1018     1.0  0.35342  0.82974  0.08315  1.0000
  C   C1019     1.0  0.34699  0.83948  0.07064  1.0000
  C   C1020     1.0  0.35541  0.83951  0.05532  1.0000
  C   C1021     1.0  0.37062  0.83045  0.05250  1.0000
  C   C1022     1.0  0.37696  0.82051  0.06497  1.0000
  H   H1614     1.0  0.34671  0.82936  0.09498  1.0000
  H   H1615     1.0  0.33557  0.84705  0.07287  1.0000
  H   H1616     1.0  0.37732  0.83064  0.04069  1.0000
  H   H1617     1.0  0.38849  0.81303  0.06271  1.0000
  C   C1023     1.0  0.36258  0.72863  0.08057  1.0000
  C   C1024     1.0  0.37539  0.72006  0.08712  1.0000
  C   C1025     1.0  0.38013  0.70391  0.08812  1.0000
  C   C1026     1.0  0.37232  0.69646  0.08218  1.0000
  C   C1027     1.0  0.35975  0.70512  0.07529  1.0000
  C   C1028     1.0  0.35471  0.72118  0.07473  1.0000
  H   H1618     1.0  0.38148  0.72584  0.09163  1.0000
  H   H1619     1.0  0.39000  0.69730  0.09320  1.0000
  H   H1620     1.0  0.35369  0.69938  0.07072  1.0000
  H   H1621     1.0  0.34481  0.72786  0.06965  1.0000
  H   H1622     1.0  0.16720  0.53969  0.00331  1.0000
  C   C1029     1.0  0.08083  0.66019  0.01382  1.0000
  H   H1623     1.0  0.29254  0.96506  0.13750  1.0000
  H   H1624     1.0  0.36745  0.82527  0.98302  1.0000
  C   C1030     1.0  0.02947  0.69951  0.09268  1.0000
  N   N101      1.0  0.16662  0.54660  0.02416  1.0000
  H   H1625     1.0  0.15003  0.53938  0.04505  1.0000
  C   C1031     1.0  0.45611  0.76177  0.10972  1.0000
  C   C1032     1.0  0.44103  0.76921  0.10737  1.0000
  C   C1033     1.0  0.43286  0.76191  0.10159  1.0000
  C   C1034     1.0  0.43976  0.74711  0.09829  1.0000
  C   C1035     1.0  0.45448  0.73939  0.10140  1.0000
  C   C1036     1.0  0.46267  0.74671  0.10704  1.0000
  H   H1626     1.0  0.43588  0.78084  0.10949  1.0000
  H   H1627     1.0  0.42132  0.76782  0.09957  1.0000
  H   H1628     1.0  0.45970  0.72787  0.09917  1.0000
  H   H1629     1.0  0.47408  0.74069  0.10929  1.0000
  C   C1037     1.0  0.37122  0.77288  0.00535  1.0000
  C   C1038     1.0  0.36790  0.77184  0.02140  1.0000
  C   C1039     1.0  0.37865  0.77450  0.02820  1.0000
  C   C1040     1.0  0.39244  0.77887  0.01891  1.0000
  C   C1041     1.0  0.39566  0.78012  0.00281  1.0000
  H   H1630     1.0  0.20990  0.72592  0.15812  1.0000
  H   H1631     1.0  0.35717  0.76867  0.02867  1.0000
  H   H1632     1.0  0.37617  0.77315  0.04064  1.0000
  C   C1042     1.0  0.48417  0.62599  0.16219  1.0000
  H   H1633     1.0  0.36387  0.96073  0.14540  1.0000
  C   C1043     1.0  0.21782  0.55468  0.02160  1.0000
  N   N102      1.0  0.31342  0.76849  0.98706  1.0000
  C   C1044     1.0  0.15887  0.54239  0.01419  1.0000
  H   H1634     1.0  0.39409  0.70287  0.12359  1.0000
  C   C1045     1.0  0.21858  0.54266  0.01452  1.0000
  H   H1635     1.0  0.34070  0.63245  0.07859  1.0000
  C   C1046     1.0  0.49111  0.59789  0.16624  1.0000
  H   H1636     1.0  0.25772  0.73635  0.14377  1.0000
  C   C1047     1.0  0.46800  0.65447  0.12671  1.0000
  C   C1048     1.0  0.34181  0.81749  0.00368  1.0000
  C   C1049     1.0  0.11165  0.60960  0.09539  1.0000
  C   C1050     1.0  0.11064  0.61168  0.07997  1.0000
  C   C1051     1.0  0.12114  0.60179  0.07062  1.0000
  C   C1052     1.0  0.13310  0.59026  0.07647  1.0000
  C   C1053     1.0  0.13403  0.58803  0.09197  1.0000
  C   C1054     1.0  0.12304  0.59750  0.10156  1.0000
  H   H1637     1.0  0.10197  0.62114  0.07510  1.0000
  H   H1638     1.0  0.12033  0.60354  0.05867  1.0000
  H   H1639     1.0  0.14319  0.57899  0.09654  1.0000
  H   H1640     1.0  0.12370  0.59586  0.11353  1.0000
  C   C1055     1.0  0.04214  0.68075  0.11238  1.0000
  C   C1056     1.0  0.05664  0.68430  0.10393  1.0000
  C   C1057     1.0  0.05740  0.69576  0.09007  1.0000
  C   C1058     1.0  0.04377  0.70352  0.08462  1.0000
  H   H1641     1.0  0.04150  0.67212  0.12316  1.0000
  H   H1642     1.0  0.06718  0.67843  0.10824  1.0000
  H   H1643     1.0  0.04435  0.71238  0.07392  1.0000
  H   H1644     1.0  0.29868  0.67468  0.16649  1.0000
  C   C1059     1.0  0.25282  0.72609  0.14738  1.0000
  H   H1645     1.0  0.30320  0.79714  0.11081  1.0000
  C   C1060     1.0  0.15548  0.49438  0.98769  1.0000
  C   C1061     1.0  0.32821  0.80195  0.08803  1.0000
  C   C1062     1.0  0.06300  0.62450  0.10288  1.0000
  N   N103      1.0  0.45892  0.76416  0.03598  1.0000
  H   H1646     1.0  0.27454  0.96724  0.13200  1.0000
  C   C1063     1.0  0.09106  0.65995  0.02297  1.0000
  H   H1647     1.0  0.01904  0.70527  0.08815  1.0000
  H   H1648     1.0  0.34631  0.78764  0.10851  1.0000
  H   H1649     1.0  0.31106  0.91447  0.17378  1.0000
  C   C1064     1.0  0.23833  0.70993  0.14227  1.0000
  C   C1065     1.0  0.23946  0.69990  0.15674  1.0000
  C   C1066     1.0  0.24529  0.72288  0.13750  1.0000
  Fe  Fe220     1.0  0.00671  0.67072  0.14106  1.0000
  H   H1650     1.0  0.24452  0.73066  0.12629  1.0000
  C   C1067     1.0  0.22099  0.62699  0.15652  1.0000
  H   H1651     1.0  0.33101  0.73152  0.16440  1.0000
  C   C1068     1.0  0.46814  0.61241  0.15614  1.0000
  C   C1069     1.0  0.48153  0.76237  0.15305  1.0000
  C   C1070     1.0  0.24129  0.60390  0.15222  1.0000
  C   C1071     1.0  0.22617  0.61288  0.15155  1.0000
  C   C1072     1.0  0.28116  0.97323  0.13618  1.0000
  Fe  Fe221     1.0  0.30188  0.75291  0.15245  1.0000
  H   H1652     1.0  0.24520  0.59311  0.14824  1.0000
  H   H1653     1.0  0.21850  0.60893  0.14705  1.0000
  C   C1073     1.0  0.15347  0.68980  0.11640  1.0000
  C   C1074     1.0  0.16696  0.67997  0.10978  1.0000
  C   C1075     1.0  0.16647  0.67263  0.09838  1.0000
  C   C1076     1.0  0.15243  0.67483  0.09376  1.0000
  C   C1077     1.0  0.13886  0.68442  0.10060  1.0000
  C   C1078     1.0  0.13941  0.69198  0.11181  1.0000
  H   H1654     1.0  0.17785  0.67829  0.11318  1.0000
  H   H1655     1.0  0.17703  0.66534  0.09304  1.0000
  H   H1656     1.0  0.12802  0.68633  0.09698  1.0000
  H   H1657     1.0  0.12896  0.69965  0.11680  1.0000
  H   H1658     1.0  0.24352  0.53042  0.13619  1.0000
  S   S440      1.0  0.29334  0.77582  0.15980  1.0000
  N   N104      1.0  0.39369  0.72448  0.03180  1.0000
  H   H1659     1.0  0.37344  0.73831  0.04429  1.0000
  H   H1660     1.0  0.16312  0.50234  0.98679  1.0000
  H   H1661     1.0  0.33042  0.75605  0.00096  1.0000
  H   H1662     1.0  0.32315  0.68627  0.13818  1.0000
  C   C1079     1.0  0.03890  0.72008  0.12013  1.0000
  C   C1080     1.0  0.34962  0.71151  0.16024  1.0000
  C   C1081     1.0  0.48100  0.70396  0.08078  1.0000
  S   S441      1.0  0.46984  0.67505  0.14291  1.0000
  H   H1663     1.0  0.39149  0.70551  0.02350  1.0000
  H   H1664     1.0  0.04270  0.73137  0.11568  1.0000
  C   C1082     1.0  0.33822  0.63722  0.08918  1.0000
  C   C1083     1.0  0.23534  0.48980  0.99715  1.0000
  C   C1084     1.0  0.32265  0.68813  0.14982  1.0000
  H   H1665     1.0  0.48078  0.71614  0.07386  1.0000
  H   H1666     1.0  0.35189  0.94057  0.14300  1.0000
  H   H1667     1.0  0.37783  0.82511  0.99719  1.0000
  N   N105      1.0  0.23722  0.64044  0.10558  1.0000
  C   C1085     1.0  0.24769  0.62750  0.11407  1.0000
  C   C1086     1.0  0.23437  0.63539  0.09281  1.0000
  C   C1087     1.0  0.24466  0.65400  0.09907  1.0000
  C   C1088     1.0  0.22217  0.64486  0.11640  1.0000
  H   H1668     1.0  0.25007  0.63084  0.12386  1.0000
  H   H1669     1.0  0.25914  0.62372  0.10624  1.0000
  H   H1670     1.0  0.24241  0.61713  0.11916  1.0000
  H   H1671     1.0  0.24554  0.63137  0.08471  1.0000
  H   H1672     1.0  0.22833  0.62547  0.09740  1.0000
  H   H1673     1.0  0.25604  0.65102  0.09081  1.0000
  H   H1674     1.0  0.24699  0.65805  0.10845  1.0000
  H   H1675     1.0  0.23702  0.66404  0.09268  1.0000
  H   H1676     1.0  0.21385  0.65447  0.11042  1.0000
  H   H1677     1.0  0.22389  0.64887  0.12611  1.0000
  H   H1678     1.0  0.21635  0.63482  0.12179  1.0000
  H   H1679     1.0  0.37813  0.90601  0.17431  1.0000
  S   S442      1.0  0.35439  0.90805  0.15826  1.0000
  H   H1680     1.0  0.31293  0.78022  0.12273  1.0000
  N   N106      1.0  0.15557  0.62073  0.10716  1.0000
  C   C1089     1.0  0.15937  0.61912  0.09082  1.0000
  C   C1090     1.0  0.15610  0.60515  0.11771  1.0000
  C   C1091     1.0  0.13969  0.63063  0.11070  1.0000
  C   C1092     1.0  0.16713  0.62804  0.10938  1.0000
  H   H1681     1.0  0.15913  0.63070  0.08258  1.0000
  H   H1682     1.0  0.15087  0.61368  0.08867  1.0000
  H   H1683     1.0  0.17130  0.61173  0.08780  1.0000
  H   H1684     1.0  0.14773  0.59920  0.11614  1.0000
  H   H1685     1.0  0.16794  0.59741  0.11545  1.0000
  H   H1686     1.0  0.15319  0.60596  0.13013  1.0000
  H   H1687     1.0  0.13637  0.63210  0.12293  1.0000
  H   H1688     1.0  0.13072  0.62552  0.10897  1.0000
  H   H1689     1.0  0.13888  0.64249  0.10301  1.0000
  H   H1690     1.0  0.16453  0.62970  0.12150  1.0000
  H   H1691     1.0  0.16720  0.63969  0.10140  1.0000
  H   H1692     1.0  0.17922  0.62076  0.10694  1.0000
  C   C1093     1.0  0.17275  0.56073  0.01571  1.0000
  C   C1094     1.0  0.25654  0.82661  0.16472  1.0000
  C   C1095     1.0  0.11639  0.54633  0.98256  1.0000
  C   C1096     1.0  0.30216  0.71141  0.14659  1.0000
  C   C1097     1.0  0.38513  0.77697  0.99606  1.0000
  H   H1693     1.0  0.31515  0.70570  0.17111  1.0000
  H   H1694     1.0  0.35355  0.66029  0.10156  1.0000
  H   H1695     1.0  0.03154  0.71884  0.15897  1.0000
  H   H1696     1.0  0.06986  0.63259  0.09396  1.0000
  H   H1697     1.0  0.20691  0.49509  0.01595  1.0000
  H   H1698     1.0  0.33188  0.94495  0.17598  1.0000
  H   H1699     1.0  0.38592  0.71997  0.13149  1.0000
  C   C1098     1.0  0.02861  0.68816  0.10656  1.0000
  H   H1700     1.0  0.42307  0.65894  0.14247  1.0000
  Fe  Fe222     1.0  0.27203  0.74175  0.16905  1.0000
  N   N107      1.0  0.02927  0.71881  0.13619  1.0000
  H   H1701     1.0  0.38753  0.77834  0.98360  1.0000
  H   H1702     1.0  0.36988  0.72171  0.04011  1.0000
  H   H1703     1.0  0.44513  0.77221  0.05663  1.0000
  C   C1099     1.0  0.33851  0.72503  0.15580  1.0000
  C   C1100     1.0  0.32154  0.78148  0.97945  1.0000
  S   S443      1.0  0.38973  0.64412  0.14830  1.0000
  C   C1101     1.0  0.21577  0.54618  0.99954  1.0000
  C   C1102     1.0  0.36406  0.92199  0.15866  1.0000
  C   C1103     1.0  0.13283  0.69859  0.17448  1.0000
  C   C1104     1.0  0.34191  0.77974  0.10426  1.0000
  H   H1704     1.0  0.31789  0.79056  0.98650  1.0000
  H   H1705     1.0  0.36554  0.70172  0.12499  1.0000
  H   H1706     1.0  0.04916  0.71018  0.14689  1.0000
  H   H1707     1.0  0.46737  0.72531  0.98053  1.0000
  H   H1708     1.0  0.00755  0.73087  0.14846  1.0000
  H   H1709     1.0  0.23449  0.68970  0.16039  1.0000
  H   H1710     1.0  0.35094  0.77608  0.09420  1.0000
  H   H1711     1.0  0.34108  0.76899  0.11356  1.0000
  N   N108      1.0  0.36743  0.86819  0.08595  1.0000
  C   C1105     1.0  0.37847  0.85507  0.07949  1.0000
  C   C1106     1.0  0.35222  0.86385  0.09372  1.0000
  C   C1107     1.0  0.36522  0.88210  0.07317  1.0000
  C   C1108     1.0  0.37379  0.87177  0.09744  1.0000
  H   H1712     1.0  0.39022  0.85774  0.07392  1.0000
  H   H1713     1.0  0.37416  0.85244  0.07047  1.0000
  H   H1714     1.0  0.38006  0.84416  0.08869  1.0000
  H   H1715     1.0  0.34394  0.87302  0.09963  1.0000
  H   H1716     1.0  0.34646  0.86229  0.08521  1.0000
  H   H1717     1.0  0.35360  0.85277  0.10268  1.0000
  H   H1718     1.0  0.36029  0.87988  0.06435  1.0000
  H   H1719     1.0  0.37647  0.88569  0.06705  1.0000
  H   H1720     1.0  0.35700  0.89227  0.07762  1.0000
  H   H1721     1.0  0.36568  0.88170  0.10244  1.0000
  H   H1722     1.0  0.38527  0.87512  0.09203  1.0000
  H   H1723     1.0  0.37554  0.86154  0.10728  1.0000
  Fe  Fe223     1.0  0.01615  0.64245  0.16558  1.0000
  N   N109      1.0  0.15792  0.61587  0.02704  1.0000
  C   C1109     1.0  0.15492  0.62048  0.04203  1.0000
  C   C1110     1.0  0.14412  0.61093  0.02616  1.0000
  C   C1111     1.0  0.17178  0.60279  0.02589  1.0000
  C   C1112     1.0  0.16090  0.62931  0.01409  1.0000
  H   H1724     1.0  0.16508  0.62425  0.04316  1.0000
  H   H1725     1.0  0.15247  0.61070  0.05209  1.0000
  H   H1726     1.0  0.14457  0.63034  0.04323  1.0000
  H   H1727     1.0  0.14560  0.60811  0.01471  1.0000
  H   H1728     1.0  0.14197  0.60042  0.03538  1.0000
  H   H1729     1.0  0.13329  0.62024  0.02788  1.0000
  H   H1730     1.0  0.17459  0.59910  0.01466  1.0000
  H   H1731     1.0  0.16994  0.59242  0.03546  1.0000
  H   H1732     1.0  0.18235  0.60612  0.02668  1.0000
  H   H1733     1.0  0.16324  0.62628  0.00258  1.0000
  H   H1734     1.0  0.17119  0.63335  0.01451  1.0000
  H   H1735     1.0  0.15068  0.63939  0.01461  1.0000
  N   N110      1.0  0.25738  0.90301  0.03054  1.0000
  C   C1113     1.0  0.25213  0.88960  0.02924  1.0000
  C   C1114     1.0  0.24501  0.91733  0.02813  1.0000
  C   C1115     1.0  0.27186  0.90499  0.01860  1.0000
  C   C1116     1.0  0.26054  0.90013  0.04619  1.0000
  H   H1736     1.0  0.26112  0.87858  0.03118  1.0000
  H   H1737     1.0  0.25005  0.89113  0.01743  1.0000
  H   H1738     1.0  0.24117  0.88778  0.03798  1.0000
  H   H1739     1.0  0.24860  0.92766  0.02906  1.0000
  H   H1740     1.0  0.24236  0.91983  0.01640  1.0000
  H   H1741     1.0  0.23394  0.91620  0.03697  1.0000
  H   H1742     1.0  0.27011  0.90665  0.00664  1.0000
  H   H1743     1.0  0.28150  0.89450  0.02030  1.0000
  H   H1744     1.0  0.27607  0.91514  0.01906  1.0000
  H   H1745     1.0  0.26989  0.88948  0.04832  1.0000
  H   H1746     1.0  0.25001  0.89834  0.05561  1.0000
  H   H1747     1.0  0.26458  0.90993  0.04770  1.0000
  H   H1748     1.0  0.45258  0.77520  0.01389  1.0000
  C   C1117     1.0  0.21447  0.57026  0.01363  1.0000
  H   H1749     1.0  0.04236  0.73102  0.14313  1.0000
  H   H1750     1.0  0.19737  0.48669  0.00655  1.0000
  H   H1751     1.0  0.03492  0.62681  0.13614  1.0000
  C   C1118     1.0  0.08615  0.65245  0.00143  1.0000
  H   H1752     1.0  0.32763  0.61573  0.15006  1.0000
  C   C1119     1.0  0.21200  0.57379  0.99848  1.0000
  Fe  Fe224     1.0  0.32002  0.94916  0.12474  1.0000
  Fe  Fe225     1.0  0.00374  0.67417  0.17360  1.0000
  H   H1753     1.0  0.10392  0.69310  0.16117  1.0000
  H   H1754     1.0  0.32575  0.64360  0.09129  1.0000
  H   H1755     1.0  0.21052  0.56451  0.97981  1.0000
  H   H1756     1.0  0.24753  0.82398  0.16033  1.0000
  H   H1757     1.0  0.14526  0.55969  0.03608  1.0000
  Fe  Fe226     1.0  0.30171  0.92582  0.14721  1.0000
  H   H1758     1.0  0.17567  0.52256  0.03388  1.0000
  C   C1120     1.0  0.35099  0.61488  0.13586  1.0000
  H   H1759     1.0  0.45979  0.75469  0.06014  1.0000
  C   C1121     1.0  0.36861  0.82042  0.99531  1.0000
  H   H1760     1.0  0.40951  0.74183  0.98879  1.0000
  H   H1761     1.0  0.08686  0.66602  0.03245  1.0000
  H   H1762     1.0  0.40256  0.73074  0.14127  1.0000
  H   H1763     1.0  0.41639  0.69731  0.15382  1.0000
  H   H1764     1.0  0.16317  0.57088  0.01271  1.0000
  C   C1122     1.0  0.44674  0.74146  0.98949  1.0000
  S   S444      1.0  0.39966  0.67141  0.11742  1.0000
  C   C1123     1.0  0.20320  0.72243  0.17025  1.0000
  H   H1765     1.0  0.22114  0.53064  0.02078  1.0000
  H   H1766     1.0  0.18179  0.49285  0.11099  1.0000
  C   C1124     1.0  0.25877  0.50769  0.13581  1.0000
  C   C1125     1.0  0.19410  0.74924  0.17270  1.0000
  N   N111      1.0  0.24900  0.52134  0.08909  1.0000
  C   C1126     1.0  0.23649  0.53025  0.09956  1.0000
  C   C1127     1.0  0.24825  0.52892  0.07272  1.0000
  C   C1128     1.0  0.24683  0.50520  0.09246  1.0000
  C   C1129     1.0  0.26443  0.52099  0.09163  1.0000
  H   H1767     1.0  0.22468  0.53073  0.09797  1.0000
  H   H1768     1.0  0.23774  0.54250  0.09740  1.0000
  H   H1769     1.0  0.23666  0.52480  0.11201  1.0000
  H   H1770     1.0  0.25748  0.52246  0.06450  1.0000
  H   H1771     1.0  0.23527  0.50499  0.09073  1.0000
  H   H1772     1.0  0.24734  0.49917  0.10472  1.0000
  H   H1773     1.0  0.25601  0.49807  0.08478  1.0000
  H   H1774     1.0  0.26633  0.53299  0.08959  1.0000
  H   H1775     1.0  0.27416  0.51455  0.08378  1.0000
  H   H1776     1.0  0.26548  0.51506  0.10379  1.0000
  C   C1130     1.0  0.46000  0.66442  0.13692  1.0000
  C   C1131     1.0  0.45474  0.72892  0.98233  1.0000
  C   C1132     1.0  0.40215  0.73730  0.02614  1.0000
  H   H1777     1.0  0.47232  0.76240  0.16398  1.0000
  H   H1778     1.0  0.46750  0.73816  0.16065  1.0000
  H   H1779     1.0  0.06703  0.64720  0.11390  1.0000
  H   H1780     1.0  0.36479  0.82225  0.02483  1.0000
  H   H1781     1.0  0.42275  0.69078  0.12100  1.0000
  H   H1782     1.0  0.30219  0.71021  0.13483  1.0000
  H   H1783     1.0  0.31992  0.84918  0.17308  1.0000
  Fe  Fe227     1.0  0.37429  0.64004  0.13507  1.0000
  H   H1784     1.0  0.26980  0.53399  0.16402  1.0000
  H   H1785     1.0  0.18694  0.48974  0.06108  1.0000
  H   H1786     1.0  0.32660  0.67652  0.15728  1.0000
  C   C1133     1.0  0.45118  0.76114  0.05269  1.0000
  H   H1787     1.0  0.42425  0.75565  0.99750  1.0000
  C   C1134     1.0  0.10176  0.64436  0.99829  1.0000
  H   H1788     1.0  0.33732  0.79963  0.07746  1.0000
  C   C1135     1.0  0.26942  0.96373  0.16304  1.0000
  C   C1136     1.0  0.35809  0.70822  0.13360  1.0000
  H   H1789     1.0  0.31699  0.80787  0.08428  1.0000
  H   H1790     1.0  0.42328  0.72246  0.13862  1.0000
  H   H1791     1.0  0.33045  0.77414  0.08257  1.0000
  H   H1792     1.0  0.32121  0.76539  0.10180  1.0000
  C   C1137     1.0  0.27085  0.79065  0.11504  1.0000
  S   S445      1.0  0.48889  0.77497  0.98118  1.0000
  N   N112      1.0  0.32669  0.78737  0.09987  1.0000
  H   H1793     1.0  0.47927  0.76809  0.04047  1.0000
  H   H1794     1.0  0.20150  0.48740  0.10041  1.0000
  H   H1795     1.0  0.22694  0.64293  0.16623  1.0000
  H   H1796     1.0  0.46781  0.60270  0.15119  1.0000
  C   C1138     1.0  0.36171  0.60958  0.12317  1.0000
  H   H1797     1.0  0.47589  0.76959  0.14326  1.0000
  S   S446      1.0  0.24332  0.49873  0.13773  1.0000
  H   H1798     1.0  0.03233  0.71923  0.11191  1.0000
  H   H1799     1.0  0.48649  0.68172  0.10653  1.0000
  C   C1139     1.0  0.43042  0.74596  0.99196  1.0000
  C   C1140     1.0  0.43555  0.65781  0.13791  1.0000
  S   S447      1.0  0.02417  0.66490  0.15592  1.0000
  C   C1141     1.0  0.29548  0.68641  0.15891  1.0000
  H   H1800     1.0  0.29493  0.68466  0.14754  1.0000
  H   H1801     1.0  0.13905  0.67798  0.15646  1.0000
  Fe  Fe228     1.0  0.33654  0.91935  0.14360  1.0000
  H   H1802     1.0  0.05170  0.61133  0.13280  1.0000
  S   S448      1.0  0.38470  0.95959  0.16426  1.0000
  C   C1142     1.0  0.43003  0.72561  0.97989  1.0000
  C   C1143     1.0  0.44376  0.66612  0.14243  1.0000
  H   H1803     1.0  0.32576  0.98251  0.16344  1.0000
  H   H1804     1.0  0.43854  0.76523  0.02785  1.0000
  C   C1144     1.0  0.44359  0.64762  0.12794  1.0000
  C   C1145     1.0  0.13114  0.67528  0.16813  1.0000
  Fe  Fe229     1.0  0.47815  0.75721  0.97781  1.0000
  C   C1146     1.0  0.36019  0.93739  0.15040  1.0000
  H   H1805     1.0  0.04967  0.71057  0.11944  1.0000
  H   H1806     1.0  0.32794  0.96660  0.14470  1.0000
  H   H1807     1.0  0.01737  0.70220  0.15360  1.0000
  C   C1147     1.0  0.24586  0.62278  0.16353  1.0000
  C   C1148     1.0  0.37756  0.94488  0.16149  1.0000
  Fe  Fe230     1.0  0.32318  0.91784  0.11731  1.0000
  H   H1808     1.0  0.17905  0.56393  0.02278  1.0000
  H   H1809     1.0  0.03704  0.68002  0.17106  1.0000
  S   S449      1.0  0.20768  0.67712  0.16504  1.0000
  H   H1810     1.0  0.18886  0.53136  0.01758  1.0000
  H   H1811     1.0  0.26864  0.77933  0.12135  1.0000
  S   S450      1.0  0.21245  0.58530  0.02295  1.0000
  H   H1812     1.0  0.26268  0.96667  0.17439  1.0000
  C   C1149     1.0  0.35580  0.81763  0.02249  1.0000
  H   H1813     1.0  0.33351  0.65871  0.10571  1.0000
  S   S451      1.0  0.30247  0.93750  0.12201  1.0000
  H   H1814     1.0  0.25977  0.56911  0.16242  1.0000
  S   S452      1.0  0.32079  0.90510  0.14233  1.0000
  C   C1150     1.0  0.34733  0.72202  0.12907  1.0000
  H   H1815     1.0  0.06876  0.66648  0.01632  1.0000
  S   S453      1.0  0.28019  0.75444  0.14466  1.0000
  H   H1816     1.0  0.34812  0.64227  0.11226  1.0000
  H   H1817     1.0  0.33142  0.69514  0.14821  1.0000
  H   H1818     1.0  0.16065  0.55248  0.04662  1.0000
  S   S454      1.0  0.37306  0.68618  0.15504  1.0000
  N   N113      1.0  0.30679  0.69607  0.15688  1.0000
  C   C1151     1.0  0.34587  0.65239  0.10244  1.0000
  H   H1819     1.0  0.41506  0.73282  0.02324  1.0000
  Fe  Fe231     1.0  0.40762  0.64560  0.12568  1.0000
  S   S455      1.0  0.01041  0.68352  0.11612  1.0000
  N   N114      1.0  0.05189  0.63241  0.11499  1.0000
  C   C1152     1.0  0.17973  0.53357  0.02815  1.0000
  H   H1820     1.0  0.05266  0.64428  0.13194  1.0000
  C   C1153     1.0  0.37664  0.73108  0.03540  1.0000
  C   C1154     1.0  0.20735  0.49221  0.00478  1.0000
  S   S456      1.0  0.21564  0.53096  0.99146  1.0000
  H   H1821     1.0  0.29306  0.97763  0.15806  1.0000
  Fe  Fe232     1.0  0.27089  0.77618  0.15414  1.0000
  H   H1822     1.0  0.37376  0.64581  0.08308  1.0000
  H   H1823     1.0  0.14904  0.55201  0.01068  1.0000
  C   C1155     1.0  0.11208  0.64444  0.00716  1.0000
  H   H1824     1.0  0.12420  0.63844  0.00441  1.0000
  S   S457      1.0  0.31726  0.93924  0.15031  1.0000
  H   H1825     1.0  0.34653  0.72615  0.11696  1.0000
  H   H1826     1.0  0.03382  0.64126  0.10182  1.0000
  H   H1827     1.0  0.35446  0.66891  0.07335  1.0000
  S   S458      1.0  0.15551  0.50604  0.05800  1.0000
  H   H1828     1.0  0.22506  0.73758  0.16902  1.0000
  C   C1156     1.0  0.15516  0.54969  0.03858  1.0000
  H   H1829     1.0  0.44228  0.75404  0.05517  1.0000
  H   H1830     1.0  0.35669  0.84680  0.00610  1.0000
  C   C1157     1.0  0.45982  0.64604  0.12228  1.0000
  Fe  Fe233     1.0  0.18293  0.69054  0.17117  1.0000
  C   C1158     1.0  0.39674  0.71368  0.12458  1.0000
  C   C1159     1.0  0.41286  0.72467  0.13360  1.0000
  H   H1831     1.0  0.26492  0.54371  0.13272  1.0000
  H   H1832     1.0  0.39571  0.70496  0.15499  1.0000
  H   H1833     1.0  0.04645  0.65427  0.09882  1.0000
  C   C1160     1.0  0.26760  0.53132  0.13325  1.0000
  H   H1834     1.0  0.36818  0.63455  0.07306  1.0000
  Fe  Fe234     1.0  0.38376  0.66481  0.10677  1.0000
  H   H1835     1.0  0.39960  0.74440  0.03498  1.0000
  H   H1836     1.0  0.25342  0.62654  0.16832  1.0000
  H   H1837     1.0  0.23519  0.49304  0.00806  1.0000
  C   C1161     1.0  0.39847  0.71415  0.04605  1.0000
  H   H1838     1.0  0.43478  0.69927  0.12739  1.0000
  C   C1162     1.0  0.30682  0.69836  0.17222  1.0000
  S   S459      1.0  0.35582  0.62574  0.14633  1.0000
  S   S460      1.0  0.43375  0.63622  0.12303  1.0000
  C   C1163     1.0  0.04051  0.64543  0.10773  1.0000
  H   H1839     1.0  0.03180  0.65156  0.11653  1.0000
  H   H1840     1.0  0.18121  0.55884  0.00465  1.0000
  S   S461      1.0  0.36389  0.66551  0.12761  1.0000
  S   S462      1.0  0.39305  0.63901  0.11319  1.0000
  N   N115      1.0  0.34896  0.64732  0.08767  1.0000
  C   C1164     1.0  0.34639  0.66115  0.07491  1.0000
  C   C1165     1.0  0.36537  0.63855  0.08414  1.0000
  H   H1841     1.0  0.33421  0.66821  0.07730  1.0000
  H   H1842     1.0  0.36774  0.62802  0.09349  1.0000
  H   H1843     1.0  0.07164  0.61447  0.10798  1.0000
  C   C1166     1.0  0.40682  0.69971  0.14757  1.0000
  C   C1167     1.0  0.42433  0.70199  0.12226  1.0000
  H   H1844     1.0  0.40546  0.68825  0.14673  1.0000
  H   H1845     1.0  0.18545  0.53600  0.03624  1.0000
  H   H1846     1.0  0.37343  0.61166  0.11998  1.0000
  H   H1847     1.0  0.42710  0.70929  0.11035  1.0000
  N   N116      1.0  0.41019  0.71001  0.13200  1.0000
  C   C1168     1.0  0.35934  0.70305  0.14918  1.0000
  H   H1848     1.0  0.05686  0.61997  0.09674  1.0000
  H   H1849     1.0  0.33974  0.82229  0.99166  1.0000
  S   S463      1.0  0.32377  0.74728  0.13438  1.0000
  H   H1850     1.0  0.34849  0.65772  0.06363  1.0000
  H   H1851     1.0  0.03687  0.61613  0.12167  1.0000
  N   N117      1.0  0.12200  0.68972  0.17342  1.0000
  H   H1852     1.0  0.14330  0.50004  0.99277  1.0000
  C   C1169     1.0  0.02450  0.70369  0.14144  1.0000
  H   H1853     1.0  0.41129  0.70906  0.04383  1.0000
  H   H1854     1.0  0.29018  0.71764  0.15150  1.0000
  S   S464      1.0  0.26972  0.59714  0.16008  1.0000
  S   S465      1.0  0.07330  0.65389  0.98952  1.0000
  H   H1855     1.0  0.37298  0.80760  0.99675  1.0000
  H   H1856     1.0  0.00791  0.73114  0.12867  1.0000
  H   H1857     1.0  0.01731  0.70261  0.13390  1.0000
  C   C1170     1.0  0.39749  0.71544  0.01960  1.0000
  S   S466      1.0  0.28061  0.92267  0.16647  1.0000
  H   H1858     1.0  0.46455  0.78541  0.03621  1.0000
  H   H1859     1.0  0.28056  0.95536  0.16506  1.0000
  H   H1860     1.0  0.33032  0.82007  0.01190  1.0000
  H   H1861     1.0  0.20949  0.58583  0.99226  1.0000
  Fe  Fe235     1.0  0.49021  0.76944  0.09749  1.0000
  S   S467      1.0  0.48994  0.77939  0.07226  1.0000
  H   H1862     1.0  0.46604  0.63825  0.11447  1.0000
  H   H1863     1.0  0.39562  0.72061  0.05551  1.0000
  S   S468      1.0  0.35785  0.76904  0.99713  1.0000
  H   H1864     1.0  0.40631  0.78351  0.99556  1.0000
  C   C1171     1.0  0.31758  0.76094  0.00232  1.0000
  H   H1865     1.0  0.48971  0.70820  0.10467  1.0000
  C   C1172     1.0  0.47038  0.77385  0.03324  1.0000
  H   H1866     1.0  0.34565  0.80455  0.00528  1.0000
  C   C1173     1.0  0.44634  0.72080  0.97783  1.0000
  C   C1174     1.0  0.46712  0.74915  0.03143  1.0000
  H   H1867     1.0  0.31432  0.76943  0.00998  1.0000
  H   H1868     1.0  0.31944  0.86934  0.16356  1.0000
  C   C1175     1.0  0.28727  0.85656  0.98265  1.0000
  H   H1869     1.0  0.37254  0.73867  0.02483  1.0000
  H   H1870     1.0  0.39236  0.70427  0.05064  1.0000
  S   S469      1.0  0.29444  0.73872  0.17641  1.0000
  C   C1176     1.0  0.37503  0.91794  0.16799  1.0000
  H   H1871     1.0  0.47118  0.74533  0.13993  1.0000
  H   H1872     1.0  0.34480  0.82059  0.03121  1.0000
  H   H1873     1.0  0.31153  0.75120  0.00853  1.0000
  H   H1874     1.0  0.39868  0.74541  0.01551  1.0000
  H   H1875     1.0  0.31026  0.71912  0.14501  1.0000
  H   H1876     1.0  0.23433  0.50079  0.98802  1.0000
  H   H1877     1.0  0.43757  0.67365  0.15048  1.0000
  C   C1177     1.0  0.29052  0.82917  0.98294  1.0000
  H   H1878     1.0  0.28972  0.76525  0.99513  1.0000
  H   H1879     1.0  0.13430  0.48507  0.97913  1.0000
  C   C1178     1.0  0.23091  0.63207  0.16232  1.0000
  H   H1880     1.0  0.19141  0.72185  0.16952  1.0000
  H   H1881     1.0  0.39389  0.72286  0.00873  1.0000
  H   H1882     1.0  0.25470  0.83952  0.16247  1.0000
  H   H1883     1.0  0.10078  0.67599  0.97759  1.0000
  H   H1884     1.0  0.41033  0.71055  0.01636  1.0000
  C   C1179     1.0  0.38165  0.92943  0.16955  1.0000
  S   S470      1.0  0.45685  0.75150  0.99566  1.0000
  H   H1885     1.0  0.28817  0.53134  0.16913  1.0000
  H   H1886     1.0  0.47386  0.75100  0.01912  1.0000
  S   S471      1.0  0.26147  0.72053  0.17545  1.0000
  N   N118      1.0  0.35356  0.82424  0.00637  1.0000
  H   H1887     1.0  0.28343  0.69202  0.16441  1.0000
  C   C1180     1.0  0.47688  0.73878  0.14984  1.0000
  H   H1888     1.0  0.14056  0.70213  0.16292  1.0000
  H   H1889     1.0  0.34764  0.87197  0.17390  1.0000
  H   H1890     1.0  0.11975  0.70262  0.15031  1.0000
  C   C1181     1.0  0.32356  0.97906  0.14186  1.0000
  H   H1891     1.0  0.99832  0.61002  0.17267  1.0000
  N   N119      1.0  0.48889  0.74633  0.15077  1.0000
  S   S472      1.0  0.17263  0.67524  0.16343  1.0000
  C   C1182     1.0  0.01512  0.73161  0.13650  1.0000
  H   H1892     1.0  0.48923  0.62456  0.13217  1.0000
  C   C1183     1.0  0.25356  0.71624  0.16202  1.0000
  H   H1893     1.0  0.46063  0.61112  0.16811  1.0000
  N   N120      1.0  0.27242  0.97782  0.15100  1.0000
  H   H1894     1.0  0.33787  0.85543  0.16303  1.0000
  C   C1184     1.0  0.24708  0.70301  0.16655  1.0000
  H   H1895     1.0  0.47676  0.62565  0.17416  1.0000
  H   H1896     1.0  0.26269  0.95729  0.15952  1.0000
  H   H1897     1.0  0.18214  0.74936  0.17174  1.0000
  H   H1898     1.0  0.12336  0.66832  0.16714  1.0000
  C   C1185     1.0  0.42209  0.73817  0.98700  1.0000
  N   N121      1.0  0.48434  0.61251  0.15617  1.0000
  H   H1899     1.0  0.34635  0.84680  0.99194  1.0000
  H   H1900     1.0  0.48211  0.72665  0.14810  1.0000
  H   H1901     1.0  0.13862  0.66774  0.17634  1.0000
  H   H1902     1.0  0.28508  0.56513  0.16976  1.0000
  C   C1186     1.0  0.32610  0.85885  0.17051  1.0000
  H   H1903     1.0  0.47952  0.63727  0.15468  1.0000
  H   H1904     1.0  0.45276  0.97354  0.17167  1.0000
  H   H1905     1.0  0.20078  0.75335  0.16071  1.0000
  H   H1906     1.0  0.20911  0.71036  0.17523  1.0000
  H   H1907     1.0  0.26812  0.82211  0.15745  1.0000
  S   S473      1.0  0.00073  0.64715  0.14882  1.0000
  C   C1187     1.0  0.11233  0.69938  0.16216  1.0000
  C   C1188     1.0  0.10276  0.55718  0.97947  1.0000
  H   H1908     1.0  0.24743  0.55546  0.17169  1.0000
  H   H1909     1.0  0.49036  0.76838  0.15367  1.0000
  C   C1189     1.0  0.29630  0.77466  0.98937  1.0000
  H   H1910     1.0  0.10529  0.71038  0.16581  1.0000
  S   S474      1.0  0.37392  0.73110  0.98207  1.0000
  H   H1911     1.0  0.32932  0.88582  0.17448  1.0000
  H   H1912     1.0  0.09155  0.55391  0.98394  1.0000
  H   H1913     1.0  0.49139  0.58746  0.16208  1.0000
  C   C1190     1.0  0.27765  0.54021  0.16614  1.0000
  C   C1191     1.0  0.03848  0.71978  0.14674  1.0000
  H   H1914     1.0  0.31221  0.74705  0.98245  1.0000
  H   H1915     1.0  0.28388  0.98349  0.12679  1.0000
  H   H1916     1.0  0.06217  0.68487  0.17209  1.0000
  H   H1917     1.0  0.29279  0.78053  0.97805  1.0000
  H   H1918     1.0  0.33446  0.77738  0.97785  1.0000
  H   H1919     1.0  0.25008  0.98312  0.14495  1.0000
  H   H1920     1.0  0.38989  0.92635  0.17702  1.0000
  Fe  Fe236     1.0  0.37026  0.75714  0.97728  1.0000
  Fe  Fe237     1.0  0.09396  0.68251  0.23680  1.0000
  S   S475      1.0  0.08895  0.70674  0.22242  1.0000
  S   S476      1.0  0.11836  0.66808  0.23643  1.0000
  Fe  Fe238     1.0  0.05959  0.68207  0.24919  1.0000
  S   S477      1.0  0.05174  0.70642  0.23594  1.0000
  S   S478      1.0  0.04164  0.66819  0.26346  1.0000
  Fe  Fe239     1.0  0.07075  0.69888  0.21611  1.0000
  S   S479      1.0  0.06962  0.70072  0.19134  1.0000
  Fe  Fe240     1.0  0.07068  0.71175  0.24378  1.0000
  S   S480      1.0  0.06815  0.73406  0.25137  1.0000
  S   S481      1.0  0.07722  0.67415  0.22892  1.0000
  S   S482      1.0  0.07700  0.68785  0.25866  1.0000
  Fe  Fe241     1.0  0.36648  0.89104  0.31472  1.0000
  S   S483      1.0  0.38441  0.86929  0.31058  1.0000
  S   S484      1.0  0.36977  0.91518  0.30260  1.0000
  Fe  Fe242     1.0  0.36394  0.86085  0.30922  1.0000
  S   S485      1.0  0.36549  0.85105  0.28864  1.0000
  Fe  Fe243     1.0  0.37715  0.86067  0.33645  1.0000
  H   H1921     1.0  0.31190  0.86867  0.20575  1.0000
  S   S486      1.0  0.34666  0.88336  0.31143  1.0000
  H   H1922     1.0  0.32883  0.96172  0.19418  1.0000
  H   H1923     1.0  0.08187  0.49954  0.34669  1.0000
  Fe  Fe244     1.0  0.34243  0.87350  0.33706  1.0000
  N   N122      1.0  0.05315  0.65900  0.31613  1.0000
  S   S487      1.0  0.15772  0.85099  0.36711  1.0000
  N   N123      1.0  0.32734  0.86206  0.18502  1.0000
  C   C1192     1.0  0.47419  0.94150  0.29307  1.0000
  C   C1193     1.0  0.02541  0.51795  0.29782  1.0000
  H   H1924     1.0  0.35481  0.92223  0.19515  1.0000
  H   H1925     1.0  0.03426  0.50671  0.29861  1.0000
  H   H1926     1.0  0.26485  0.83655  0.18592  1.0000
  H   H1927     1.0  0.35854  0.84982  0.36933  1.0000
  H   H1928     1.0  0.11646  0.97845  0.34762  1.0000
  S   S488      1.0  0.00014  0.60367  0.34361  1.0000
  H   H1929     1.0  0.17003  0.66861  0.20192  1.0000
  H   H1930     1.0  0.48429  0.59666  0.17849  1.0000
  C   C1194     1.0  0.99720  0.53056  0.23817  1.0000
  C   C1195     1.0  0.06411  0.64460  0.31221  1.0000
  Fe  Fe245     1.0  0.48054  0.89272  0.32644  1.0000
  C   C1196     1.0  0.14290  0.70082  0.21081  1.0000
  H   H1931     1.0  0.46708  0.95803  0.19294  1.0000
  H   H1932     1.0  0.01391  0.49340  0.29975  1.0000
  C   C1197     1.0  0.01862  0.61425  0.20080  1.0000
  H   H1933     1.0  0.30453  0.87745  0.18828  1.0000
  C   C1198     1.0  0.19280  0.72835  0.19570  1.0000
  H   H1934     1.0  0.18965  0.87012  0.30593  1.0000
  C   C1199     1.0  0.48169  0.92954  0.34018  1.0000
  C   C1200     1.0  0.03716  0.68661  0.17911  1.0000
  H   H1935     1.0  0.25038  0.82454  0.33693  1.0000
  H   H1936     1.0  0.06167  0.48864  0.36912  1.0000
  H   H1937     1.0  0.10486  0.76806  0.36635  1.0000
  H   H1938     1.0  0.17522  0.97869  0.36438  1.0000
  C   C1201     1.0  0.08758  0.48725  0.34579  1.0000
  H   H1939     1.0  0.25104  0.79842  0.17887  1.0000
  C   C1202     1.0  0.02357  0.70087  0.19940  1.0000
  H   H1940     1.0  0.25800  0.79618  0.19613  1.0000
  S   S489      1.0  0.28149  0.76740  0.20643  1.0000
  H   H1941     1.0  0.48239  0.91912  0.34995  1.0000
  S   S490      1.0  0.19408  0.85342  0.35037  1.0000
  H   H1942     1.0  0.27494  0.82213  0.29765  1.0000
  H   H1943     1.0  0.47174  0.98376  0.17906  1.0000
  Fe  Fe246     1.0  0.10953  0.77477  0.32486  1.0000
  S   S491      1.0  0.08776  0.78517  0.34044  1.0000
  S   S492      1.0  0.13279  0.78131  0.32082  1.0000
  Fe  Fe247     1.0  0.09310  0.75303  0.31801  1.0000
  S   S493      1.0  0.07004  0.76193  0.33325  1.0000
  S   S494      1.0  0.09644  0.73190  0.30798  1.0000
  Fe  Fe248     1.0  0.07557  0.78556  0.32222  1.0000
  S   S495      1.0  0.05857  0.80814  0.31565  1.0000
  Fe  Fe249     1.0  0.08442  0.76072  0.34997  1.0000
  C   C1203     1.0  0.03138  0.65211  0.21142  1.0000
  S   S496      1.0  0.09766  0.77687  0.30560  1.0000
  S   S497      1.0  0.10716  0.75009  0.33575  1.0000
  Fe  Fe250     1.0  0.47100  0.86679  0.35327  1.0000
  H   H1944     1.0  0.21581  0.86756  0.37228  1.0000
  H   H1945     1.0  0.04679  0.66707  0.29386  1.0000
  S   S498      1.0  0.99331  0.81333  0.36335  1.0000
  H   H1946     1.0  0.12237  0.62547  0.37240  1.0000
  C   C1204     1.0  0.45673  0.96344  0.20106  1.0000
  Fe  Fe251     1.0  0.17128  0.85894  0.34319  1.0000
  C   C1205     1.0  0.99812  0.53071  0.30411  1.0000
  S   S499      1.0  0.05787  0.62390  0.35784  1.0000
  C   C1206     1.0  0.09371  0.97704  0.34601  1.0000
  H   H1947     1.0  0.00284  0.65312  0.23013  1.0000
  H   H1948     1.0  0.15799  0.97200  0.36547  1.0000
  Fe  Fe252     1.0  0.05278  0.60456  0.35037  1.0000
  S   S500      1.0  0.07068  0.58564  0.33973  1.0000
  H   H1949     1.0  0.12508  0.73179  0.24883  1.0000
  Fe  Fe253     1.0  0.02616  0.59805  0.34059  1.0000
  S   S501      1.0  0.04182  0.57932  0.32852  1.0000
  S   S502      1.0  0.99312  0.85375  0.37126  1.0000
  Fe  Fe254     1.0  0.05212  0.57142  0.34968  1.0000
  H   H1950     1.0  0.12637  0.70939  0.17879  1.0000
  Fe  Fe255     1.0  0.05860  0.59519  0.31973  1.0000
  S   S503      1.0  0.07225  0.60016  0.29515  1.0000
  C   C1207     1.0  0.44335  0.97884  0.18063  1.0000
  S   S504      1.0  0.04180  0.61482  0.32965  1.0000
  H   H1951     1.0  0.99704  0.48638  0.24970  1.0000
  C   C1208     1.0  0.99719  0.49866  0.24638  1.0000
  S   S505      1.0  0.35855  0.96886  0.20281  1.0000
  H   H1952     1.0  0.11659  0.80666  0.36541  1.0000
  Fe  Fe256     1.0  0.39772  0.95319  0.21646  1.0000
  S   S506      1.0  0.37555  0.96306  0.23203  1.0000
  S   S507      1.0  0.42067  0.94326  0.22383  1.0000
  Fe  Fe257     1.0  0.36462  0.94941  0.22280  1.0000
  S   S508      1.0  0.34828  0.93448  0.23882  1.0000
  C   C1209     1.0  0.99363  0.59487  0.33259  1.0000
  H   H1953     1.0  0.01464  0.63375  0.23440  1.0000
  S   S509      1.0  0.38712  0.93800  0.20873  1.0000
  S   S510      1.0  0.39494  0.97299  0.19581  1.0000
  H   H1954     1.0  0.31513  0.90473  0.24941  1.0000
  H   H1955     1.0  0.00809  0.61754  0.19639  1.0000
  C   C1210     1.0  0.11016  0.76596  0.37652  1.0000
  Fe  Fe258     1.0  0.29433  0.83646  0.23278  1.0000
  S   S511      1.0  0.27823  0.86023  0.22994  1.0000
  S   S512      1.0  0.30292  0.82595  0.21137  1.0000
  Fe  Fe259     1.0  0.29815  0.83776  0.26447  1.0000
  S   S513      1.0  0.28245  0.86150  0.26398  1.0000
  S   S514      1.0  0.30703  0.82766  0.28663  1.0000
  Fe  Fe260     1.0  0.26710  0.85226  0.25510  1.0000
  S   S515      1.0  0.24118  0.85884  0.26487  1.0000
  Fe  Fe261     1.0  0.29498  0.86722  0.23912  1.0000
  S   S516      1.0  0.30447  0.88897  0.22852  1.0000
  S   S517      1.0  0.28179  0.82782  0.25743  1.0000
  S   S518      1.0  0.31208  0.84418  0.24016  1.0000
  C   C1211     1.0  0.16253  0.97967  0.36987  1.0000
  H   H1956     1.0  0.11996  0.70060  0.22553  1.0000
  S   S519      1.0  0.17526  0.83631  0.33617  1.0000
  H   H1957     1.0  0.18068  0.72826  0.19541  1.0000
  C   C1212     1.0  0.01774  0.60933  0.21690  1.0000
  S   S520      1.0  0.21949  0.81800  0.33162  1.0000
  H   H1958     1.0  0.00493  0.50974  0.28660  1.0000
  H   H1959     1.0  0.22419  0.72202  0.18604  1.0000
  N   N124      1.0  0.44964  0.97945  0.19363  1.0000
  S   S521      1.0  0.05677  0.93530  0.34347  1.0000
  H   H1960     1.0  0.05977  0.63978  0.30474  1.0000
  C   C1213     1.0  0.99768  0.58364  0.31027  1.0000
  H   H1961     1.0  0.32785  0.95329  0.21454  1.0000
  Fe  Fe262     1.0  0.07816  0.91669  0.34775  1.0000
  S   S522      1.0  0.09033  0.89842  0.33363  1.0000
  S   S523      1.0  0.17205  0.70094  0.19224  1.0000
  N   N125      1.0  0.26963  0.54919  0.17838  1.0000
  H   H1962     1.0  0.12565  0.68407  0.27203  1.0000
  C   C1214     1.0  0.43187  0.97068  0.25241  1.0000
  H   H1963     1.0  0.03720  0.64204  0.24836  1.0000
  C   C1215     1.0  0.11844  0.90612  0.32935  1.0000
  C   C1216     1.0  0.11055  0.89409  0.33255  1.0000
  C   C1217     1.0  0.11888  0.87853  0.33487  1.0000
  C   C1218     1.0  0.13504  0.87500  0.33418  1.0000
  H   H1964     1.0  0.02106  0.66878  0.24277  1.0000
  H   H1965     1.0  0.11280  0.86918  0.33748  1.0000
  H   H1966     1.0  0.14136  0.86294  0.33624  1.0000
  C   C1219     1.0  0.23568  0.84741  0.28348  1.0000
  C   C1220     1.0  0.23969  0.83111  0.28610  1.0000
  C   C1221     1.0  0.23439  0.82211  0.30084  1.0000
  C   C1222     1.0  0.22521  0.82938  0.31301  1.0000
  C   C1223     1.0  0.22127  0.84568  0.31038  1.0000
  C   C1224     1.0  0.22655  0.85467  0.29565  1.0000
  H   H1967     1.0  0.24662  0.82545  0.27669  1.0000
  H   H1968     1.0  0.23734  0.80950  0.30276  1.0000
  H   H1969     1.0  0.21441  0.85138  0.31975  1.0000
  H   H1970     1.0  0.22377  0.86726  0.29373  1.0000
  S   S524      1.0  0.06056  0.50447  0.31390  1.0000
  C   C1225     1.0  0.27637  0.90838  0.19758  1.0000
  C   C1226     1.0  0.28163  0.90087  0.21143  1.0000
  C   C1227     1.0  0.29734  0.89894  0.21171  1.0000
  C   C1228     1.0  0.30780  0.90422  0.19815  1.0000
  H   H1971     1.0  0.03839  0.79444  0.36794  1.0000
  H   H1972     1.0  0.26419  0.90999  0.19740  1.0000
  H   H1973     1.0  0.27349  0.89670  0.22189  1.0000
  H   H1974     1.0  0.32004  0.90225  0.19817  1.0000
  C   C1229     1.0  0.43564  0.85367  0.36450  1.0000
  H   H1975     1.0  0.31172  0.95483  0.20612  1.0000
  C   C1230     1.0  0.00532  0.50481  0.29906  1.0000
  H   H1976     1.0  0.01223  0.51647  0.32818  1.0000
  H   H1977     1.0  0.19228  0.84397  0.30271  1.0000
  H   H1978     1.0  0.01903  0.56898  0.35540  1.0000
  H   H1979     1.0  0.20301  0.84900  0.28309  1.0000
  H   H1980     1.0  0.48495  0.94936  0.35522  1.0000
  H   H1981     1.0  0.99726  0.54286  0.23490  1.0000
  H   H1982     1.0  0.11559  0.64540  0.36295  1.0000
  C   C1231     1.0  0.41680  0.97425  0.24961  1.0000
  C   C1232     1.0  0.41318  0.96577  0.24095  1.0000
  C   C1233     1.0  0.42453  0.95356  0.23535  1.0000
  C   C1234     1.0  0.43933  0.94954  0.23879  1.0000
  S   S525      1.0  0.99701  0.65115  0.18455  1.0000
  H   H1983     1.0  0.40168  0.96879  0.23853  1.0000
  C   C1235     1.0  0.34904  0.93395  0.19775  1.0000
  H   H1984     1.0  0.30474  0.85734  0.19733  1.0000
  S   S526      1.0  0.48012  0.86796  0.32765  1.0000
  H   H1985     1.0  0.07090  0.66749  0.32053  1.0000
  H   H1986     1.0  0.01448  0.67610  0.22477  1.0000
  H   H1987     1.0  0.46154  0.94508  0.29522  1.0000
  Fe  Fe263     1.0  0.19703  0.82992  0.34554  1.0000
  H   H1988     1.0  0.29499  0.70426  0.17792  1.0000
  S   S527      1.0  0.00244  0.88633  0.33680  1.0000
  H   H1989     1.0  0.05644  0.60234  0.21682  1.0000
  S   S528      1.0  0.16320  0.88286  0.32926  1.0000
  H   H1990     1.0  0.02609  0.52334  0.28524  1.0000
  N   N126      1.0  0.25567  0.81931  0.18143  1.0000
  H   H1991     1.0  0.19819  0.71624  0.20116  1.0000
  C   C1236     1.0  0.48331  0.95233  0.28445  1.0000
  C   C1237     1.0  0.00307  0.59108  0.31862  1.0000
  H   H1992     1.0  0.32860  0.92540  0.22463  1.0000
  H   H1993     1.0  0.99796  0.53600  0.29162  1.0000
  H   H1994     1.0  0.01431  0.59426  0.31407  1.0000
  C   C1238     1.0  0.05503  0.53459  0.34828  1.0000
  C   C1239     1.0  0.04886  0.52113  0.35337  1.0000
  C   C1240     1.0  0.05024  0.51190  0.34287  1.0000
  C   C1241     1.0  0.05809  0.51592  0.32734  1.0000
  C   C1242     1.0  0.06436  0.52928  0.32234  1.0000
  C   C1243     1.0  0.06270  0.53869  0.33271  1.0000
  H   H1995     1.0  0.26731  0.81797  0.19937  1.0000
  C   C1244     1.0  0.11949  0.69493  0.26511  1.0000
  H   H1996     1.0  0.07080  0.53215  0.31046  1.0000
  H   H1997     1.0  0.06773  0.54891  0.32878  1.0000
  C   C1245     1.0  0.00714  0.89687  0.34767  1.0000
  C   C1246     1.0  0.31245  0.86693  0.36851  1.0000
  S   S529      1.0  0.01613  0.52793  0.25764  1.0000
  H   H1998     1.0  0.23884  0.81947  0.20316  1.0000
  C   C1247     1.0  0.02447  0.91158  0.35031  1.0000
  C   C1248     1.0  0.01977  0.90429  0.34127  1.0000
  C   C1249     1.0  0.32611  0.92468  0.21366  1.0000
  S   S530      1.0  0.46947  0.91305  0.30989  1.0000
  H   H1999     1.0  0.03446  0.91690  0.34543  1.0000
  H   H2000     1.0  0.02598  0.90430  0.32936  1.0000
  H   H2001     1.0  0.99860  0.59016  0.19674  1.0000
  C   C1250     1.0  0.13535  0.79186  0.33310  1.0000
  C   C1251     1.0  0.14997  0.79535  0.33092  1.0000
  C   C1252     1.0  0.15257  0.80292  0.34113  1.0000
  C   C1253     1.0  0.14057  0.80687  0.35370  1.0000
  C   C1254     1.0  0.12592  0.80352  0.35578  1.0000
  C   C1255     1.0  0.12327  0.79619  0.34544  1.0000
  H   H2002     1.0  0.15939  0.79200  0.32143  1.0000
  H   H2003     1.0  0.16395  0.80532  0.33952  1.0000
  H   H2004     1.0  0.33190  0.91271  0.21173  1.0000
  H   H2005     1.0  0.11196  0.79374  0.34716  1.0000
  C   C1256     1.0  0.04029  0.80950  0.32865  1.0000
  C   C1257     1.0  0.03147  0.82415  0.33121  1.0000
  C   C1258     1.0  0.01702  0.82539  0.34193  1.0000
  C   C1259     1.0  0.01125  0.81199  0.34985  1.0000
  C   C1260     1.0  0.01979  0.79742  0.34691  1.0000
  C   C1261     1.0  0.03441  0.79614  0.33648  1.0000
  H   H2006     1.0  0.03592  0.83452  0.32506  1.0000
  H   H2007     1.0  0.01040  0.83672  0.34402  1.0000
  H   H2008     1.0  0.01512  0.78712  0.35269  1.0000
  H   H2009     1.0  0.04096  0.78488  0.33421  1.0000
  C   C1262     1.0  0.28783  0.78347  0.20774  1.0000
  C   C1263     1.0  0.28240  0.78901  0.22157  1.0000
  C   C1264     1.0  0.28699  0.80198  0.22291  1.0000
  C   C1265     1.0  0.29721  0.80935  0.21045  1.0000
  C   C1266     1.0  0.30278  0.80371  0.19668  1.0000
  C   C1267     1.0  0.29801  0.79089  0.19527  1.0000
  H   H2010     1.0  0.27459  0.78326  0.23129  1.0000
  H   H2011     1.0  0.28268  0.80620  0.23359  1.0000
  H   H2012     1.0  0.31078  0.80930  0.18704  1.0000
  H   H2013     1.0  0.03377  0.64010  0.20945  1.0000
  S   S531      1.0  0.03027  0.59876  0.24282  1.0000
  H   H2014     1.0  0.11864  0.69201  0.25439  1.0000
  C   C1268     1.0  0.01122  0.56062  0.35924  1.0000
  C   C1269     1.0  0.32767  0.93599  0.18619  1.0000
  N   N127      1.0  0.02713  0.65215  0.22822  1.0000
  N   N128      1.0  0.12395  0.75277  0.37622  1.0000
  S   S532      1.0  0.31747  0.87914  0.35025  1.0000
  C   C1270     1.0  0.21783  0.73377  0.18078  1.0000
  H   H2015     1.0  0.14125  0.71339  0.20844  1.0000
  H   H2016     1.0  0.35374  0.94287  0.18787  1.0000
  C   C1271     1.0  0.14296  0.88706  0.33062  1.0000
  H   H2017     1.0  0.19192  0.73615  0.20345  1.0000
  H   H2018     1.0  0.31031  0.90710  0.28348  1.0000
  S   S533      1.0  0.46950  0.89198  0.35163  1.0000
  H   H2019     1.0  0.11799  0.71963  0.24114  1.0000
  H   H2020     1.0  0.16536  0.86000  0.31103  1.0000
  C   C1272     1.0  0.03137  0.60505  0.22270  1.0000
  H   H2021     1.0  0.99702  0.81102  0.32369  1.0000
  H   H2022     1.0  0.18606  0.84095  0.28706  1.0000
  H   H2023     1.0  0.15720  0.87630  0.29753  1.0000
  N   N129      1.0  0.33185  0.93674  0.20040  1.0000
  S   S534      1.0  0.00503  0.68955  0.18847  1.0000
  Fe  Fe264     1.0  0.38219  0.95880  0.18950  1.0000
  C   C1273     1.0  0.18001  0.87134  0.27229  1.0000
  H   H2024     1.0  0.15957  0.85674  0.29523  1.0000
  C   C1274     1.0  0.42676  0.84318  0.37464  1.0000
  S   S535      1.0  0.08927  0.93204  0.35470  1.0000
  H   H2025     1.0  0.02175  0.65935  0.20551  1.0000
  H   H2026     1.0  0.31035  0.68704  0.18027  1.0000
  H   H2027     1.0  0.04529  0.50168  0.34681  1.0000
  C   C1275     1.0  0.04008  0.64223  0.23567  1.0000
  H   H2028     1.0  0.09649  0.96444  0.34807  1.0000
  C   C1276     1.0  0.03764  0.65556  0.32434  1.0000
  C   C1277     1.0  0.99869  0.89754  0.36286  1.0000
  H   H2029     1.0  0.09262  0.72788  0.36031  1.0000
  H   H2030     1.0  0.19294  0.75790  0.17964  1.0000
  C   C1278     1.0  0.08847  0.72306  0.37248  1.0000
  C   C1279     1.0  0.40882  0.85002  0.35728  1.0000
  H   H2031     1.0  0.23674  0.83762  0.18899  1.0000
  S   S536      1.0  0.03540  0.58945  0.36237  1.0000
  H   H2032     1.0  0.12680  0.88519  0.36513  1.0000
  C   C1280     1.0  0.30764  0.89704  0.28088  1.0000
  H   H2033     1.0  0.10708  0.72591  0.25869  1.0000
  H   H2034     1.0  0.17480  0.86403  0.26811  1.0000
  H   H2035     1.0  0.14369  0.70021  0.24130  1.0000
  C   C1281     1.0  0.14379  0.70309  0.25228  1.0000
  H   H2036     1.0  0.03282  0.65090  0.31708  1.0000
  H   H2037     1.0  0.19935  0.87663  0.28609  1.0000
  H   H2038     1.0  0.27934  0.82017  0.18004  1.0000
  C   C1282     1.0  0.04679  0.61016  0.19625  1.0000
  C   C1283     1.0  0.02422  0.66829  0.23023  1.0000
  C   C1284     1.0  0.19100  0.84904  0.29046  1.0000
  S   S537      1.0  0.00533  0.57368  0.23708  1.0000
  H   H2039     1.0  0.33540  0.89496  0.24742  1.0000
  H   H2040     1.0  0.09882  0.69931  0.37027  1.0000
  C   C1285     1.0  0.41745  0.86081  0.34711  1.0000
  C   C1286     1.0  0.34941  0.84407  0.28847  1.0000
  C   C1287     1.0  0.34815  0.84157  0.27448  1.0000
  C   C1288     1.0  0.33511  0.83665  0.27380  1.0000
  C   C1289     1.0  0.32341  0.83392  0.28720  1.0000
  C   C1290     1.0  0.32473  0.83628  0.30124  1.0000
  C   C1291     1.0  0.33760  0.84154  0.30184  1.0000
  H   H2041     1.0  0.35728  0.84348  0.26412  1.0000
  H   H2042     1.0  0.33428  0.83468  0.26298  1.0000
  H   H2043     1.0  0.31573  0.83419  0.31166  1.0000
  H   H2044     1.0  0.33849  0.84348  0.31266  1.0000
  C   C1292     1.0  0.36340  0.92047  0.28510  1.0000
  C   C1293     1.0  0.35896  0.93625  0.27815  1.0000
  C   C1294     1.0  0.35408  0.94056  0.26403  1.0000
  C   C1295     1.0  0.35370  0.92909  0.25681  1.0000
  C   C1296     1.0  0.35835  0.91330  0.26364  1.0000
  C   C1297     1.0  0.36321  0.90899  0.27778  1.0000
  H   H2045     1.0  0.35918  0.94515  0.28375  1.0000
  H   H2046     1.0  0.35045  0.95278  0.25881  1.0000
  H   H2047     1.0  0.35861  0.90442  0.25780  1.0000
  H   H2048     1.0  0.36717  0.89677  0.28281  1.0000
  S   S538      1.0  0.06714  0.90632  0.37215  1.0000
  H   H2049     1.0  0.41388  0.86759  0.33646  1.0000
  C   C1298     1.0  0.26728  0.82373  0.18693  1.0000
  H   H2050     1.0  0.29062  0.79957  0.33320  1.0000
  H   H2051     1.0  0.13444  0.72109  0.27351  1.0000
  H   H2052     1.0  0.26757  0.83057  0.33697  1.0000
  H   H2053     1.0  0.05402  0.64725  0.37457  1.0000
  C   C1299     1.0  0.07428  0.73356  0.26821  1.0000
  C   C1300     1.0  0.07849  0.71948  0.27861  1.0000
  C   C1301     1.0  0.08463  0.71925  0.29116  1.0000
  C   C1302     1.0  0.08653  0.73309  0.29351  1.0000
  C   C1303     1.0  0.08178  0.74726  0.28348  1.0000
  C   C1304     1.0  0.07569  0.74748  0.27086  1.0000
  H   H2054     1.0  0.07716  0.70877  0.27688  1.0000
  H   H2055     1.0  0.08816  0.70827  0.29898  1.0000
  H   H2056     1.0  0.08322  0.75800  0.28517  1.0000
  H   H2057     1.0  0.07238  0.75844  0.26292  1.0000
  C   C1305     1.0  0.05018  0.64898  0.27142  1.0000
  C   C1306     1.0  0.06639  0.64336  0.26755  1.0000
  C   C1307     1.0  0.07311  0.62809  0.27442  1.0000
  C   C1308     1.0  0.06365  0.61858  0.28540  1.0000
  C   C1309     1.0  0.04742  0.62414  0.28909  1.0000
  C   C1310     1.0  0.04069  0.63931  0.28205  1.0000
  H   H2058     1.0  0.07380  0.65081  0.25940  1.0000
  H   H2059     1.0  0.08568  0.62383  0.27158  1.0000
  H   H2060     1.0  0.04002  0.61678  0.29742  1.0000
  H   H2061     1.0  0.02813  0.64364  0.28503  1.0000
  C   C1311     1.0  0.05176  0.69752  0.19045  1.0000
  C   C1312     1.0  0.03783  0.70319  0.20035  1.0000
  H   H2062     1.0  0.03798  0.70969  0.20851  1.0000
  C   C1313     1.0  0.14715  0.66836  0.21702  1.0000
  C   C1314     1.0  0.13298  0.67735  0.22367  1.0000
  H   H2063     1.0  0.14889  0.65578  0.21955  1.0000
  H   H2064     1.0  0.04361  0.68213  0.30413  1.0000
  H   H2065     1.0  0.04259  0.62994  0.23440  1.0000
  H   H2066     1.0  0.11207  0.91817  0.32740  1.0000
  C   C1315     1.0  0.43099  0.86254  0.35066  1.0000
  S   S539      1.0  0.43689  0.98225  0.26184  1.0000
  H   H2067     1.0  0.32704  0.86979  0.25931  1.0000
  H   H2068     1.0  0.26457  0.81146  0.34746  1.0000
  Fe  Fe265     1.0  0.28367  0.76196  0.18318  1.0000
  H   H2069     1.0  0.14078  0.91197  0.32533  1.0000
  H   H2070     1.0  0.31412  0.86723  0.27819  1.0000
  H   H2071     1.0  0.04289  0.51794  0.36540  1.0000
  H   H2072     1.0  0.07588  0.64676  0.30576  1.0000
  C   C1316     1.0  0.31711  0.87595  0.26724  1.0000
  H   H2073     1.0  0.43775  0.87072  0.34276  1.0000
  C   C1317     1.0  0.26539  0.80099  0.32251  1.0000
  C   C1318     1.0  0.05139  0.68934  0.17973  1.0000
  H   H2074     1.0  0.37084  0.87053  0.37100  1.0000
  Fe  Fe266     1.0  0.37169  0.98152  0.21064  1.0000
  S   S540      1.0  0.05319  0.54608  0.36149  1.0000
  C   C1319     1.0  0.32471  0.95235  0.20395  1.0000
  S   S541      1.0  0.36080  0.88326  0.34070  1.0000
  H   H2075     1.0  0.29381  0.81851  0.32232  1.0000
  C   C1320     1.0  0.01281  0.64598  0.23558  1.0000
  H   H2076     1.0  0.35279  0.93440  0.20810  1.0000
  Fe  Fe267     1.0  0.00531  0.55317  0.25740  1.0000
  H   H2077     1.0  0.23079  0.82132  0.18675  1.0000
  C   C1321     1.0  0.12856  0.91204  0.37045  1.0000
  H   H2078     1.0  0.30689  0.87988  0.26163  1.0000
  H   H2079     1.0  0.00648  0.60898  0.22483  1.0000
  C   C1322     1.0  0.15706  0.69181  0.20420  1.0000
  C   C1323     1.0  0.13561  0.75605  0.36151  1.0000
  H   H2080     1.0  0.99736  0.50653  0.32904  1.0000
  C   C1324     1.0  0.05162  0.67100  0.30166  1.0000
  C   C1325     1.0  0.26957  0.82665  0.30850  1.0000
  H   H2081     1.0  0.00099  0.53926  0.30890  1.0000
  H   H2082     1.0  0.02911  0.52566  0.30296  1.0000
  C   C1326     1.0  0.03315  0.61451  0.19044  1.0000
  H   H2083     1.0  0.30449  0.88885  0.29222  1.0000
  H   H2084     1.0  0.01860  0.54915  0.35705  1.0000
  H   H2085     1.0  0.31478  0.93786  0.18771  1.0000
  H   H2086     1.0  0.06314  0.67366  0.29494  1.0000
  H   H2087     1.0  0.33799  0.89315  0.28038  1.0000
  N   N130      1.0  0.20199  0.73345  0.17987  1.0000
  N   N131      1.0  0.12773  0.70779  0.26134  1.0000
  H   H2088     1.0  0.31324  0.92592  0.21558  1.0000
  C   C1327     1.0  0.30268  0.91121  0.18427  1.0000
  Fe  Fe268     1.0  0.48744  0.97839  0.22305  1.0000
  N   N132      1.0  0.32113  0.88923  0.27032  1.0000
  H   H2089     1.0  0.23402  0.87381  0.36418  1.0000
  H   H2090     1.0  0.13983  0.76670  0.36047  1.0000
  H   H2091     1.0  0.05104  0.64665  0.23050  1.0000
  C   C1328     1.0  0.28854  0.80877  0.32265  1.0000
  H   H2092     1.0  0.47039  0.93779  0.34345  1.0000
  C   C1329     1.0  0.15910  0.67560  0.20707  1.0000
  H   H2093     1.0  0.46084  0.96338  0.21145  1.0000
  H   H2094     1.0  0.33221  0.87494  0.28896  1.0000
  C   C1330     1.0  0.00575  0.50457  0.25310  1.0000
  H   H2095     1.0  0.34156  0.87414  0.37448  1.0000
  H   H2096     1.0  0.05804  0.61038  0.18827  1.0000
  H   H2097     1.0  0.24050  0.89230  0.37574  1.0000
  H   H2098     1.0  0.47763  0.96423  0.28012  1.0000
  S   S542      1.0  0.48077  0.96475  0.24713  1.0000
  H   H2099     1.0  0.14604  0.74622  0.36065  1.0000
  H   H2100     1.0  0.00480  0.58098  0.29934  1.0000
  Fe  Fe269     1.0  0.06675  0.94987  0.35293  1.0000
  C   C1331     1.0  0.25909  0.80215  0.18360  1.0000
  H   H2101     1.0  0.11863  0.67849  0.19779  1.0000
  C   C1332     1.0  0.01610  0.91211  0.36555  1.0000
  H   H2102     1.0  0.33033  0.83788  0.19688  1.0000
  H   H2103     1.0  0.44808  0.93991  0.23474  1.0000
  H   H2104     1.0  0.25809  0.54490  0.20257  1.0000
  H   H2105     1.0  0.06568  0.63533  0.32288  1.0000
  C   C1333     1.0  0.28062  0.55712  0.18071  1.0000
  C   C1334     1.0  0.15094  0.89055  0.37285  1.0000
  H   H2106     1.0  0.13058  0.75806  0.35115  1.0000
  H   H2107     1.0  0.01212  0.49684  0.26166  1.0000
  H   H2108     1.0  0.21578  0.88736  0.36181  1.0000
  H   H2109     1.0  0.34827  0.84420  0.18731  1.0000
  C   C1335     1.0  0.26320  0.82049  0.33661  1.0000
  H   H2110     1.0  0.15060  0.69252  0.25896  1.0000
  H   H2111     1.0  0.03833  0.64670  0.33546  1.0000
  H   H2112     1.0  0.29711  0.90149  0.27569  1.0000
  H   H2113     1.0  0.10023  0.48683  0.34052  1.0000
  H   H2114     1.0  0.27420  0.52941  0.19702  1.0000
  H   H2115     1.0  0.34522  0.87750  0.27018  1.0000
  C   C1336     1.0  0.28692  0.91353  0.18395  1.0000
  H   H2116     1.0  0.17267  0.88343  0.27060  1.0000
  H   H2117     1.0  0.25258  0.80454  0.32302  1.0000
  H   H2118     1.0  0.27516  0.83634  0.30760  1.0000
  C   C1337     1.0  0.13468  0.90262  0.32812  1.0000
  C   C1338     1.0  0.16508  0.86446  0.29850  1.0000
  H   H2119     1.0  0.27110  0.79633  0.31179  1.0000
  C   C1339     1.0  0.02319  0.69247  0.18889  1.0000
  C   C1340     1.0  0.31145  0.86661  0.19449  1.0000
  H   H2120     1.0  0.32791  0.91076  0.25740  1.0000
  C   C1341     1.0  0.32504  0.90045  0.25548  1.0000
  N   N133      1.0  0.05743  0.57382  0.27467  1.0000
  C   C1342     1.0  0.04272  0.58300  0.28254  1.0000
  C   C1343     1.0  0.05380  0.56335  0.26707  1.0000
  C   C1344     1.0  0.06671  0.56432  0.28632  1.0000
  C   C1345     1.0  0.06648  0.58456  0.26278  1.0000
  H   H2121     1.0  0.03552  0.57532  0.29156  1.0000
  H   H2122     1.0  0.03542  0.59039  0.27411  1.0000
  H   H2123     1.0  0.04515  0.59096  0.28841  1.0000
  H   H2124     1.0  0.06466  0.55638  0.26091  1.0000
  H   H2125     1.0  0.04707  0.55501  0.27569  1.0000
  H   H2126     1.0  0.04673  0.57008  0.25824  1.0000
  H   H2127     1.0  0.07780  0.55705  0.28089  1.0000
  H   H2128     1.0  0.05998  0.55642  0.29561  1.0000
  H   H2129     1.0  0.06992  0.57176  0.29215  1.0000
  H   H2130     1.0  0.07773  0.57808  0.25670  1.0000
  H   H2131     1.0  0.06934  0.59272  0.26806  1.0000
  H   H2132     1.0  0.05976  0.59182  0.25380  1.0000
  H   H2133     1.0  0.99362  0.50231  0.30530  1.0000
  C   C1346     1.0  0.11174  0.68564  0.18891  1.0000
  H   H2134     1.0  0.10734  0.69806  0.27195  1.0000
  H   H2135     1.0  0.11663  0.71482  0.28310  1.0000
  H   H2136     1.0  0.27487  0.56441  0.18954  1.0000
  S   S543      1.0  0.14361  0.81523  0.36751  1.0000
  H   H2137     1.0  0.05521  0.78185  0.37462  1.0000
  H   H2138     1.0  0.33682  0.87755  0.19187  1.0000
  C   C1347     1.0  0.18782  0.87511  0.29384  1.0000
  C   C1348     1.0  0.13078  0.69361  0.22035  1.0000
  C   C1349     1.0  0.41360  0.84125  0.37099  1.0000
  C   C1350     1.0  0.22156  0.87751  0.37007  1.0000
  H   H2139     1.0  0.33312  0.92443  0.18305  1.0000
  C   C1351     1.0  0.33472  0.88347  0.27775  1.0000
  H   H2140     1.0  0.18002  0.88692  0.29382  1.0000
  N   N134      1.0  0.18097  0.86497  0.28878  1.0000
  N   N135      1.0  0.00950  0.51556  0.30589  1.0000
  H   H2141     1.0  0.02899  0.66620  0.32731  1.0000
  C   C1352     1.0  0.04587  0.60568  0.21238  1.0000
  Fe  Fe270     1.0  0.18088  0.84368  0.37406  1.0000
  H   H2142     1.0  0.29099  0.54863  0.18449  1.0000
  C   C1353     1.0  0.11914  0.72188  0.25207  1.0000
  S   S544      1.0  0.18571  0.81938  0.37004  1.0000
  N   N136      1.0  0.06174  0.87214  0.32741  1.0000
  C   C1354     1.0  0.05759  0.88081  0.33996  1.0000
  C   C1355     1.0  0.04960  0.87793  0.31805  1.0000
  C   C1356     1.0  0.06272  0.85530  0.33431  1.0000
  C   C1357     1.0  0.07705  0.87451  0.31732  1.0000
  H   H2143     1.0  0.06662  0.87690  0.34711  1.0000
  H   H2144     1.0  0.04610  0.87934  0.34783  1.0000
  H   H2145     1.0  0.05679  0.89356  0.33510  1.0000
  H   H2146     1.0  0.03783  0.87648  0.32535  1.0000
  H   H2147     1.0  0.04861  0.89057  0.31254  1.0000
  H   H2148     1.0  0.05225  0.87154  0.30858  1.0000
  H   H2149     1.0  0.07176  0.85052  0.34148  1.0000
  H   H2150     1.0  0.06587  0.84841  0.32514  1.0000
  H   H2151     1.0  0.05130  0.85311  0.34191  1.0000
  H   H2152     1.0  0.07676  0.88714  0.31209  1.0000
  H   H2153     1.0  0.08060  0.86823  0.30765  1.0000
  H   H2154     1.0  0.08647  0.87031  0.32405  1.0000
  S   S545      1.0  0.39211  0.84648  0.35375  1.0000
  N   N137      1.0  0.27168  0.81423  0.32257  1.0000
  H   H2155     1.0  0.03479  0.67334  0.22482  1.0000
  S   S546      1.0  0.35813  0.85011  0.33479  1.0000
  H   H2156     1.0  0.25699  0.83181  0.30854  1.0000
  H   H2157     1.0  0.45441  0.95485  0.24990  1.0000
  H   H2158     1.0  0.33127  0.84731  0.36387  1.0000
  C   C1358     1.0  0.11176  0.63500  0.37127  1.0000
  H   H2159     1.0  0.15032  0.71256  0.24908  1.0000
  H   H2160     1.0  0.01281  0.70553  0.20694  1.0000
  C   C1359     1.0  0.05920  0.66478  0.32635  1.0000
  S   S547      1.0  0.01346  0.56382  0.27209  1.0000
  H   H2161     1.0  0.13490  0.70097  0.28323  1.0000
  H   H2162     1.0  0.21743  0.74194  0.18798  1.0000
  C   C1360     1.0  0.12851  0.71128  0.27590  1.0000
  H   H2163     1.0  0.19185  0.87179  0.26463  1.0000
  N   N138      1.0  0.41483  0.91665  0.27482  1.0000
  C   C1361     1.0  0.42380  0.92490  0.27978  1.0000
  C   C1362     1.0  0.40076  0.92776  0.27024  1.0000
  C   C1363     1.0  0.41003  0.90394  0.28787  1.0000
  C   C1364     1.0  0.42469  0.90999  0.26139  1.0000
  H   H2164     1.0  0.43455  0.91690  0.28329  1.0000
  H   H2165     1.0  0.41666  0.93004  0.28992  1.0000
  H   H2166     1.0  0.42750  0.93464  0.27027  1.0000
  H   H2167     1.0  0.39379  0.92194  0.26629  1.0000
  H   H2168     1.0  0.39291  0.93287  0.28015  1.0000
  H   H2169     1.0  0.40389  0.93754  0.26048  1.0000
  H   H2170     1.0  0.40255  0.89794  0.28483  1.0000
  H   H2171     1.0  0.40305  0.90850  0.29839  1.0000
  H   H2172     1.0  0.42033  0.89499  0.29127  1.0000
  H   H2173     1.0  0.41821  0.90375  0.25734  1.0000
  H   H2174     1.0  0.43545  0.90157  0.26437  1.0000
  H   H2175     1.0  0.42845  0.91928  0.25131  1.0000
  H   H2176     1.0  0.26718  0.79124  0.33274  1.0000
  H   H2177     1.0  0.06046  0.65592  0.33737  1.0000
  C   C1365     1.0  0.48135  0.92611  0.29888  1.0000
  H   H2178     1.0  0.05118  0.67560  0.32961  1.0000
  Fe  Fe271     1.0  0.16356  0.82763  0.36090  1.0000
  C   C1366     1.0  0.44302  0.95815  0.24720  1.0000
  C   C1367     1.0  0.00570  0.52053  0.24902  1.0000
  Fe  Fe272     1.0  0.01136  0.58513  0.25270  1.0000
  S   S548      1.0  0.06418  0.97603  0.34414  1.0000
  H   H2179     1.0  0.29521  0.80382  0.31226  1.0000
  C   C1368     1.0  0.33564  0.87489  0.18117  1.0000
  C   C1369     1.0  0.00914  0.50873  0.32259  1.0000
  H   H2180     1.0  0.13044  0.91242  0.35781  1.0000
  H   H2181     1.0  0.11334  0.77696  0.37621  1.0000
  C   C1370     1.0  0.26420  0.53847  0.19309  1.0000
  H   H2182     1.0  0.10454  0.69629  0.19311  1.0000
  C   C1371     1.0  0.00293  0.90547  0.37162  1.0000
  H   H2183     1.0  0.02673  0.77125  0.37398  1.0000
  H   H2184     1.0  0.01759  0.49728  0.32421  1.0000
  S   S549      1.0  0.45209  0.85532  0.37014  1.0000
  H   H2185     1.0  0.22213  0.90573  0.37364  1.0000
  H   H2186     1.0  0.11360  0.73953  0.36741  1.0000
  H   H2187     1.0  0.30243  0.78658  0.18465  1.0000
  C   C1372     1.0  0.33613  0.84787  0.19397  1.0000
  H   H2188     1.0  0.04199  0.65694  0.20542  1.0000
  H   H2189     1.0  0.44822  0.95573  0.20497  1.0000
  H   H2190     1.0  0.48266  0.95976  0.32758  1.0000
  Fe  Fe273     1.0  0.04639  0.92582  0.36847  1.0000
  H   H2191     1.0  0.00921  0.64593  0.24825  1.0000
  S   S550      1.0  0.07690  0.75324  0.37602  1.0000
  H   H2192     1.0  0.08530  0.49314  0.37360  1.0000
  H   H2193     1.0  0.25590  0.53230  0.19168  1.0000
  H   H2194     1.0  0.11581  0.91642  0.37475  1.0000
  H   H2195     1.0  0.10427  0.63112  0.36596  1.0000
  C   C1373     1.0  0.23979  0.82469  0.19048  1.0000
  H   H2196     1.0  0.43428  0.97168  0.18482  1.0000
  H   H2197     1.0  0.13471  0.92043  0.37166  1.0000
  C   C1374     1.0  0.32145  0.85186  0.37242  1.0000
  H   H2198     1.0  0.33691  0.84978  0.20520  1.0000
  H   H2199     1.0  0.29244  0.88424  0.37647  1.0000
  H   H2200     1.0  0.00265  0.56477  0.35157  1.0000
  H   H2201     1.0  0.15323  0.88994  0.36041  1.0000
  H   H2202     1.0  0.15793  0.89844  0.37357  1.0000
  H   H2203     1.0  0.10339  0.67892  0.18859  1.0000
  H   H2204     1.0  0.42722  0.98004  0.20955  1.0000
  H   H2205     1.0  0.48112  0.92565  0.32991  1.0000
  H   H2206     1.0  0.14057  0.69149  0.18257  1.0000
  H   H2207     1.0  0.24986  0.56828  0.18228  1.0000
  H   H2208     1.0  0.24768  0.69529  0.17782  1.0000
  H   H2209     1.0  0.00237  0.58362  0.37502  1.0000
  S   S551      1.0  0.26053  0.76371  0.17792  1.0000
  H   H2210     1.0  0.08252  0.48443  0.33740  1.0000
  N   N139      1.0  0.00332  0.55961  0.37582  1.0000
  H   H2211     1.0  0.12905  0.72810  0.37709  1.0000
  H   H2212     1.0  0.27123  0.79761  0.17752  1.0000
  C   C1375     1.0  0.99790  0.82775  0.42137  1.0000
  Fe  Fe274     1.0  0.25494  0.84500  0.46230  1.0000
  S   S552      1.0  0.26706  0.86302  0.44473  1.0000
  S   S553      1.0  0.24950  0.83939  0.48867  1.0000
  Fe  Fe275     1.0  0.24615  0.83475  0.43743  1.0000
  S   S554      1.0  0.25763  0.85155  0.41782  1.0000
  S   S555      1.0  0.23401  0.81849  0.43315  1.0000
  Fe  Fe276     1.0  0.27702  0.84446  0.43064  1.0000
  S   S556      1.0  0.30201  0.83790  0.41791  1.0000
  Fe  Fe277     1.0  0.24663  0.86860  0.43334  1.0000
  S   S557      1.0  0.23543  0.89305  0.42244  1.0000
  S   S558      1.0  0.26656  0.82597  0.44905  1.0000
  S   S559      1.0  0.23365  0.85225  0.45209  1.0000
  C   C1376     1.0  0.07730  0.71022  0.40390  1.0000
  H   H2213     1.0  0.33965  0.88005  0.39219  1.0000
  H   H2214     1.0  0.00302  0.81226  0.57050  1.0000
  C   C1377     1.0  0.31776  0.84270  0.38748  1.0000
  C   C1378     1.0  0.05934  0.60797  0.38811  1.0000
  H   H2215     1.0  0.04878  0.72103  0.55819  1.0000
  H   H2216     1.0  0.23196  0.87932  0.57719  1.0000
  C   C1379     1.0  0.09319  0.94587  0.38900  1.0000
  H   H2217     1.0  0.25274  0.90194  0.50288  1.0000
  Fe  Fe278     1.0  0.99550  0.76562  0.47634  1.0000
  Fe  Fe279     1.0  0.18996  0.94688  0.54634  1.0000
  H   H2218     1.0  0.23338  0.91407  0.54059  1.0000
  H   H2219     1.0  0.20376  0.82825  0.49713  1.0000
  H   H2220     1.0  0.19959  0.80213  0.49851  1.0000
  H   H2221     1.0  0.02941  0.78542  0.50096  1.0000
  H   H2222     1.0  0.05530  0.69129  0.54628  1.0000
  N   N140      1.0  0.35583  0.85812  0.38994  1.0000
  C   C1380     1.0  0.47171  0.84519  0.40187  1.0000
  H   H2223     1.0  0.11006  0.73561  0.38816  1.0000
  H   H2224     1.0  0.27028  0.89060  0.50909  1.0000
  C   C1381     1.0  0.99449  0.57532  0.37823  1.0000
  H   H2225     1.0  0.00054  0.87905  0.40461  1.0000
  Fe  Fe280     1.0  0.07547  0.67033  0.42256  1.0000
  H   H2226     1.0  0.04167  0.86580  0.38545  1.0000
  H   H2227     1.0  0.20538  0.82406  0.39311  1.0000
  C   C1382     1.0  0.01192  0.71428  0.45491  1.0000
  Fe  Fe281     1.0  0.08842  0.68147  0.54275  1.0000
  S   S560      1.0  0.08121  0.66044  0.55985  1.0000
  S   S561      1.0  0.08061  0.69154  0.51990  1.0000
  H   H2228     1.0  0.01677  0.85174  0.40980  1.0000
  H   H2229     1.0  0.14143  0.74093  0.38970  1.0000
  S   S562      1.0  0.99316  0.77627  0.56599  1.0000
  H   H2230     1.0  0.01750  0.83312  0.56517  1.0000
  S   S563      1.0  0.08086  0.69670  0.56019  1.0000
  S   S564      1.0  0.11320  0.67455  0.54573  1.0000
  Fe  Fe282     1.0  0.04393  0.67108  0.44476  1.0000
  S   S565      1.0  0.06533  0.67861  0.44496  1.0000
  S   S566      1.0  0.01972  0.68340  0.45468  1.0000
  Fe  Fe283     1.0  0.06220  0.64136  0.43383  1.0000
  S   S567      1.0  0.08511  0.64574  0.43413  1.0000
  S   S568      1.0  0.06154  0.61950  0.42711  1.0000
  Fe  Fe284     1.0  0.07313  0.65356  0.45655  1.0000
  S   S569      1.0  0.08284  0.64533  0.47844  1.0000
  S   S570      1.0  0.05113  0.64648  0.45756  1.0000
  Fe  Fe285     1.0  0.16708  0.96442  0.41124  1.0000
  C   C1383     1.0  0.00924  0.73502  0.43199  1.0000
  H   H2231     1.0  0.27332  0.88881  0.53532  1.0000
  Fe  Fe286     1.0  0.15458  0.93653  0.43118  1.0000
  S   S571      1.0  0.13095  0.95071  0.44002  1.0000
  S   S572      1.0  0.16169  0.91052  0.43741  1.0000
  Fe  Fe287     1.0  0.13310  0.96405  0.41525  1.0000
  H   H2232     1.0  0.02218  0.54172  0.38388  1.0000
  Fe  Fe288     1.0  0.14441  0.96697  0.44202  1.0000
  H   H2233     1.0  0.36500  0.84274  0.40936  1.0000
  S   S573      1.0  0.15552  0.94832  0.40617  1.0000
  S   S574      1.0  0.16791  0.95143  0.43571  1.0000
  S   S575      1.0  0.18867  0.97099  0.39489  1.0000
  S   S576      1.0  0.18185  0.85307  0.39408  1.0000
  C   C1384     1.0  0.07423  0.72649  0.39834  1.0000
  H   H2234     1.0  0.14067  0.97649  0.53915  1.0000
  H   H2235     1.0  0.04212  0.73442  0.54160  1.0000
  H   H2236     1.0  0.25763  0.89772  0.54906  1.0000
  S   S577      1.0  0.08794  0.91622  0.39899  1.0000
  H   H2237     1.0  0.23814  0.81835  0.46566  1.0000
  H   H2238     1.0  0.02365  0.56118  0.38235  1.0000
  H   H2239     1.0  0.12414  0.63436  0.39501  1.0000
  C   C1385     1.0  0.10691  0.95648  0.40147  1.0000
  S   S578      1.0  0.12274  0.63165  0.56542  1.0000
  C   C1386     1.0  0.11991  0.97097  0.55559  1.0000
  C   C1387     1.0  0.09519  0.93173  0.39994  1.0000
  C   C1388     1.0  0.10332  0.92988  0.41148  1.0000
  C   C1389     1.0  0.10925  0.94222  0.41220  1.0000
  C   C1390     1.0  0.02306  0.77639  0.50748  1.0000
  H   H2240     1.0  0.23876  0.88530  0.54472  1.0000
  H   H2241     1.0  0.10492  0.91896  0.41996  1.0000
  H   H2242     1.0  0.11536  0.94075  0.42123  1.0000
  H   H2243     1.0  0.23507  0.92570  0.57599  1.0000
  Fe  Fe289     1.0  0.29972  0.85058  0.57664  1.0000
  S   S579      1.0  0.17201  0.96054  0.53233  1.0000
  H   H2244     1.0  0.01299  0.70926  0.55769  1.0000
  C   C1391     1.0  0.00668  0.75303  0.52431  1.0000
  C   C1392     1.0  0.15095  0.93674  0.56949  1.0000
  H   H2245     1.0  0.00450  0.88144  0.42184  1.0000
  H   H2246     1.0  0.26846  0.90959  0.53299  1.0000
  H   H2247     1.0  0.22671  0.87122  0.40684  1.0000
  H   H2248     1.0  0.21084  0.93653  0.56589  1.0000
  C   C1393     1.0  0.01517  0.55350  0.38551  1.0000
  C   C1394     1.0  0.01318  0.76004  0.53202  1.0000
  H   H2249     1.0  0.09135  0.62707  0.40872  1.0000
  H   H2250     1.0  0.13482  0.76151  0.38908  1.0000
  C   C1395     1.0  0.03180  0.76669  0.38450  1.0000
  H   H2251     1.0  0.26618  0.91146  0.50590  1.0000
  H   H2252     1.0  0.14174  0.97036  0.49375  1.0000
  S   S580      1.0  0.14480  0.98146  0.41786  1.0000
  S   S581      1.0  0.13704  0.97812  0.46262  1.0000
  C   C1396     1.0  0.22905  0.91791  0.57415  1.0000
  C   C1397     1.0  0.05639  0.63529  0.39793  1.0000
  H   H2253     1.0  0.15113  0.66586  0.55722  1.0000
  H   H2254     1.0  0.05514  0.64587  0.40159  1.0000
  C   C1398     1.0  0.00815  0.75784  0.50820  1.0000
  N   N141      1.0  0.21740  0.81289  0.48176  1.0000
  Fe  Fe290     1.0  0.19225  0.96860  0.51452  1.0000
  H   H2255     1.0  0.04120  0.78207  0.40958  1.0000
  H   H2256     1.0  0.25469  0.87539  0.53197  1.0000
  H   H2257     1.0  0.04653  0.70935  0.52328  1.0000
  S   S582      1.0  0.28817  0.86158  0.52326  1.0000
  H   H2258     1.0  0.04513  0.69402  0.56545  1.0000
  C   C1399     1.0  0.08264  0.67856  0.50798  1.0000
  C   C1400     1.0  0.08022  0.68456  0.49276  1.0000
  C   C1401     1.0  0.08101  0.67448  0.48328  1.0000
  C   C1402     1.0  0.08381  0.65832  0.48912  1.0000
  C   C1403     1.0  0.08655  0.65232  0.50422  1.0000
  C   C1404     1.0  0.08600  0.66238  0.51362  1.0000
  H   H2259     1.0  0.07782  0.69706  0.48825  1.0000
  H   H2260     1.0  0.07928  0.67923  0.47153  1.0000
  H   H2261     1.0  0.08890  0.63982  0.50877  1.0000
  H   H2262     1.0  0.08802  0.65760  0.52528  1.0000
  H   H2263     1.0  0.32469  0.83103  0.39055  1.0000
  H   H2264     1.0  0.19739  0.89705  0.38495  1.0000
  H   H2265     1.0  0.11421  0.98168  0.44277  1.0000
  C   C1405     1.0  0.20768  0.81987  0.46998  1.0000
  H   H2266     1.0  0.22511  0.98360  0.50927  1.0000
  H   H2267     1.0  0.24177  0.80320  0.48225  1.0000
  C   C1406     1.0  0.20360  0.88657  0.39225  1.0000
  H   H2268     1.0  0.33081  0.86475  0.39255  1.0000
  H   H2269     1.0  0.01103  0.71060  0.46736  1.0000
  C   C1407     1.0  0.00035  0.83014  0.43484  1.0000
  H   H2270     1.0  0.47765  0.84452  0.38960  1.0000
  C   C1408     1.0  0.00863  0.73019  0.44799  1.0000
  H   H2271     1.0  0.20736  0.89012  0.56758  1.0000
  C   C1409     1.0  0.01650  0.70319  0.44572  1.0000
  C   C1410     1.0  0.01784  0.70799  0.42959  1.0000
  C   C1411     1.0  0.01400  0.72394  0.42274  1.0000
  H   H2272     1.0  0.14073  0.94340  0.56428  1.0000
  H   H2273     1.0  0.46890  0.87304  0.38230  1.0000
  H   H2274     1.0  0.02144  0.69938  0.42248  1.0000
  C   C1412     1.0  0.05988  0.98137  0.39829  1.0000
  H   H2275     1.0  0.13605  0.88429  0.40266  1.0000
  H   H2276     1.0  0.19509  0.82349  0.47545  1.0000
  H   H2277     1.0  0.05883  0.71862  0.53879  1.0000
  H   H2278     1.0  0.21143  0.83037  0.46182  1.0000
  C   C1413     1.0  0.22154  0.97899  0.41167  1.0000
  H   H2279     1.0  0.11926  0.96214  0.55013  1.0000
  C   C1414     1.0  0.23967  0.91435  0.52826  1.0000
  H   H2280     1.0  0.99435  0.84569  0.45050  1.0000
  H   H2281     1.0  0.47786  0.83504  0.40957  1.0000
  Fe  Fe291     1.0  0.17120  0.98028  0.54283  1.0000
  S   S583      1.0  0.01413  0.76986  0.45467  1.0000
  C   C1415     1.0  0.09191  0.70686  0.37812  1.0000
  C   C1416     1.0  0.21416  0.97380  0.40315  1.0000
  C   C1417     1.0  0.21937  0.82798  0.42246  1.0000
  C   C1418     1.0  0.21783  0.82145  0.41094  1.0000
  C   C1419     1.0  0.20630  0.82901  0.40218  1.0000
  C   C1420     1.0  0.19596  0.84287  0.40527  1.0000
  C   C1421     1.0  0.19718  0.84911  0.41716  1.0000
  C   C1422     1.0  0.20903  0.84185  0.42553  1.0000
  H   H2282     1.0  0.02694  0.70609  0.53092  1.0000
  C   C1423     1.0  0.13098  0.75079  0.38956  1.0000
  H   H2283     1.0  0.18908  0.85972  0.41977  1.0000
  H   H2284     1.0  0.21005  0.84694  0.43445  1.0000
  C   C1424     1.0  0.21495  0.89719  0.42542  1.0000
  C   C1425     1.0  0.20711  0.91203  0.41882  1.0000
  C   C1426     1.0  0.19071  0.91603  0.42213  1.0000
  C   C1427     1.0  0.18210  0.90512  0.43189  1.0000
  C   C1428     1.0  0.18992  0.88999  0.43767  1.0000
  C   C1429     1.0  0.20632  0.88605  0.43442  1.0000
  H   H2285     1.0  0.21371  0.92062  0.41150  1.0000
  H   H2286     1.0  0.18475  0.92763  0.41726  1.0000
  H   H2287     1.0  0.18328  0.88145  0.44499  1.0000
  H   H2288     1.0  0.21216  0.87444  0.43902  1.0000
  C   C1430     1.0  0.30520  0.84865  0.39866  1.0000
  C   C1431     1.0  0.29587  0.86350  0.39458  1.0000
  H   H2289     1.0  0.01462  0.72765  0.41032  1.0000
  H   H2290     1.0  0.34883  0.83871  0.38699  1.0000
  H   H2291     1.0  0.22724  0.89883  0.39230  1.0000
  H   H2292     1.0  0.35249  0.86097  0.41326  1.0000
  H   H2293     1.0  0.28616  0.86816  0.40318  1.0000
  C   C1432     1.0  0.26338  0.89907  0.53648  1.0000
  Fe  Fe292     1.0  0.99657  0.76810  0.44266  1.0000
  H   H2294     1.0  0.00545  0.73866  0.45514  1.0000
  C   C1433     1.0  0.26048  0.84540  0.49818  1.0000
  C   C1434     1.0  0.25766  0.84164  0.51452  1.0000
  C   C1435     1.0  0.26624  0.84631  0.52238  1.0000
  C   C1436     1.0  0.27763  0.85486  0.51390  1.0000
  C   C1437     1.0  0.28037  0.85870  0.49758  1.0000
  C   C1438     1.0  0.27186  0.85396  0.48973  1.0000
  H   H2295     1.0  0.24891  0.83498  0.52113  1.0000
  H   H2296     1.0  0.28920  0.86527  0.49096  1.0000
  H   H2297     1.0  0.27418  0.85685  0.47714  1.0000
  S   S584      1.0  0.19078  0.92174  0.55818  1.0000
  H   H2298     1.0  0.45091  0.87233  0.39626  1.0000
  H   H2299     1.0  0.21920  0.79347  0.50129  1.0000
  H   H2300     1.0  0.16808  0.98309  0.44709  1.0000
  S   S585      1.0  0.02953  0.78027  0.53358  1.0000
  S   S586      1.0  0.01236  0.81542  0.44572  1.0000
  C   C1439     1.0  0.16569  0.97114  0.49164  1.0000
  Fe  Fe293     1.0  0.10541  0.65461  0.56439  1.0000
  C   C1440     1.0  0.19791  0.97843  0.40474  1.0000
  H   H2301     1.0  0.13763  0.90435  0.39749  1.0000
  N   N142      1.0  0.10317  0.63867  0.38654  1.0000
  C   C1441     1.0  0.16740  0.97972  0.45953  1.0000
  C   C1442     1.0  0.34137  0.86978  0.38716  1.0000
  C   C1443     1.0  0.12517  0.88554  0.37756  1.0000
  H   H2302     1.0  0.19103  0.98147  0.45751  1.0000
  C   C1444     1.0  0.48791  0.86183  0.40253  1.0000
  H   H2303     1.0  0.17237  0.63871  0.57518  1.0000
  N   N143      1.0  0.21095  0.93811  0.45448  1.0000
  C   C1445     1.0  0.19563  0.93886  0.46563  1.0000
  C   C1446     1.0  0.21090  0.93114  0.44176  1.0000
  C   C1447     1.0  0.22348  0.92840  0.46259  1.0000
  C   C1448     1.0  0.21379  0.95402  0.44790  1.0000
  H   H2304     1.0  0.19540  0.94373  0.47558  1.0000
  H   H2305     1.0  0.19283  0.92712  0.47045  1.0000
  H   H2306     1.0  0.18596  0.94649  0.45998  1.0000
  H   H2307     1.0  0.22241  0.92997  0.43330  1.0000
  H   H2308     1.0  0.20836  0.91926  0.44633  1.0000
  H   H2309     1.0  0.20190  0.93840  0.43506  1.0000
  H   H2310     1.0  0.23519  0.92759  0.45446  1.0000
  H   H2311     1.0  0.22170  0.91628  0.46760  1.0000
  H   H2312     1.0  0.22383  0.93338  0.47226  1.0000
  H   H2313     1.0  0.20451  0.96160  0.44169  1.0000
  H   H2314     1.0  0.22520  0.95398  0.43935  1.0000
  H   H2315     1.0  0.21392  0.95974  0.45713  1.0000
  S   S587      1.0  0.19650  0.97162  0.48856  1.0000
  H   H2316     1.0  0.00885  0.89505  0.40374  1.0000
  H   H2317     1.0  0.34416  0.84592  0.41184  1.0000
  H   H2318     1.0  0.03605  0.68743  0.55420  1.0000
  C   C1449     1.0  0.02148  0.77164  0.52365  1.0000
  H   H2319     1.0  0.26408  0.84324  0.53497  1.0000
  C   C1450     1.0  0.21342  0.89789  0.56939  1.0000
  H   H2320     1.0  0.46960  0.85086  0.42975  1.0000
  Fe  Fe294     1.0  0.26767  0.87245  0.57660  1.0000
  C   C1451     1.0  0.05734  0.62240  0.37759  1.0000
  H   H2321     1.0  0.01195  0.79451  0.38473  1.0000
  H   H2322     1.0  0.22099  0.96592  0.39558  1.0000
  C   C1452     1.0  0.35826  0.84532  0.38200  1.0000
  H   H2323     1.0  0.02100  0.85510  0.42645  1.0000
  C   C1453     1.0  0.23392  0.80818  0.47384  1.0000
  C   C1454     1.0  0.10908  0.97376  0.56926  1.0000
  H   H2324     1.0  0.24109  0.86553  0.39037  1.0000
  C   C1455     1.0  0.15252  0.97270  0.48581  1.0000
  H   H2325     1.0  0.00957  0.78281  0.40409  1.0000
  H   H2326     1.0  0.06784  0.97810  0.40652  1.0000
  H   H2327     1.0  0.20214  0.88933  0.40372  1.0000
  C   C1456     1.0  0.14640  0.65589  0.56545  1.0000
  C   C1457     1.0  0.01757  0.78950  0.39489  1.0000
  C   C1458     1.0  0.24543  0.88626  0.53245  1.0000
  H   H2328     1.0  0.16496  0.96751  0.50397  1.0000
  H   H2329     1.0  0.24438  0.92515  0.52401  1.0000
  C   C1459     1.0  0.05888  0.62087  0.40835  1.0000
  H   H2330     1.0  0.23732  0.88648  0.52525  1.0000
  C   C1460     1.0  0.21603  0.82448  0.49084  1.0000
  C   C1461     1.0  0.02489  0.85633  0.41359  1.0000
  H   H2331     1.0  0.04808  0.87146  0.40809  1.0000
  H   H2332     1.0  0.01169  0.75649  0.54446  1.0000
  H   H2333     1.0  0.09044  0.62048  0.39239  1.0000
  S   S588      1.0  0.99934  0.74939  0.49891  1.0000
  N   N144      1.0  0.03406  0.67163  0.49781  1.0000
  C   C1462     1.0  0.02861  0.65925  0.49466  1.0000
  C   C1463     1.0  0.04390  0.67893  0.48338  1.0000
  C   C1464     1.0  0.04341  0.66469  0.50990  1.0000
  C   C1465     1.0  0.02043  0.68364  0.50314  1.0000
  H   H2334     1.0  0.03867  0.64992  0.49078  1.0000
  H   H2335     1.0  0.02191  0.66397  0.48525  1.0000
  H   H2336     1.0  0.02093  0.65361  0.50521  1.0000
  H   H2337     1.0  0.04883  0.68787  0.48538  1.0000
  H   H2338     1.0  0.05381  0.67003  0.47862  1.0000
  H   H2339     1.0  0.03715  0.68489  0.47417  1.0000
  H   H2340     1.0  0.03631  0.65941  0.52112  1.0000
  H   H2341     1.0  0.04841  0.67351  0.51206  1.0000
  H   H2342     1.0  0.05350  0.65525  0.50627  1.0000
  H   H2343     1.0  0.01318  0.68894  0.49420  1.0000
  H   H2344     1.0  0.02420  0.69330  0.50530  1.0000
  H   H2345     1.0  0.01275  0.67862  0.51409  1.0000
  C   C1466     1.0  0.46358  0.86054  0.42151  1.0000
  H   H2346     1.0  0.01550  0.72890  0.55249  1.0000
  C   C1467     1.0  0.46324  0.87319  0.39468  1.0000
  C   C1468     1.0  0.00756  0.83232  0.57492  1.0000
  H   H2347     1.0  0.10733  0.64654  0.40474  1.0000
  H   H2348     1.0  0.08202  0.65388  0.39585  1.0000
  C   C1469     1.0  0.09911  0.95818  0.38974  1.0000
  H   H2349     1.0  0.01822  0.79938  0.39936  1.0000
  H   H2350     1.0  0.04803  0.97986  0.40515  1.0000
  H   H2351     1.0  0.16057  0.94306  0.56401  1.0000
  C   C1470     1.0  0.13217  0.97890  0.54952  1.0000
  H   H2352     1.0  0.45126  0.85933  0.42385  1.0000
  C   C1471     1.0  0.08634  0.70042  0.39381  1.0000
  S   S589      1.0  0.11332  0.97237  0.40278  1.0000
  S   S590      1.0  0.02434  0.74819  0.57141  1.0000
  C   C1472     1.0  0.21204  0.79901  0.49232  1.0000
  H   H2353     1.0  0.43024  0.83627  0.38530  1.0000
  C   C1473     1.0  0.22827  0.86863  0.39524  1.0000
  C   C1474     1.0  0.13159  0.89609  0.39583  1.0000
  C   C1475     1.0  0.11901  0.73835  0.37728  1.0000
  S   S591      1.0  0.11919  0.70295  0.56767  1.0000
  Fe  Fe295     1.0  0.10489  0.68761  0.56503  1.0000
  H   H2354     1.0  0.08828  0.75020  0.56587  1.0000
  H   H2355     1.0  0.36806  0.87535  0.38946  1.0000
  H   H2356     1.0  0.22356  0.81975  0.49957  1.0000
  C   C1476     1.0  0.20748  0.91405  0.56607  1.0000
  H   H2357     1.0  0.15492  0.92521  0.56614  1.0000
  C   C1477     1.0  0.21531  0.92404  0.56846  1.0000
  H   H2358     1.0  0.03022  0.72556  0.52554  1.0000
  H   H2359     1.0  0.06753  0.73406  0.40624  1.0000
  H   H2360     1.0  0.10085  0.76365  0.38718  1.0000
  S   S592      1.0  0.29099  0.87231  0.55994  1.0000
  S   S593      1.0  0.02259  0.91974  0.37774  1.0000
  H   H2361     1.0  0.06209  0.59601  0.41145  1.0000
  H   H2362     1.0  0.07297  0.70530  0.41603  1.0000
  H   H2363     1.0  0.21298  0.79006  0.48578  1.0000
  S   S594      1.0  0.29458  0.83450  0.56496  1.0000
  S   S595      1.0  0.21040  0.95323  0.52761  1.0000
  H   H2364     1.0  0.02415  0.75932  0.39334  1.0000
  Fe  Fe296     1.0  0.20621  0.97323  0.53892  1.0000
  H   H2365     1.0  0.17203  0.65908  0.57215  1.0000
  C   C1478     1.0  0.06018  0.60722  0.40344  1.0000
  C   C1479     1.0  0.26070  0.90116  0.51045  1.0000
  Fe  Fe297     1.0  0.28383  0.85642  0.54959  1.0000
  H   H2366     1.0  0.20873  0.81155  0.46266  1.0000
  H   H2367     1.0  0.22573  0.81065  0.40862  1.0000
  C   C1480     1.0  0.01623  0.76962  0.49977  1.0000
  H   H2368     1.0  0.45959  0.84372  0.40343  1.0000
  H   H2369     1.0  0.21994  0.83513  0.48320  1.0000
  S   S596      1.0  0.25976  0.85836  0.56501  1.0000
  S   S597      1.0  0.09136  0.68014  0.40056  1.0000
  H   H2370     1.0  0.36958  0.83682  0.38302  1.0000
  H   H2371     1.0  0.23551  0.79945  0.46681  1.0000
  Fe  Fe298     1.0  0.00123  0.79488  0.45261  1.0000
  N   N145      1.0  0.02497  0.87273  0.40546  1.0000
  C   C1481     1.0  0.36937  0.86565  0.38376  1.0000
  H   H2372     1.0  0.23082  0.91542  0.52154  1.0000
  S   S598      1.0  0.18712  0.96577  0.55879  1.0000
  N   N146      1.0  0.03323  0.77950  0.39059  1.0000
  N   N147      1.0  0.25229  0.90022  0.52690  1.0000
  H   H2373     1.0  0.03615  0.89086  0.40473  1.0000
  S   S599      1.0  0.05312  0.66557  0.42107  1.0000
  C   C1482     1.0  0.17971  0.97400  0.48148  1.0000
  N   N148      1.0  0.03668  0.71180  0.54693  1.0000
  C   C1483     1.0  0.04358  0.69541  0.55347  1.0000
  C   C1484     1.0  0.04705  0.72192  0.54637  1.0000
  C   C1485     1.0  0.02116  0.71661  0.55695  1.0000
  C   C1486     1.0  0.03498  0.71323  0.53097  1.0000
  H   H2374     1.0  0.13364  0.65865  0.56600  1.0000
  C   C1487     1.0  0.18042  0.97866  0.46542  1.0000
  H   H2375     1.0  0.01736  0.77343  0.48730  1.0000
  H   H2376     1.0  0.00024  0.74410  0.53089  1.0000
  H   H2377     1.0  0.46328  0.87172  0.42435  1.0000
  H   H2378     1.0  0.11893  0.89965  0.40114  1.0000
  S   S600      1.0  0.00317  0.75481  0.42380  1.0000
  H   H2379     1.0  0.00968  0.55261  0.39812  1.0000
  H   H2380     1.0  0.11729  0.65438  0.38567  1.0000
  C   C1488     1.0  0.11350  0.64364  0.39324  1.0000
  C   C1489     1.0  0.35433  0.85166  0.40686  1.0000
  C   C1490     1.0  0.04339  0.78902  0.37847  1.0000
  Fe  Fe299     1.0  0.07623  0.92327  0.37882  1.0000
  C   C1491     1.0  0.08927  0.65141  0.38445  1.0000
  H   H2381     1.0  0.15152  0.64535  0.56033  1.0000
  C   C1492     1.0  0.03589  0.87845  0.41069  1.0000
  C   C1493     1.0  0.07988  0.73291  0.38263  1.0000
  C   C1494     1.0  0.03008  0.87371  0.38848  1.0000
  H   H2382     1.0  0.10829  0.61483  0.39927  1.0000
  N   N149      1.0  0.47163  0.86018  0.40516  1.0000
  H   H2383     1.0  0.09357  0.98264  0.44768  1.0000
  H   H2384     1.0  0.03239  0.87790  0.42345  1.0000
  C   C1495     1.0  0.22786  0.89532  0.38141  1.0000
  H   H2385     1.0  0.12246  0.74835  0.40084  1.0000
  C   C1496     1.0  0.15344  0.97672  0.46975  1.0000
  H   H2386     1.0  0.05203  0.76528  0.40156  1.0000
  H   H2387     1.0  0.10303  0.76726  0.56939  1.0000
  H   H2388     1.0  0.22367  0.85804  0.39717  1.0000
  H   H2389     1.0  0.06062  0.59738  0.38434  1.0000
  C   C1497     1.0  0.04014  0.77279  0.40448  1.0000
  C   C1498     1.0  0.22742  0.89179  0.57468  1.0000
  H   H2390     1.0  0.03283  0.76536  0.41374  1.0000
  H   H2391     1.0  0.03672  0.84859  0.41127  1.0000
  H   H2392     1.0  0.00388  0.81706  0.41745  1.0000
  C   C1499     1.0  0.09814  0.62464  0.39716  1.0000
  C   C1500     1.0  0.00902  0.88248  0.40906  1.0000
  Fe  Fe300     1.0  0.01918  0.77316  0.55892  1.0000
  H   H2393     1.0  0.46314  0.88474  0.39655  1.0000
  H   H2394     1.0  0.38052  0.85713  0.38548  1.0000
  H   H2395     1.0  0.19741  0.87704  0.39435  1.0000
  H   H2396     1.0  0.48829  0.87314  0.40465  1.0000
  H   H2397     1.0  0.23408  0.97514  0.41065  1.0000
  H   H2398     1.0  0.16168  0.97497  0.38255  1.0000
  H   H2399     1.0  0.99870  0.53711  0.37849  1.0000
  H   H2400     1.0  0.08166  0.64846  0.37860  1.0000
  H   H2401     1.0  0.04341  0.75885  0.38123  1.0000
  C   C1501     1.0  0.05574  0.63604  0.38259  1.0000
  H   H2402     1.0  0.03130  0.88573  0.38210  1.0000
  C   C1502     1.0  0.99258  0.84395  0.43996  1.0000
  H   H2403     1.0  0.04496  0.79860  0.38277  1.0000
  H   H2404     1.0  0.02206  0.71569  0.56908  1.0000
  H   H2405     1.0  0.06425  0.97273  0.39065  1.0000
  H   H2406     1.0  0.07435  0.77665  0.57119  1.0000
  N   N150      1.0  0.22032  0.88202  0.38474  1.0000
  S   S601      1.0  0.22627  0.98151  0.54086  1.0000
  C   C1503     1.0  0.23524  0.90181  0.57706  1.0000
  H   H2407     1.0  0.14465  0.60387  0.57418  1.0000
  H   H2408     1.0  0.99603  0.90630  0.38317  1.0000
  H   H2409     1.0  0.20430  0.98089  0.57063  1.0000
  H   H2410     1.0  0.12895  0.87337  0.38402  1.0000
  H   H2411     1.0  0.15558  0.87868  0.37945  1.0000
  H   H2412     1.0  0.11236  0.88946  0.38218  1.0000
  S   S602      1.0  0.05440  0.94196  0.37769  1.0000
  H   H2413     1.0  0.09261  0.66251  0.37732  1.0000
  C   C1504     1.0  0.29946  0.87260  0.37949  1.0000
  H   H2414     1.0  0.02149  0.87062  0.38388  1.0000
  N   N151      1.0  0.13407  0.89606  0.37917  1.0000
  H   H2415     1.0  0.08707  0.94737  0.37996  1.0000
  H   H2416     1.0  0.09791  0.96891  0.38105  1.0000
  H   H2417     1.0  0.40713  0.83280  0.37884  1.0000
  H   H2418     1.0  0.23547  0.98277  0.48969  1.0000
  C   C1505     1.0  0.99240  0.54903  0.38027  1.0000
  H   H2419     1.0  0.00658  0.81760  0.61842  1.0000
  C   C1506     1.0  0.03720  0.64164  0.72511  1.0000
  Fe  Fe301     1.0  0.01795  0.85971  0.63350  1.0000
  S   S603      1.0  0.02736  0.87295  0.60977  1.0000
  S   S604      1.0  0.03454  0.84277  0.64779  1.0000
  Fe  Fe302     1.0  0.00882  0.89328  0.61679  1.0000
  S   S605      1.0  0.01613  0.91644  0.60958  1.0000
  Fe  Fe303     1.0  0.00871  0.86682  0.60254  1.0000
  C   C1507     1.0  0.12211  0.61757  0.58300  1.0000
  S   S606      1.0  0.02121  0.78245  0.57833  1.0000
  H   H2420     1.0  0.20755  0.85299  0.59490  1.0000
  Fe  Fe304     1.0  0.99844  0.75185  0.58008  1.0000
  H   H2421     1.0  0.21309  0.89159  0.60664  1.0000
  H   H2422     1.0  0.21012  0.88847  0.64877  1.0000
  Fe  Fe305     1.0  0.11019  0.68055  0.73746  1.0000
  S   S607      1.0  0.12605  0.65706  0.73636  1.0000
  S   S608      1.0  0.12281  0.70021  0.72937  1.0000
  Fe  Fe306     1.0  0.08100  0.66715  0.75053  1.0000
  S   S609      1.0  0.09455  0.64267  0.75019  1.0000
  H   H2423     1.0  0.02735  0.51505  0.73698  1.0000
  Fe  Fe307     1.0  0.11130  0.64918  0.75994  1.0000
  C   C1508     1.0  0.04953  0.69630  0.59935  1.0000
  Fe  Fe308     1.0  0.10768  0.65313  0.72670  1.0000
  S   S610      1.0  0.11287  0.64642  0.70360  1.0000
  S   S611      1.0  0.09686  0.67306  0.76177  1.0000
  S   S612      1.0  0.09272  0.67724  0.72628  1.0000
  Fe  Fe309     1.0  0.09631  0.77368  0.62739  1.0000
  S   S613      1.0  0.11866  0.75917  0.61623  1.0000
  S   S614      1.0  0.08011  0.79089  0.61290  1.0000
  Fe  Fe310     1.0  0.10160  0.75910  0.66004  1.0000
  S   S615      1.0  0.12441  0.74331  0.65196  1.0000
  S   S616      1.0  0.09062  0.75933  0.68514  1.0000
  Fe  Fe311     1.0  0.12899  0.76448  0.63332  1.0000
  S   S617      1.0  0.15078  0.77385  0.62686  1.0000
  H   H2424     1.0  0.48413  0.88790  0.60109  1.0000
  S   S618      1.0  0.10714  0.78063  0.64282  1.0000
  S   S619      1.0  0.08866  0.75356  0.64550  1.0000
  Fe  Fe312     1.0  0.16733  0.81733  0.67808  1.0000
  S   S620      1.0  0.15776  0.83954  0.66255  1.0000
  S   S621      1.0  0.15775  0.79563  0.68383  1.0000
  Fe  Fe313     1.0  0.19180  0.83110  0.68356  1.0000
  S   S622      1.0  0.18421  0.85457  0.66854  1.0000
  S   S623      1.0  0.21326  0.82425  0.69380  1.0000
  Fe  Fe314     1.0  0.15977  0.85126  0.68012  1.0000
  S   S624      1.0  0.13916  0.87004  0.68733  1.0000
  Fe  Fe315     1.0  0.18283  0.84088  0.65231  1.0000
  S   S625      1.0  0.19020  0.84888  0.62641  1.0000
  S   S626      1.0  0.16743  0.82884  0.69676  1.0000
  S   S627      1.0  0.19237  0.81751  0.66627  1.0000
  C   C1509     1.0  0.02675  0.96828  0.64257  1.0000
  Fe  Fe316     1.0  0.09231  0.95894  0.60467  1.0000
  H   H2425     1.0  0.03856  0.78953  0.59880  1.0000
  H   H2426     1.0  0.04204  0.64387  0.63848  1.0000
  Fe  Fe317     1.0  0.07380  0.94530  0.63609  1.0000
  S   S628      1.0  0.08713  0.95257  0.64928  1.0000
  S   S629      1.0  0.05446  0.93243  0.64907  1.0000
  H   H2427     1.0  0.12067  0.68955  0.76406  1.0000
  H   H2428     1.0  0.01782  0.49044  0.71047  1.0000
  Fe  Fe318     1.0  0.10835  0.94424  0.63162  1.0000
  S   S630      1.0  0.13271  0.93121  0.63406  1.0000
  H   H2429     1.0  0.43195  0.93223  0.67094  1.0000
  S   S631      1.0  0.09528  0.93500  0.62004  1.0000
  H   H2430     1.0  0.00478  0.78335  0.63196  1.0000
  H   H2431     1.0  0.06810  0.67186  0.61932  1.0000
  H   H2432     1.0  0.00351  0.79376  0.61246  1.0000
  H   H2433     1.0  0.48773  0.94165  0.70579  1.0000
  H   H2434     1.0  0.20254  0.82180  0.72888  1.0000
  C   C1510     1.0  0.06863  0.53439  0.73405  1.0000
  H   H2435     1.0  0.09590  0.53652  0.71354  1.0000
  C   C1511     1.0  0.38238  0.97800  0.75394  1.0000
  C   C1512     1.0  0.31490  0.89595  0.76224  1.0000
  C   C1513     1.0  0.03576  0.57071  0.66477  1.0000
  C   C1514     1.0  0.23426  0.88504  0.62401  1.0000
  H   H2436     1.0  0.07112  0.74682  0.60846  1.0000
  H   H2437     1.0  0.46911  0.90510  0.59702  1.0000
  H   H2438     1.0  0.47576  0.90015  0.61485  1.0000
  H   H2439     1.0  0.19590  0.81344  0.63360  1.0000
  C   C1515     1.0  0.10954  0.61888  0.59589  1.0000
  H   H2440     1.0  0.07401  0.69486  0.59730  1.0000
  H   H2441     1.0  0.30887  0.87763  0.71934  1.0000
  H   H2442     1.0  0.08448  0.48880  0.58559  1.0000
  H   H2443     1.0  0.40221  0.89586  0.69320  1.0000
  H   H2444     1.0  0.08128  0.53985  0.64453  1.0000
  C   C1516     1.0  0.21518  0.87950  0.61383  1.0000
  N   N152      1.0  0.08523  0.75741  0.58721  1.0000
  S   S632      1.0  0.25271  0.89454  0.58371  1.0000
  H   H2445     1.0  0.02004  0.54827  0.67008  1.0000
  H   H2446     1.0  0.03840  0.95613  0.66835  1.0000
  H   H2447     1.0  0.21330  0.83478  0.74285  1.0000
  H   H2448     1.0  0.08291  0.66184  0.63017  1.0000
  Fe  Fe319     1.0  0.01800  0.59933  0.75011  1.0000
  C   C1517     1.0  0.46667  0.87294  0.62641  1.0000
  H   H2449     1.0  0.16414  0.91345  0.59030  1.0000
  C   C1518     1.0  0.00236  0.54061  0.75835  1.0000
  S   S633      1.0  0.99301  0.61772  0.70329  1.0000
  H   H2450     1.0  0.46819  0.87182  0.59706  1.0000
  C   C1519     1.0  0.47296  0.89520  0.60640  1.0000
  H   H2451     1.0  0.13031  0.92556  0.60618  1.0000
  N   N153      1.0  0.20967  0.81128  0.75063  1.0000
  S   S634      1.0  0.02611  0.59242  0.72700  1.0000
  Fe  Fe320     1.0  0.48867  0.96025  0.72811  1.0000
  Fe  Fe321     1.0  0.40600  0.91194  0.73171  1.0000
  S   S635      1.0  0.38764  0.92102  0.71763  1.0000
  S   S636      1.0  0.43105  0.90353  0.72107  1.0000
  H   H2452     1.0  0.03207  0.57060  0.65420  1.0000
  S   S637      1.0  0.36371  0.93257  0.74891  1.0000
  Fe  Fe322     1.0  0.37213  0.91057  0.73965  1.0000
  S   S638      1.0  0.35761  0.89425  0.73968  1.0000
  Fe  Fe323     1.0  0.38127  0.94190  0.72827  1.0000
  S   S639      1.0  0.39121  0.89998  0.75307  1.0000
  Fe  Fe324     1.0  0.47372  0.93849  0.75573  1.0000
  H   H2453     1.0  0.23256  0.89720  0.61689  1.0000
  S   S640      1.0  0.99377  0.61174  0.74693  1.0000
  C   C1520     1.0  0.19925  0.78267  0.63915  1.0000
  H   H2454     1.0  0.06180  0.64705  0.65931  1.0000
  C   C1521     1.0  0.08241  0.75061  0.60414  1.0000
  C   C1522     1.0  0.15908  0.64848  0.77499  1.0000
  Fe  Fe325     1.0  0.45972  0.89612  0.66852  1.0000
  S   S641      1.0  0.40113  0.93358  0.74041  1.0000
  S   S642      1.0  0.43361  0.89931  0.67216  1.0000
  H   H2455     1.0  0.01029  0.96941  0.67163  1.0000
  H   H2456     1.0  0.04771  0.56310  0.66439  1.0000
  Fe  Fe326     1.0  0.34892  0.85762  0.66004  1.0000
  S   S643      1.0  0.33357  0.88099  0.65316  1.0000
  S   S644      1.0  0.33619  0.83825  0.67224  1.0000
  Fe  Fe327     1.0  0.37865  0.86961  0.64578  1.0000
  S   S645      1.0  0.36577  0.89415  0.63759  1.0000
  S   S646      1.0  0.40494  0.86184  0.64280  1.0000
  Fe  Fe328     1.0  0.34956  0.89023  0.66110  1.0000
  S   S647      1.0  0.33926  0.90910  0.67476  1.0000
  Fe  Fe329     1.0  0.35083  0.88280  0.63030  1.0000
  S   S648      1.0  0.34005  0.89359  0.60936  1.0000
  S   S649      1.0  0.36365  0.86665  0.66999  1.0000
  S   S650      1.0  0.36503  0.85847  0.63645  1.0000
  Fe  Fe330     1.0  0.08716  0.58474  0.67905  1.0000
  S   S651      1.0  0.08903  0.60124  0.65570  1.0000
  S   S652      1.0  0.08761  0.58918  0.70194  1.0000
  Fe  Fe331     1.0  0.07970  0.55954  0.66751  1.0000
  S   S653      1.0  0.08119  0.57385  0.64308  1.0000
  C   C1523     1.0  0.02984  0.56608  0.69288  1.0000
  Fe  Fe332     1.0  0.10212  0.57980  0.64651  1.0000
  S   S654      1.0  0.12417  0.58040  0.62810  1.0000
  Fe  Fe333     1.0  0.06808  0.59402  0.65420  1.0000
  S   S655      1.0  0.04789  0.61068  0.64497  1.0000
  S   S656      1.0  0.10200  0.56358  0.67010  1.0000
  S   S657      1.0  0.06487  0.57942  0.67840  1.0000
  Fe  Fe334     1.0  0.27904  0.84436  0.74884  1.0000
  S   S658      1.0  0.26115  0.86665  0.75071  1.0000
  S   S659      1.0  0.30392  0.84737  0.74051  1.0000
  C   C1524     1.0  0.37999  0.97027  0.74388  1.0000
  Fe  Fe335     1.0  0.24606  0.85552  0.74330  1.0000
  S   S660      1.0  0.23037  0.86822  0.72631  1.0000
  S   S661      1.0  0.26471  0.83412  0.73949  1.0000
  C   C1525     1.0  0.03438  0.70543  0.60230  1.0000
  C   C1526     1.0  0.03203  0.72044  0.60481  1.0000
  H   H2457     1.0  0.13608  0.91575  0.59038  1.0000
  Fe  Fe336     1.0  0.01723  0.57083  0.74012  1.0000
  C   C1527     1.0  0.01485  0.80984  0.62575  1.0000
  H   H2458     1.0  0.41733  0.95960  0.75604  1.0000
  H   H2459     1.0  0.44840  0.87247  0.60811  1.0000
  Fe  Fe337     1.0  0.02362  0.75769  0.59166  1.0000
  H   H2460     1.0  0.09175  0.74020  0.60710  1.0000
  H   H2461     1.0  0.35158  0.97031  0.76829  1.0000
  H   H2462     1.0  0.04084  0.77489  0.62547  1.0000
  N   N154      1.0  0.02460  0.56544  0.67922  1.0000
  H   H2463     1.0  0.43223  0.96783  0.77023  1.0000
  S   S662      1.0  0.07056  0.53734  0.67812  1.0000
  H   H2464     1.0  0.48944  0.97193  0.65139  1.0000
  H   H2465     1.0  0.07840  0.52452  0.73717  1.0000
  H   H2466     1.0  0.04160  0.55831  0.69347  1.0000
  C   C1528     1.0  0.01513  0.53483  0.74728  1.0000
  H   H2467     1.0  0.01576  0.54475  0.69104  1.0000
  H   H2468     1.0  0.08133  0.52281  0.62761  1.0000
  C   C1529     1.0  0.06355  0.64476  0.71249  1.0000
  C   C1530     1.0  0.07665  0.52943  0.64961  1.0000
  C   C1531     1.0  0.48903  0.96530  0.66325  1.0000
  H   H2469     1.0  0.05491  0.55866  0.71442  1.0000
  N   N155      1.0  0.14949  0.65318  0.58109  1.0000
  H   H2470     1.0  0.14543  0.58408  0.59880  1.0000
  C   C1532     1.0  0.32792  0.83933  0.69173  1.0000
  C   C1533     1.0  0.33545  0.84461  0.70000  1.0000
  C   C1534     1.0  0.32820  0.84658  0.71519  1.0000
  C   C1535     1.0  0.31334  0.84339  0.72210  1.0000
  C   C1536     1.0  0.30593  0.83784  0.71394  1.0000
  C   C1537     1.0  0.31327  0.83569  0.69881  1.0000
  H   H2471     1.0  0.34690  0.84709  0.69473  1.0000
  H   H2472     1.0  0.33403  0.85079  0.72148  1.0000
  H   H2473     1.0  0.29453  0.83526  0.71923  1.0000
  H   H2474     1.0  0.30743  0.83155  0.69247  1.0000
  C   C1538     1.0  0.42641  0.88929  0.66289  1.0000
  C   C1539     1.0  0.43504  0.87501  0.65923  1.0000
  C   C1540     1.0  0.42834  0.86658  0.65309  1.0000
  C   C1541     1.0  0.41307  0.87242  0.65059  1.0000
  C   C1542     1.0  0.40450  0.88669  0.65427  1.0000
  C   C1543     1.0  0.41119  0.89513  0.66032  1.0000
  H   H2475     1.0  0.44664  0.87027  0.66156  1.0000
  H   H2476     1.0  0.43487  0.85540  0.65048  1.0000
  H   H2477     1.0  0.39271  0.89126  0.65239  1.0000
  H   H2478     1.0  0.40445  0.90615  0.66318  1.0000
  Fe  Fe338     1.0  0.08465  0.97523  0.63149  1.0000
  C   C1544     1.0  0.20709  0.88869  0.63774  1.0000
  H   H2479     1.0  0.20213  0.80154  0.73579  1.0000
  H   H2480     1.0  0.07213  0.78037  0.59003  1.0000
  C   C1545     1.0  0.06740  0.64064  0.64976  1.0000
  C   C1546     1.0  0.35207  0.89843  0.72186  1.0000
  C   C1547     1.0  0.35078  0.91351  0.71254  1.0000
  C   C1548     1.0  0.34678  0.91669  0.69809  1.0000
  C   C1549     1.0  0.34466  0.90470  0.69266  1.0000
  C   C1550     1.0  0.34614  0.88955  0.70191  1.0000
  C   C1551     1.0  0.34948  0.88651  0.71666  1.0000
  H   H2481     1.0  0.35267  0.92278  0.71653  1.0000
  H   H2482     1.0  0.34555  0.92843  0.69098  1.0000
  H   H2483     1.0  0.34428  0.88030  0.69787  1.0000
  H   H2484     1.0  0.35041  0.87482  0.72384  1.0000
  C   C1552     1.0  0.44115  0.90619  0.73343  1.0000
  C   C1553     1.0  0.45365  0.91378  0.72739  1.0000
  C   C1554     1.0  0.46037  0.91756  0.73753  1.0000
  C   C1555     1.0  0.45494  0.91317  0.75365  1.0000
  C   C1556     1.0  0.44273  0.90525  0.75964  1.0000
  C   C1557     1.0  0.43563  0.90205  0.74953  1.0000
  H   H2485     1.0  0.45784  0.91709  0.71492  1.0000
  H   H2486     1.0  0.46978  0.92375  0.73286  1.0000
  H   H2487     1.0  0.01750  0.97507  0.63603  1.0000
  H   H2488     1.0  0.42590  0.89631  0.75421  1.0000
  C   C1558     1.0  0.00821  0.61822  0.68671  1.0000
  C   C1559     1.0  0.00489  0.62087  0.67204  1.0000
  C   C1560     1.0  0.01716  0.61931  0.65896  1.0000
  C   C1561     1.0  0.03268  0.61516  0.66061  1.0000
  C   C1562     1.0  0.03597  0.61354  0.67506  1.0000
  C   C1563     1.0  0.02372  0.61509  0.68810  1.0000
  C   C1564     1.0  0.20867  0.81042  0.73507  1.0000
  H   H2489     1.0  0.01462  0.62072  0.64773  1.0000
  H   H2490     1.0  0.04794  0.61101  0.67624  1.0000
  H   H2491     1.0  0.02629  0.61393  0.69921  1.0000
  S   S663      1.0  0.46279  0.91796  0.76660  1.0000
  H   H2492     1.0  0.14680  0.67770  0.57961  1.0000
  H   H2493     1.0  0.09204  0.54396  0.73881  1.0000
  Fe  Fe339     1.0  0.47071  0.97190  0.75715  1.0000
  C   C1565     1.0  0.19342  0.80922  0.62446  1.0000
  C   C1566     1.0  0.13541  0.59376  0.59804  1.0000
  H   H2494     1.0  0.09953  0.62853  0.59498  1.0000
  H   H2495     1.0  0.20018  0.79547  0.60037  1.0000
  C   C1567     1.0  0.34254  0.85561  0.59345  1.0000
  C   C1568     1.0  0.31741  0.87299  0.59116  1.0000
  H   H2496     1.0  0.24410  0.87786  0.61688  1.0000
  Fe  Fe340     1.0  0.00125  0.60316  0.72480  1.0000
  H   H2497     1.0  0.41542  0.93094  0.68710  1.0000
  C   C1569     1.0  0.06492  0.51190  0.67210  1.0000
  C   C1570     1.0  0.03027  0.48806  0.70408  1.0000
  C   C1571     1.0  0.21941  0.79317  0.61892  1.0000
  C   C1572     1.0  0.11676  0.70640  0.58627  1.0000
  C   C1573     1.0  0.00891  0.57577  0.67903  1.0000
  C   C1574     1.0  0.30540  0.87312  0.76425  1.0000
  H   H2498     1.0  0.14471  0.63757  0.60348  1.0000
  S   S664      1.0  0.46934  0.90636  0.68256  1.0000
  H   H2499     1.0  0.16935  0.64719  0.59158  1.0000
  H   H2500     1.0  0.14791  0.62909  0.58705  1.0000
  H   H2501     1.0  0.23469  0.84110  0.58292  1.0000
  C   C1575     1.0  0.34638  0.86628  0.59945  1.0000
  C   C1576     1.0  0.33574  0.88036  0.60128  1.0000
  H   H2502     1.0  0.06601  0.64202  0.74178  1.0000
  C   C1577     1.0  0.99955  0.82035  0.57811  1.0000
  H   H2503     1.0  0.07398  0.64849  0.71308  1.0000
  H   H2504     1.0  0.35756  0.86365  0.60262  1.0000
  H   H2505     1.0  0.22983  0.79232  0.75217  1.0000
  C   C1578     1.0  0.04122  0.96749  0.66134  1.0000
  H   H2506     1.0  0.07383  0.74258  0.58173  1.0000
  H   H2507     1.0  0.18651  0.80737  0.76141  1.0000
  H   H2508     1.0  0.02164  0.56225  0.70399  1.0000
  C   C1579     1.0  0.06226  0.70186  0.59965  1.0000
  H   H2509     1.0  0.27379  0.88920  0.71693  1.0000
  Fe  Fe341     1.0  0.49122  0.88793  0.64692  1.0000
  N   N156      1.0  0.14696  0.93494  0.58658  1.0000
  H   H2510     1.0  0.02033  0.72769  0.60646  1.0000
  H   H2511     1.0  0.33600  0.87185  0.75195  1.0000
  C   C1580     1.0  0.07008  0.66458  0.63081  1.0000
  C   C1581     1.0  0.29081  0.90754  0.69430  1.0000
  H   H2512     1.0  0.04065  0.66106  0.64508  1.0000
  H   H2513     1.0  0.31368  0.89622  0.70972  1.0000
  S   S665      1.0  0.09885  0.66716  0.58386  1.0000
  H   H2514     1.0  0.25732  0.88538  0.77221  1.0000
  H   H2515     1.0  0.43849  0.90188  0.77210  1.0000
  H   H2516     1.0  0.28246  0.91405  0.70298  1.0000
  H   H2517     1.0  0.18674  0.78189  0.64287  1.0000
  C   C1582     1.0  0.10757  0.69860  0.59943  1.0000
  H   H2518     1.0  0.30086  0.91344  0.68899  1.0000
  C   C1583     1.0  0.03420  0.78569  0.62975  1.0000
  C   C1584     1.0  0.21833  0.83756  0.70123  1.0000
  C   C1585     1.0  0.23259  0.83322  0.70595  1.0000
  C   C1586     1.0  0.23646  0.84273  0.71333  1.0000
  C   C1587     1.0  0.22611  0.85669  0.71608  1.0000
  C   C1588     1.0  0.21202  0.86130  0.71092  1.0000
  C   C1589     1.0  0.20808  0.85172  0.70358  1.0000
  H   H2519     1.0  0.24061  0.82234  0.70409  1.0000
  H   H2520     1.0  0.24750  0.83924  0.71683  1.0000
  H   H2521     1.0  0.20397  0.87212  0.71295  1.0000
  H   H2522     1.0  0.19700  0.85513  0.70005  1.0000
  C   C1590     1.0  0.20959  0.84083  0.61830  1.0000
  C   C1591     1.0  0.21945  0.83030  0.62767  1.0000
  C   C1592     1.0  0.23474  0.82349  0.62087  1.0000
  C   C1593     1.0  0.24023  0.82737  0.60474  1.0000
  C   C1594     1.0  0.23050  0.83817  0.59541  1.0000
  C   C1595     1.0  0.21515  0.84482  0.60218  1.0000
  H   H2523     1.0  0.21538  0.82742  0.64015  1.0000
  H   H2524     1.0  0.24237  0.81530  0.62811  1.0000
  H   H2525     1.0  0.20460  0.77567  0.61121  1.0000
  H   H2526     1.0  0.15027  0.70139  0.74672  1.0000
  C   C1596     1.0  0.13709  0.88680  0.67226  1.0000
  C   C1597     1.0  0.14940  0.88894  0.65931  1.0000
  C   C1598     1.0  0.14793  0.90263  0.64765  1.0000
  C   C1599     1.0  0.13398  0.91404  0.64866  1.0000
  C   C1600     1.0  0.12145  0.91175  0.66136  1.0000
  C   C1601     1.0  0.12309  0.89821  0.67326  1.0000
  H   H2527     1.0  0.16015  0.88016  0.65837  1.0000
  H   H2528     1.0  0.15762  0.90434  0.63782  1.0000
  H   H2529     1.0  0.11066  0.92055  0.66221  1.0000
  H   H2530     1.0  0.11353  0.89659  0.68325  1.0000
  C   C1602     1.0  0.15246  0.78005  0.64269  1.0000
  C   C1603     1.0  0.15532  0.79487  0.64052  1.0000
  C   C1604     1.0  0.15712  0.79971  0.65308  1.0000
  C   C1605     1.0  0.15619  0.78966  0.66779  1.0000
  C   C1606     1.0  0.15324  0.77488  0.66994  1.0000
  C   C1607     1.0  0.15119  0.77015  0.65747  1.0000
  H   H2531     1.0  0.15594  0.80266  0.62915  1.0000
  H   H2532     1.0  0.15910  0.81124  0.65142  1.0000
  H   H2533     1.0  0.15255  0.76706  0.68130  1.0000
  H   H2534     1.0  0.14900  0.75868  0.65920  1.0000
  H   H2535     1.0  0.02312  0.81678  0.62578  1.0000
  C   C1608     1.0  0.11370  0.71663  0.71723  1.0000
  C   C1609     1.0  0.12275  0.72663  0.70637  1.0000
  C   C1610     1.0  0.11573  0.73963  0.69629  1.0000
  C   C1611     1.0  0.09956  0.74291  0.69741  1.0000
  C   C1612     1.0  0.09048  0.73305  0.70844  1.0000
  C   C1613     1.0  0.09759  0.71976  0.71818  1.0000
  H   H2536     1.0  0.13524  0.72421  0.70561  1.0000
  H   H2537     1.0  0.12282  0.74716  0.68775  1.0000
  H   H2538     1.0  0.07796  0.73561  0.70935  1.0000
  H   H2539     1.0  0.09053  0.71214  0.72664  1.0000
  C   C1614     1.0  0.10603  0.63036  0.70325  1.0000
  C   C1615     1.0  0.10006  0.62058  0.71706  1.0000
  C   C1616     1.0  0.09448  0.60794  0.71648  1.0000
  C   C1617     1.0  0.09481  0.60507  0.70212  1.0000
  C   C1618     1.0  0.10070  0.61489  0.68830  1.0000
  C   C1619     1.0  0.10633  0.62750  0.68888  1.0000
  H   H2540     1.0  0.09993  0.62259  0.72817  1.0000
  H   H2541     1.0  0.08997  0.60034  0.72720  1.0000
  H   H2542     1.0  0.10114  0.61265  0.67719  1.0000
  H   H2543     1.0  0.11103  0.63500  0.67817  1.0000
  H   H2544     1.0  0.06973  0.72081  0.60303  1.0000
  C   C1620     1.0  0.13495  0.60496  0.58412  1.0000
  H   H2545     1.0  0.22330  0.79662  0.62773  1.0000
  H   H2546     1.0  0.19603  0.88443  0.64096  1.0000
  H   H2547     1.0  0.09033  0.55680  0.70480  1.0000
  H   H2548     1.0  0.20455  0.90108  0.63133  1.0000
  S   S666      1.0  0.37922  0.96686  0.71540  1.0000
  H   H2549     1.0  0.04292  0.79202  0.62994  1.0000
  H   H2550     1.0  0.16851  0.65121  0.76518  1.0000
  C   C1621     1.0  0.07181  0.64130  0.62233  1.0000
  H   H2551     1.0  0.43675  0.88961  0.62651  1.0000
  C   C1622     1.0  0.06501  0.50218  0.66252  1.0000
  H   H2552     1.0  0.45311  0.88901  0.59316  1.0000
  H   H2553     1.0  0.04391  0.66175  0.62469  1.0000
  C   C1623     1.0  0.02394  0.54920  0.68021  1.0000
  C   C1624     1.0  0.10985  0.60738  0.60983  1.0000
  N   N157      1.0  0.07426  0.54883  0.72577  1.0000
  S   S667      1.0  0.99802  0.75915  0.60165  1.0000
  C   C1625     1.0  0.02644  0.92101  0.62077  1.0000
  C   C1626     1.0  0.02455  0.91482  0.63680  1.0000
  C   C1627     1.0  0.03302  0.91862  0.64541  1.0000
  C   C1628     1.0  0.04372  0.92828  0.63799  1.0000
  C   C1629     1.0  0.04558  0.93452  0.62198  1.0000
  C   C1630     1.0  0.03680  0.93105  0.61344  1.0000
  H   H2554     1.0  0.01641  0.90727  0.64258  1.0000
  H   H2555     1.0  0.03140  0.91392  0.65784  1.0000
  H   H2556     1.0  0.05376  0.94201  0.61613  1.0000
  H   H2557     1.0  0.03826  0.93593  0.60105  1.0000
  C   C1631     1.0  0.04747  0.82858  0.63796  1.0000
  C   C1632     1.0  0.05655  0.81555  0.64613  1.0000
  C   C1633     1.0  0.06679  0.80403  0.63844  1.0000
  C   C1634     1.0  0.06820  0.80568  0.62249  1.0000
  C   C1635     1.0  0.05933  0.81885  0.61427  1.0000
  C   C1636     1.0  0.04886  0.83019  0.62202  1.0000
  H   H2558     1.0  0.05542  0.81420  0.65849  1.0000
  H   H2559     1.0  0.07334  0.79374  0.64495  1.0000
  H   H2560     1.0  0.06051  0.82028  0.60189  1.0000
  H   H2561     1.0  0.04187  0.84016  0.61561  1.0000
  C   C1637     1.0  0.14170  0.70770  0.75548  1.0000
  H   H2562     1.0  0.22442  0.87205  0.60651  1.0000
  H   H2563     1.0  0.09905  0.69518  0.62433  1.0000
  H   H2564     1.0  0.04655  0.63953  0.75112  1.0000
  C   C1638     1.0  0.10610  0.70132  0.61418  1.0000
  C   C1639     1.0  0.04575  0.66384  0.72654  1.0000
  H   H2565     1.0  0.42998  0.94044  0.75874  1.0000
  H   H2566     1.0  0.31320  0.89479  0.59812  1.0000
  H   H2567     1.0  0.38938  0.88646  0.68903  1.0000
  H   H2568     1.0  0.30841  0.87443  0.75138  1.0000
  C   C1640     1.0  0.08570  0.54619  0.71121  1.0000
  N   N158      1.0  0.31829  0.83392  0.63643  1.0000
  C   C1641     1.0  0.30365  0.83976  0.63061  1.0000
  C   C1642     1.0  0.31512  0.82457  0.65253  1.0000
  C   C1643     1.0  0.32447  0.84729  0.63629  1.0000
  C   C1644     1.0  0.32994  0.82403  0.62630  1.0000
  H   H2569     1.0  0.30578  0.84671  0.61838  1.0000
  H   H2570     1.0  0.29465  0.84743  0.63784  1.0000
  H   H2571     1.0  0.29863  0.83000  0.63053  1.0000
  H   H2572     1.0  0.30669  0.83174  0.66062  1.0000
  H   H2573     1.0  0.31021  0.81449  0.65318  1.0000
  H   H2574     1.0  0.32604  0.81987  0.65710  1.0000
  H   H2575     1.0  0.33623  0.84341  0.63922  1.0000
  H   H2576     1.0  0.31666  0.85425  0.64485  1.0000
  H   H2577     1.0  0.32565  0.85537  0.62469  1.0000
  H   H2578     1.0  0.33237  0.83059  0.61401  1.0000
  H   H2579     1.0  0.32572  0.81373  0.62627  1.0000
  H   H2580     1.0  0.34128  0.81972  0.63007  1.0000
  H   H2581     1.0  0.44442  0.94849  0.77332  1.0000
  H   H2582     1.0  0.06063  0.49166  0.66757  1.0000
  N   N159      1.0  0.46087  0.88593  0.61416  1.0000
  H   H2583     1.0  0.05984  0.62537  0.74068  1.0000
  H   H2584     1.0  0.00797  0.80703  0.63790  1.0000
  S   S668      1.0  0.00090  0.85174  0.62578  1.0000
  N   N160      1.0  0.29623  0.89096  0.70156  1.0000
  C   C1645     1.0  0.22283  0.86270  0.63720  1.0000
  H   H2585     1.0  0.03675  0.58283  0.66371  1.0000
  S   S669      1.0  0.48340  0.94266  0.65300  1.0000
  H   H2586     1.0  0.05196  0.56374  0.73277  1.0000
  C   C1646     1.0  0.21874  0.82299  0.74896  1.0000
  H   H2587     1.0  0.23095  0.81976  0.74222  1.0000
  C   C1647     1.0  0.32795  0.85880  0.58958  1.0000
  C   C1648     1.0  0.16055  0.92520  0.59313  1.0000
  H   H2588     1.0  0.47794  0.86545  0.62157  1.0000
  C   C1649     1.0  0.48582  0.94167  0.68276  1.0000
  H   H2589     1.0  0.08022  0.63705  0.64930  1.0000
  C   C1650     1.0  0.28276  0.88332  0.70809  1.0000
  H   H2590     1.0  0.20187  0.78685  0.64829  1.0000
  C   C1651     1.0  0.07670  0.51974  0.64003  1.0000
  H   H2591     1.0  0.15783  0.92351  0.60606  1.0000
  H   H2592     1.0  0.03571  0.54122  0.68026  1.0000
  S   S670      1.0  0.04191  0.74574  0.60551  1.0000
  C   C1652     1.0  0.11351  0.71213  0.61580  1.0000
  H   H2593     1.0  0.17090  0.93065  0.58834  1.0000
  H   H2594     1.0  0.48750  0.88447  0.76944  1.0000
  H   H2595     1.0  0.14010  0.67799  0.75993  1.0000
  C   C1653     1.0  0.30390  0.88998  0.71416  1.0000
  S   S671      1.0  0.27701  0.85216  0.59429  1.0000
  C   C1654     1.0  0.19371  0.81592  0.75993  1.0000
  S   S672      1.0  0.05502  0.66946  0.75855  1.0000
  H   H2596     1.0  0.15260  0.95673  0.58510  1.0000
  S   S673      1.0  0.10701  0.96752  0.61498  1.0000
  H   H2597     1.0  0.46887  0.87733  0.63562  1.0000
  S   S674      1.0  0.01143  0.57669  0.76361  1.0000
  C   C1655     1.0  0.45751  0.87953  0.60259  1.0000
  N   N161      1.0  0.40064  0.87325  0.70793  1.0000
  C   C1656     1.0  0.38882  0.86359  0.71494  1.0000
  C   C1657     1.0  0.39361  0.88825  0.69858  1.0000
  C   C1658     1.0  0.41414  0.86490  0.69784  1.0000
  C   C1659     1.0  0.40599  0.87634  0.72038  1.0000
  H   H2598     1.0  0.39386  0.85196  0.72162  1.0000
  H   H2599     1.0  0.38400  0.86169  0.70586  1.0000
  H   H2600     1.0  0.37885  0.86930  0.72318  1.0000
  C   C1660     1.0  0.03124  0.60624  0.77720  1.0000
  H   H2601     1.0  0.38340  0.89483  0.70584  1.0000
  H   H2602     1.0  0.21216  0.85781  0.64052  1.0000
  H   H2603     1.0  0.42364  0.87151  0.69314  1.0000
  H   H2604     1.0  0.41072  0.86321  0.68774  1.0000
  H   H2605     1.0  0.41929  0.85322  0.70433  1.0000
  H   H2606     1.0  0.41154  0.86535  0.72763  1.0000
  H   H2607     1.0  0.39607  0.88259  0.72824  1.0000
  H   H2608     1.0  0.41484  0.88374  0.71541  1.0000
  H   H2609     1.0  0.42985  0.93725  0.71036  1.0000
  H   H2610     1.0  0.42340  0.95818  0.70591  1.0000
  C   C1661     1.0  0.16658  0.64938  0.57996  1.0000
  H   H2611     1.0  0.06096  0.76813  0.58765  1.0000
  Fe  Fe342     1.0  0.99536  0.78331  0.58660  1.0000
  H   H2612     1.0  0.00862  0.49855  0.75319  1.0000
  C   C1662     1.0  0.12252  0.72012  0.60262  1.0000
  H   H2613     1.0  0.02352  0.95698  0.64918  1.0000
  H   H2614     1.0  0.21960  0.82401  0.76051  1.0000
  C   C1663     1.0  0.01184  0.78672  0.62000  1.0000
  C   C1664     1.0  0.06083  0.56154  0.72203  1.0000
  H   H2615     1.0  0.21807  0.79598  0.77053  1.0000
  H   H2616     1.0  0.10007  0.60816  0.61970  1.0000
  C   C1665     1.0  0.44637  0.89602  0.62124  1.0000
  C   C1666     1.0  0.14223  0.66742  0.58737  1.0000
  C   C1667     1.0  0.30757  0.88300  0.68963  1.0000
  H   H2617     1.0  0.06042  0.50881  0.68451  1.0000
  H   H2618     1.0  0.13108  0.71352  0.75059  1.0000
  H   H2619     1.0  0.37729  0.95889  0.74843  1.0000
  H   H2620     1.0  0.20420  0.87529  0.61648  1.0000
  H   H2621     1.0  0.14014  0.94954  0.60317  1.0000
  H   H2622     1.0  0.12933  0.67055  0.58838  1.0000
  H   H2623     1.0  0.00018  0.57220  0.68979  1.0000
  C   C1668     1.0  0.13347  0.92737  0.59327  1.0000
  H   H2624     1.0  0.04079  0.80669  0.60307  1.0000
  C   C1669     1.0  0.01738  0.51964  0.74537  1.0000
  H   H2625     1.0  0.03491  0.49864  0.70220  1.0000
  H   H2626     1.0  0.41958  0.97197  0.67935  1.0000
  C   C1670     1.0  0.32139  0.88383  0.59684  1.0000
  S   S675      1.0  0.25920  0.81869  0.59628  1.0000
  H   H2627     1.0  0.18063  0.80995  0.62723  1.0000
  H   H2628     1.0  0.03029  0.48656  0.69241  1.0000
  H   H2629     1.0  0.44661  0.95979  0.68351  1.0000
  H   H2630     1.0  0.01781  0.77579  0.61572  1.0000
  N   N162      1.0  0.06405  0.65024  0.63467  1.0000
  H   H2631     1.0  0.30247  0.88409  0.67957  1.0000
  H   H2632     1.0  0.22637  0.86183  0.64815  1.0000
  H   H2633     1.0  0.31825  0.88794  0.68503  1.0000
  Fe  Fe343     1.0  0.25496  0.82434  0.76458  1.0000
  C   C1671     1.0  0.05603  0.63809  0.74054  1.0000
  H   H2634     1.0  0.08610  0.56416  0.72982  1.0000
  H   H2635     1.0  0.05572  0.66840  0.72695  1.0000
  S   S676      1.0  0.03124  0.61239  0.75734  1.0000
  H   H2636     1.0  0.43483  0.92230  0.69007  1.0000
  H   H2637     1.0  0.20637  0.77060  0.63912  1.0000
  C   C1672     1.0  0.00286  0.84310  0.58446  1.0000
  H   H2638     1.0  0.03275  0.64815  0.71444  1.0000
  C   C1673     1.0  0.15222  0.68972  0.77687  1.0000
  C   C1674     1.0  0.21752  0.79584  0.75857  1.0000
  H   H2639     1.0  0.12842  0.72834  0.60381  1.0000
  N   N163      1.0  0.21984  0.87899  0.62821  1.0000
  N   N164      1.0  0.05062  0.64709  0.72616  1.0000
  H   H2640     1.0  0.06736  0.63223  0.71178  1.0000
  C   C1675     1.0  0.00665  0.51039  0.75435  1.0000
  H   H2641     1.0  0.45277  0.93893  0.68832  1.0000
  H   H2642     1.0  0.14436  0.66594  0.59913  1.0000
  S   S677      1.0  0.23547  0.84514  0.76794  1.0000
  C   C1676     1.0  0.07081  0.52551  0.66568  1.0000
  H   H2643     1.0  0.08031  0.54318  0.70323  1.0000
  H   H2644     1.0  0.07344  0.55539  0.74683  1.0000
  S   S678      1.0  0.06968  0.96859  0.61963  1.0000
  H   H2645     1.0  0.13239  0.95797  0.58599  1.0000
  Fe  Fe344     1.0  0.11196  0.73941  0.63578  1.0000
  N   N165      1.0  0.12362  0.69340  0.67840  1.0000
  C   C1677     1.0  0.13697  0.69638  0.66528  1.0000
  C   C1678     1.0  0.12926  0.68725  0.69307  1.0000
  C   C1679     1.0  0.11651  0.68187  0.67588  1.0000
  C   C1680     1.0  0.11176  0.70811  0.67936  1.0000
  H   H2646     1.0  0.13317  0.70097  0.65400  1.0000
  H   H2647     1.0  0.14616  0.68552  0.66425  1.0000
  H   H2648     1.0  0.14247  0.70519  0.66674  1.0000
  H   H2649     1.0  0.13495  0.69554  0.69522  1.0000
  H   H2650     1.0  0.11948  0.68526  0.70327  1.0000
  H   H2651     1.0  0.13785  0.67588  0.69298  1.0000
  H   H2652     1.0  0.10636  0.67943  0.68557  1.0000
  H   H2653     1.0  0.12503  0.67050  0.67533  1.0000
  H   H2654     1.0  0.11228  0.68612  0.66481  1.0000
  H   H2655     1.0  0.11680  0.71718  0.68090  1.0000
  H   H2656     1.0  0.10169  0.70641  0.68939  1.0000
  H   H2657     1.0  0.10704  0.71294  0.66858  1.0000
  N   N166      1.0  0.06226  0.87644  0.63111  1.0000
  C   C1681     1.0  0.05972  0.89021  0.61826  1.0000
  C   C1682     1.0  0.06631  0.86202  0.62516  1.0000
  C   C1683     1.0  0.04782  0.87651  0.64350  1.0000
  C   C1684     1.0  0.07520  0.87706  0.63757  1.0000
  H   H2658     1.0  0.07009  0.89019  0.60836  1.0000
  H   H2659     1.0  0.05744  0.90125  0.62221  1.0000
  H   H2660     1.0  0.04945  0.89071  0.61365  1.0000
  H   H2661     1.0  0.06807  0.85139  0.63461  1.0000
  H   H2662     1.0  0.05676  0.86124  0.62023  1.0000
  H   H2663     1.0  0.07716  0.86148  0.61582  1.0000
  H   H2664     1.0  0.04901  0.86586  0.65301  1.0000
  H   H2665     1.0  0.03761  0.87684  0.63889  1.0000
  H   H2666     1.0  0.04485  0.88678  0.64884  1.0000
  H   H2667     1.0  0.07738  0.86690  0.64736  1.0000
  H   H2668     1.0  0.07249  0.88787  0.64212  1.0000
  H   H2669     1.0  0.08629  0.87705  0.62854  1.0000
  H   H2670     1.0  0.16126  0.68257  0.76911  1.0000
  C   C1685     1.0  0.03209  0.79999  0.60367  1.0000
  C   C1686     1.0  0.08180  0.55324  0.73578  1.0000
  S   S679      1.0  0.11151  0.71524  0.63444  1.0000
  H   H2671     1.0  0.21131  0.78659  0.75961  1.0000
  H   H2672     1.0  0.40917  0.94266  0.76498  1.0000
  H   H2673     1.0  0.29549  0.89525  0.72370  1.0000
  S   S680      1.0  0.47129  0.90878  0.64541  1.0000
  C   C1687     1.0  0.07093  0.50606  0.64643  1.0000
  S   S681      1.0  0.07137  0.49406  0.63404  1.0000
  H   H2674     1.0  0.08473  0.63795  0.62110  1.0000
  S   S682      1.0  0.05263  0.67827  0.59454  1.0000
  H   H2675     1.0  0.28482  0.90873  0.68483  1.0000
  H   H2676     1.0  0.08205  0.75916  0.61089  1.0000
  H   H2677     1.0  0.02450  0.70119  0.60205  1.0000
  H   H2678     1.0  0.44822  0.90042  0.63064  1.0000
  H   H2679     1.0  0.06000  0.65154  0.70143  1.0000
  N   N167      1.0  0.10605  0.79879  0.68501  1.0000
  C   C1688     1.0  0.09121  0.79864  0.68150  1.0000
  C   C1689     1.0  0.10263  0.80660  0.69809  1.0000
  C   C1690     1.0  0.11555  0.80732  0.67111  1.0000
  C   C1691     1.0  0.11486  0.78258  0.68935  1.0000
  H   H2680     1.0  0.09342  0.79284  0.67166  1.0000
  H   H2681     1.0  0.08413  0.81065  0.67829  1.0000
  H   H2682     1.0  0.08389  0.79203  0.69165  1.0000
  H   H2683     1.0  0.11365  0.80685  0.70101  1.0000
  H   H2684     1.0  0.09606  0.81891  0.69521  1.0000
  H   H2685     1.0  0.09551  0.80044  0.70878  1.0000
  H   H2686     1.0  0.12643  0.80835  0.67367  1.0000
  H   H2687     1.0  0.10902  0.81938  0.66703  1.0000
  H   H2688     1.0  0.11917  0.80124  0.66125  1.0000
  H   H2689     1.0  0.11806  0.77648  0.67956  1.0000
  H   H2690     1.0  0.10783  0.77559  0.69944  1.0000
  H   H2691     1.0  0.12587  0.78224  0.69259  1.0000
  H   H2692     1.0  0.04113  0.67100  0.71613  1.0000
  C   C1692     1.0  0.04693  0.65443  0.63581  1.0000
  S   S683      1.0  0.02798  0.54680  0.73561  1.0000
  H   H2693     1.0  0.05256  0.96466  0.65304  1.0000
  H   H2694     1.0  0.45011  0.94863  0.66906  1.0000
  H   H2695     1.0  0.06448  0.57268  0.71586  1.0000
  C   C1693     1.0  0.14272  0.64001  0.59151  1.0000
  H   H2696     1.0  0.28651  0.87087  0.71394  1.0000
  H   H2697     1.0  0.99286  0.62352  0.67092  1.0000
  H   H2698     1.0  0.14596  0.64389  0.76111  1.0000
  H   H2699     1.0  0.42302  0.96101  0.66470  1.0000
  H   H2700     1.0  0.32288  0.90084  0.76589  1.0000
  H   H2701     1.0  0.22227  0.80155  0.60763  1.0000
  C   C1694     1.0  0.38093  0.97730  0.72809  1.0000
  H   H2702     1.0  0.19619  0.81766  0.61321  1.0000
  H   H2703     1.0  0.18525  0.78751  0.61547  1.0000
  S   S684      1.0  0.01352  0.85739  0.58109  1.0000
  H   H2704     1.0  0.04317  0.97368  0.66928  1.0000
  H   H2705     1.0  0.10165  0.69041  0.59828  1.0000
  C   C1695     1.0  0.14286  0.95048  0.59037  1.0000
  H   H2706     1.0  0.23810  0.88502  0.63453  1.0000
  H   H2707     1.0  0.06415  0.67191  0.63957  1.0000
  N   N168      1.0  0.02324  0.79556  0.61981  1.0000
  C   C1696     1.0  0.05984  0.71661  0.60284  1.0000
  C   C1697     1.0  0.13161  0.68455  0.76852  1.0000
  H   H2708     1.0  0.23230  0.85501  0.63030  1.0000
  S   S685      1.0  0.46378  0.96152  0.74131  1.0000
  H   H2709     1.0  0.06284  0.62981  0.65309  1.0000
  H   H2710     1.0  0.06761  0.63034  0.62484  1.0000
  C   C1698     1.0  0.12287  0.59484  0.61090  1.0000
  N   N169      1.0  0.20251  0.79319  0.62367  1.0000
  H   H2711     1.0  0.00458  0.57572  0.66883  1.0000
  H   H2712     1.0  0.03644  0.66590  0.73709  1.0000
  H   H2713     1.0  0.22668  0.78142  0.61755  1.0000
  N   N170      1.0  0.13790  0.69689  0.77065  1.0000
  Fe  Fe345     1.0  0.38423  0.92287  0.76035  1.0000
  H   H2714     1.0  0.40648  0.95990  0.68094  1.0000
  S   S686      1.0  0.00035  0.88040  0.64119  1.0000
  H   H2715     1.0  0.19404  0.81674  0.77174  1.0000
  Fe  Fe346     1.0  0.27108  0.83786  0.58136  1.0000
  H   H2716     1.0  0.02792  0.78208  0.64201  1.0000
  H   H2717     1.0  0.06285  0.53084  0.72675  1.0000
  H   H2718     1.0  0.05978  0.53605  0.74499  1.0000
  Fe  Fe347     1.0  0.48233  0.91743  0.65945  1.0000
  H   H2719     1.0  0.00911  0.58807  0.67836  1.0000
  H   H2720     1.0  0.04048  0.62899  0.72490  1.0000
  H   H2721     1.0  0.06936  0.64817  0.61081  1.0000
  N   N171      1.0  0.02877  0.97700  0.65302  1.0000
  C   C1699     1.0  0.14630  0.64440  0.77266  1.0000
  H   H2722     1.0  0.41048  0.94610  0.70708  1.0000
  C   C1700     1.0  0.19795  0.78772  0.61216  1.0000
  H   H2723     1.0  0.34075  0.87486  0.76844  1.0000
  H   H2724     1.0  0.27691  0.88347  0.69886  1.0000
  H   H2725     1.0  0.02730  0.64311  0.73536  1.0000
  C   C1701     1.0  0.04476  0.72611  0.60492  1.0000
  H   H2726     1.0  0.31142  0.87035  0.69446  1.0000
  N   N172      1.0  0.42872  0.94735  0.68642  1.0000
  C   C1702     1.0  0.42766  0.93262  0.68349  1.0000
  C   C1703     1.0  0.42290  0.94723  0.70319  1.0000
  C   C1704     1.0  0.41905  0.96066  0.67742  1.0000
  C   C1705     1.0  0.44524  0.94878  0.68162  1.0000
  H   H2727     1.0  0.35082  0.84473  0.59205  1.0000
  S   S687      1.0  0.32274  0.84429  0.58409  1.0000
  H   H2728     1.0  0.02418  0.80750  0.59587  1.0000
  H   H2729     1.0  0.18752  0.82756  0.75421  1.0000
  H   H2730     1.0  0.03055  0.57817  0.69248  1.0000
  C   C1706     1.0  0.12427  0.71713  0.58792  1.0000
  Fe  Fe348     1.0  0.25253  0.85382  0.77505  1.0000
  H   H2731     1.0  0.22051  0.80731  0.72756  1.0000
  H   H2732     1.0  0.44206  0.90634  0.61245  1.0000
  H   H2733     1.0  0.31822  0.89799  0.74929  1.0000
  S   S688      1.0  0.47881  0.87436  0.66904  1.0000
  H   H2734     1.0  0.45815  0.86532  0.63213  1.0000
  H   H2735     1.0  0.12986  0.64240  0.59242  1.0000
  H   H2736     1.0  0.12290  0.93463  0.58883  1.0000
  C   C1707     1.0  0.49097  0.96333  0.68964  1.0000
  Fe  Fe349     1.0  0.48979  0.88594  0.68068  1.0000
  H   H2737     1.0  0.14682  0.71699  0.75652  1.0000
  H   H2738     1.0  0.30278  0.90288  0.76563  1.0000
  H   H2739     1.0  0.11023  0.75190  0.58452  1.0000
  H   H2740     1.0  0.48377  0.93000  0.68604  1.0000
  H   H2741     1.0  0.00052  0.55224  0.76002  1.0000
  H   H2742     1.0  0.26953  0.90698  0.77053  1.0000
  C   C1708     1.0  0.41906  0.94796  0.76415  1.0000
  H   H2743     1.0  0.03775  0.96534  0.63386  1.0000
  S   S689      1.0  0.27130  0.83213  0.77358  1.0000
  C   C1709     1.0  0.48802  0.94829  0.69396  1.0000
  H   H2744     1.0  0.09426  0.73478  0.58151  1.0000
  H   H2745     1.0  0.38180  0.97234  0.76604  1.0000
  C   C1710     1.0  0.48634  0.95021  0.66738  1.0000
  C   C1711     1.0  0.99369  0.51635  0.76518  1.0000
  C   C1712     1.0  0.07261  0.77127  0.58387  1.0000
  H   H2746     1.0  0.10060  0.77095  0.58830  1.0000
  C   C1713     1.0  0.08543  0.74573  0.57871  1.0000
  H   H2747     1.0  0.30616  0.87556  0.58814  1.0000
  H   H2748     1.0  0.29302  0.87935  0.76757  1.0000
  S   S690      1.0  0.24621  0.80218  0.77366  1.0000
  C   C1714     1.0  0.10046  0.76208  0.58211  1.0000
  H   H2749     1.0  0.04409  0.48682  0.72692  1.0000
  C   C1715     1.0  0.33234  0.87049  0.76482  1.0000
  N   N173      1.0  0.31607  0.87916  0.76948  1.0000
  H   H2750     1.0  0.33655  0.95939  0.77401  1.0000
  H   H2751     1.0  0.48559  0.98086  0.77422  1.0000
  Fe  Fe350     1.0  0.07547  0.67515  0.57744  1.0000
  H   H2752     1.0  0.27895  0.79499  0.77487  1.0000
  S   S691      1.0  0.47781  0.94900  0.77312  1.0000
  H   H2753     1.0  0.33368  0.85779  0.77009  1.0000
  H   H2754     1.0  0.30596  0.86047  0.76947  1.0000
  C   C1716     1.0  0.01390  0.98039  0.66447  1.0000
  C   C1717     1.0  0.49145  0.97179  0.67430  1.0000
  S   S692      1.0  0.99324  0.58085  0.73564  1.0000
  S   S693      1.0  0.09637  0.96118  0.57894  1.0000
  H   H2755     1.0  0.13145  0.72315  0.57778  1.0000
  H   H2756     1.0  0.35583  0.94985  0.77717  1.0000
  S   S694      1.0  0.00961  0.60382  0.86728  1.0000
  Fe  Fe351     1.0  0.02347  0.64151  0.84394  1.0000
  S   S695      1.0  0.04019  0.61864  0.84914  1.0000
  H   H2757     1.0  0.05725  0.67232  0.84098  1.0000
  Fe  Fe352     1.0  0.02357  0.60877  0.84281  1.0000
  S   S696      1.0  0.03198  0.59020  0.82881  1.0000
  Fe  Fe353     1.0  0.02487  0.61595  0.87310  1.0000
  S   S697      1.0  0.03811  0.60561  0.89249  1.0000
  S   S698      1.0  0.00800  0.63192  0.83546  1.0000
  S   S699      1.0  0.00908  0.63968  0.86843  1.0000
  Fe  Fe354     1.0  0.08780  0.61064  0.95940  1.0000
  H   H2758     1.0  0.49013  0.73933  0.83159  1.0000
  H   H2759     1.0  0.09525  0.69128  0.96160  1.0000
  Fe  Fe355     1.0  0.07209  0.64005  0.93985  1.0000
  S   S700      1.0  0.08516  0.65489  0.94495  1.0000
  S   S701      1.0  0.05370  0.65017  0.92533  1.0000
  Fe  Fe356     1.0  0.10598  0.63525  0.94125  1.0000
  S   S702      1.0  0.12952  0.64045  0.92889  1.0000
  H   H2760     1.0  0.34084  0.69594  0.84153  1.0000
  H   H2761     1.0  0.10181  0.61141  0.79928  1.0000
  S   S703      1.0  0.09344  0.62152  0.93392  1.0000
  C   C1718     1.0  0.29786  0.97742  0.83164  1.0000
  S   S704      1.0  0.27131  0.93716  0.82776  1.0000
  Fe  Fe357     1.0  0.15647  0.67155  0.84420  1.0000
  H   H2762     1.0  0.24246  0.68259  0.83689  1.0000
  S   S705      1.0  0.13197  0.67636  0.85878  1.0000
  Fe  Fe358     1.0  0.18763  0.64899  0.84458  1.0000
  S   S706      1.0  0.19992  0.63064  0.86192  1.0000
  Fe  Fe359     1.0  0.18655  0.68244  0.82638  1.0000
  S   S707      1.0  0.20192  0.70001  0.81786  1.0000
  S   S708      1.0  0.17786  0.67204  0.85144  1.0000
  S   S709      1.0  0.16562  0.64759  0.83914  1.0000
  H   H2763     1.0  0.29089  0.63982  0.90121  1.0000
  C   C1719     1.0  0.22186  0.66539  0.84070  1.0000
  S   S710      1.0  0.26778  0.57799  0.91305  1.0000
  H   H2764     1.0  0.03066  0.59198  0.97534  1.0000
  H   H2765     1.0  0.23973  0.55084  0.92055  1.0000
  C   C1720     1.0  0.20033  0.48631  0.92682  1.0000
  H   H2766     1.0  0.24668  0.52568  0.93944  1.0000
  H   H2767     1.0  0.30760  0.55146  0.82598  1.0000
  H   H2768     1.0  0.31183  0.62945  0.92402  1.0000
  C   C1721     1.0  0.13185  0.56550  0.96799  1.0000
  C   C1722     1.0  0.28841  0.84480  0.97494  1.0000
  H   H2769     1.0  0.05196  0.61980  0.81378  1.0000
  Fe  Fe360     1.0  0.39772  0.73241  0.96684  1.0000
  H   H2770     1.0  0.27411  0.94734  0.86402  1.0000
  H   H2771     1.0  0.32660  0.98275  0.80427  1.0000
  Fe  Fe361     1.0  0.38528  0.76004  0.94290  1.0000
  S   S711      1.0  0.36050  0.76136  0.95625  1.0000
  S   S712      1.0  0.39234  0.77566  0.91973  1.0000
  H   H2772     1.0  0.34405  0.94073  0.80540  1.0000
  Fe  Fe362     1.0  0.36653  0.73540  0.95957  1.0000
  S   S713      1.0  0.34883  0.72572  0.95470  1.0000
  S   S714      1.0  0.39463  0.75820  0.96358  1.0000
  S   S715      1.0  0.39073  0.73424  0.94464  1.0000
  C   C1723     1.0  0.10355  0.57231  0.97087  1.0000
  S   S716      1.0  0.48311  0.81063  0.94510  1.0000
  H   H2773     1.0  0.25033  0.55335  0.90079  1.0000
  H   H2774     1.0  0.22077  0.48972  0.97527  1.0000
  H   H2775     1.0  0.48719  0.73284  0.80816  1.0000
  Fe  Fe363     1.0  0.39315  0.64648  0.88580  1.0000
  S   S717      1.0  0.38112  0.63451  0.90904  1.0000
  S   S718      1.0  0.41785  0.63469  0.87656  1.0000
  Fe  Fe364     1.0  0.36622  0.67434  0.88383  1.0000
  S   S719      1.0  0.35195  0.66485  0.90708  1.0000
  S   S720      1.0  0.35591  0.69791  0.87082  1.0000
  Fe  Fe365     1.0  0.37459  0.65800  0.91493  1.0000
  S   S721      1.0  0.37966  0.66028  0.93674  1.0000
  Fe  Fe366     1.0  0.35969  0.64232  0.89890  1.0000
  S   S722      1.0  0.34240  0.62670  0.90533  1.0000
  S   S723      1.0  0.38818  0.66947  0.89239  1.0000
  S   S724      1.0  0.37234  0.65235  0.87492  1.0000
  Fe  Fe367     1.0  0.29430  0.94334  0.82457  1.0000
  H   H2776     1.0  0.31185  0.70243  0.84585  1.0000
  Fe  Fe368     1.0  0.31130  0.90920  0.83149  1.0000
  C   C1724     1.0  0.17208  0.60794  0.87774  1.0000
  Fe  Fe369     1.0  0.27812  0.91908  0.84847  1.0000
  S   S725      1.0  0.26375  0.91720  0.87291  1.0000
  Fe  Fe370     1.0  0.28522  0.91870  0.81429  1.0000
  N   N174      1.0  0.25894  0.53165  0.91566  1.0000
  S   S726      1.0  0.28994  0.89994  0.83538  1.0000
  H   H2777     1.0  0.24456  0.63972  0.84517  1.0000
  H   H2778     1.0  0.24672  0.67528  0.85601  1.0000
  H   H2779     1.0  0.03442  0.66192  0.88139  1.0000
  C   C1725     1.0  0.27332  0.78633  0.78355  1.0000
  S   S727      1.0  0.29639  0.96854  0.81748  1.0000
  Fe  Fe371     1.0  0.24052  0.73293  0.86152  1.0000
  S   S728      1.0  0.26297  0.71843  0.85048  1.0000
  S   S729      1.0  0.21648  0.72810  0.86690  1.0000
  Fe  Fe372     1.0  0.25696  0.75382  0.86890  1.0000
  S   S730      1.0  0.28079  0.74092  0.85907  1.0000
  S   S731      1.0  0.25239  0.77630  0.87657  1.0000
  Fe  Fe373     1.0  0.27024  0.74128  0.83965  1.0000
  S   S732      1.0  0.28556  0.74789  0.81616  1.0000
  Fe  Fe374     1.0  0.27159  0.71921  0.87084  1.0000
  S   S733      1.0  0.28491  0.69649  0.88269  1.0000
  S   S734      1.0  0.24688  0.75584  0.84859  1.0000
  S   S735      1.0  0.24868  0.73209  0.88275  1.0000
  Fe  Fe375     1.0  0.31213  0.82338  0.91614  1.0000
  S   S736      1.0  0.33490  0.82795  0.90046  1.0000
  Fe  Fe376     1.0  0.27702  0.83333  0.92040  1.0000
  S   S737      1.0  0.25724  0.84903  0.90966  1.0000
  Fe  Fe377     1.0  0.29241  0.79898  0.92577  1.0000
  S   S738      1.0  0.29348  0.77508  0.92266  1.0000
  S   S739      1.0  0.29535  0.81871  0.90517  1.0000
  H   H2780     1.0  0.21831  0.65451  0.84131  1.0000
  C   C1726     1.0  0.24377  0.97547  0.87682  1.0000
  H   H2781     1.0  0.27234  0.56750  0.82726  1.0000
  S   S740      1.0  0.27957  0.91585  0.79295  1.0000
  Fe  Fe378     1.0  0.19946  0.52813  0.94481  1.0000
  S   S741      1.0  0.21353  0.54360  0.94690  1.0000
  S   S742      1.0  0.21118  0.50921  0.93150  1.0000
  C   C1727     1.0  0.48252  0.71111  0.93957  1.0000
  C   C1728     1.0  0.33045  0.97963  0.79265  1.0000
  Fe  Fe379     1.0  0.19175  0.56232  0.94487  1.0000
  S   S743      1.0  0.19476  0.58462  0.92759  1.0000
  H   H2782     1.0  0.12895  0.67592  0.77965  1.0000
  S   S744      1.0  0.17834  0.54713  0.94087  1.0000
  H   H2783     1.0  0.41289  0.59171  0.87540  1.0000
  C   C1729     1.0  0.33366  0.60250  0.87188  1.0000
  C   C1730     1.0  0.23773  0.67712  0.84920  1.0000
  S   S745      1.0  0.47651  0.66436  0.89970  1.0000
  C   C1731     1.0  0.35615  0.96613  0.79725  1.0000
  S   S746      1.0  0.16413  0.68430  0.81948  1.0000
  H   H2784     1.0  0.06754  0.57239  0.95219  1.0000
  H   H2785     1.0  0.27245  0.53211  0.89229  1.0000
  N   N175      1.0  0.23343  0.66234  0.85030  1.0000
  H   H2786     1.0  0.23717  0.54022  0.90799  1.0000
  C   C1732     1.0  0.19727  0.50208  0.92717  1.0000
  C   C1733     1.0  0.18297  0.51186  0.92452  1.0000
  C   C1734     1.0  0.17159  0.50576  0.92195  1.0000
  H   H2787     1.0  0.25092  0.98266  0.87863  1.0000
  H   H2788     1.0  0.05072  0.56388  0.96129  1.0000
  H   H2789     1.0  0.41299  0.65325  0.92521  1.0000
  H   H2790     1.0  0.18066  0.52412  0.92438  1.0000
  H   H2791     1.0  0.16045  0.51331  0.92015  1.0000
  H   H2792     1.0  0.44886  0.75312  0.95513  1.0000
  H   H2793     1.0  0.06382  0.60274  0.82351  1.0000
  H   H2794     1.0  0.41326  0.69533  0.90925  1.0000
  H   H2795     1.0  0.05852  0.67599  0.80865  1.0000
  H   H2796     1.0  0.43514  0.75622  0.91316  1.0000
  H   H2797     1.0  0.26879  0.54085  0.83439  1.0000
  H   H2798     1.0  0.23922  0.96840  0.88842  1.0000
  S   S747      1.0  0.10260  0.62239  0.96628  1.0000
  H   H2799     1.0  0.26422  0.54453  0.92929  1.0000
  H   H2800     1.0  0.12488  0.65482  0.97250  1.0000
  N   N176      1.0  0.49107  0.71624  0.82930  1.0000
  H   H2801     1.0  0.29213  0.54820  0.79395  1.0000
  C   C1735     1.0  0.24751  0.65095  0.84458  1.0000
  H   H2802     1.0  0.30609  0.66245  0.92761  1.0000
  C   C1736     1.0  0.29802  0.64803  0.90093  1.0000
  H   H2803     1.0  0.09148  0.59900  0.79595  1.0000
  H   H2804     1.0  0.05981  0.65726  0.88894  1.0000
  C   C1737     1.0  0.26389  0.77579  0.88936  1.0000
  C   C1738     1.0  0.27393  0.76193  0.89497  1.0000
  C   C1739     1.0  0.28294  0.76176  0.90526  1.0000
  C   C1740     1.0  0.28198  0.77545  0.90991  1.0000
  C   C1741     1.0  0.27190  0.78928  0.90431  1.0000
  C   C1742     1.0  0.26285  0.78944  0.89409  1.0000
  H   H2805     1.0  0.27478  0.75133  0.89143  1.0000
  H   H2806     1.0  0.29068  0.75102  0.90959  1.0000
  H   H2807     1.0  0.27098  0.79987  0.90793  1.0000
  H   H2808     1.0  0.25507  0.80019  0.88984  1.0000
  C   C1743     1.0  0.31170  0.87706  0.78662  1.0000
  C   C1744     1.0  0.29897  0.54552  0.80308  1.0000
  C   C1745     1.0  0.25882  0.76379  0.80592  1.0000
  C   C1746     1.0  0.27480  0.76277  0.80405  1.0000
  C   C1747     1.0  0.28208  0.77398  0.79281  1.0000
  H   H2809     1.0  0.43255  0.92553  0.78537  1.0000
  H   H2810     1.0  0.14309  0.56872  0.96353  1.0000
  H   H2811     1.0  0.25319  0.75504  0.81445  1.0000
  H   H2812     1.0  0.06429  0.63778  0.79119  1.0000
  H   H2813     1.0  0.99266  0.57277  0.81260  1.0000
  C   C1748     1.0  0.26280  0.89798  0.88289  1.0000
  C   C1749     1.0  0.26105  0.89396  0.89910  1.0000
  C   C1750     1.0  0.25996  0.87872  0.90732  1.0000
  C   C1751     1.0  0.26027  0.86757  0.89935  1.0000
  C   C1752     1.0  0.26211  0.87157  0.88313  1.0000
  C   C1753     1.0  0.26361  0.88670  0.87487  1.0000
  H   H2814     1.0  0.26039  0.90266  0.90534  1.0000
  H   H2815     1.0  0.25835  0.87570  0.91987  1.0000
  H   H2816     1.0  0.26213  0.86301  0.87699  1.0000
  H   H2817     1.0  0.26470  0.88980  0.86239  1.0000
  C   C1754     1.0  0.43987  0.75851  0.94795  1.0000
  C   C1755     1.0  0.24430  0.60539  0.85811  1.0000
  C   C1756     1.0  0.22689  0.48554  0.89056  1.0000
  C   C1757     1.0  0.24330  0.95605  0.86376  1.0000
  C   C1758     1.0  0.25874  0.87883  0.81022  1.0000
  C   C1759     1.0  0.26571  0.89108  0.80930  1.0000
  C   C1760     1.0  0.34087  0.70785  0.83405  1.0000
  C   C1761     1.0  0.29830  0.54463  0.82981  1.0000
  H   H2818     1.0  0.25565  0.87103  0.82133  1.0000
  H   H2819     1.0  0.26800  0.89266  0.81966  1.0000
  C   C1762     1.0  0.37085  0.91666  0.79797  1.0000
  C   C1763     1.0  0.37148  0.91374  0.81363  1.0000
  C   C1764     1.0  0.36056  0.90631  0.82522  1.0000
  C   C1765     1.0  0.34876  0.90224  0.82116  1.0000
  C   C1766     1.0  0.34806  0.90530  0.80550  1.0000
  C   C1767     1.0  0.35926  0.91230  0.79388  1.0000
  H   H2820     1.0  0.38045  0.91710  0.81681  1.0000
  H   H2821     1.0  0.36104  0.90403  0.83735  1.0000
  C   C1768     1.0  0.33616  0.69784  0.87402  1.0000
  C   C1769     1.0  0.32461  0.71144  0.87557  1.0000
  C   C1770     1.0  0.30876  0.71103  0.87854  1.0000
  C   C1771     1.0  0.30456  0.69714  0.87947  1.0000
  C   C1772     1.0  0.31617  0.68368  0.87755  1.0000
  C   C1773     1.0  0.33193  0.68396  0.87508  1.0000
  H   H2822     1.0  0.32790  0.72214  0.87495  1.0000
  H   H2823     1.0  0.29982  0.72136  0.88042  1.0000
  H   H2824     1.0  0.31308  0.67303  0.87782  1.0000
  H   H2825     1.0  0.34083  0.67347  0.87372  1.0000
  C   C1774     1.0  0.44834  0.67027  0.86495  1.0000
  C   C1775     1.0  0.45415  0.65459  0.87139  1.0000
  C   C1776     1.0  0.44497  0.64353  0.87452  1.0000
  C   C1777     1.0  0.42986  0.64822  0.87156  1.0000
  C   C1778     1.0  0.42412  0.66389  0.86512  1.0000
  C   C1779     1.0  0.43339  0.67485  0.86168  1.0000
  H   H2826     1.0  0.46571  0.65097  0.87391  1.0000
  H   H2827     1.0  0.44946  0.63143  0.87952  1.0000
  H   H2828     1.0  0.33897  0.90212  0.80234  1.0000
  H   H2829     1.0  0.42884  0.68695  0.85670  1.0000
  C   C1780     1.0  0.37679  0.79104  0.91472  1.0000
  C   C1781     1.0  0.36365  0.79554  0.92612  1.0000
  C   C1782     1.0  0.35076  0.80697  0.92182  1.0000
  C   C1783     1.0  0.35113  0.81412  0.90613  1.0000
  C   C1784     1.0  0.36450  0.81005  0.89479  1.0000
  C   C1785     1.0  0.37729  0.79846  0.89907  1.0000
  H   H2830     1.0  0.36354  0.79054  0.93826  1.0000
  H   H2831     1.0  0.34073  0.81055  0.93068  1.0000
  H   H2832     1.0  0.36487  0.81567  0.88265  1.0000
  H   H2833     1.0  0.38747  0.79512  0.89023  1.0000
  C   C1786     1.0  0.35740  0.70757  0.94967  1.0000
  C   C1787     1.0  0.37040  0.69794  0.95538  1.0000
  C   C1788     1.0  0.37696  0.68327  0.95162  1.0000
  C   C1789     1.0  0.37096  0.67849  0.94162  1.0000
  C   C1790     1.0  0.35821  0.68828  0.93561  1.0000
  C   C1791     1.0  0.35124  0.70269  0.93988  1.0000
  H   H2834     1.0  0.37514  0.70163  0.96302  1.0000
  H   H2835     1.0  0.38673  0.67566  0.95640  1.0000
  H   H2836     1.0  0.35350  0.68462  0.92794  1.0000
  H   H2837     1.0  0.34113  0.71004  0.93552  1.0000
  H   H2838     1.0  0.33106  0.75183  0.97531  1.0000
  C   C1792     1.0  0.04368  0.58793  0.93780  1.0000
  H   H2839     1.0  0.23299  0.96358  0.85911  1.0000
  H   H2840     1.0  0.25650  0.64821  0.85161  1.0000
  S   S748      1.0  0.28632  0.59678  0.86981  1.0000
  C   C1793     1.0  0.25253  0.52025  0.92922  1.0000
  C   C1794     1.0  0.12671  0.68400  0.95793  1.0000
  C   C1795     1.0  0.29954  0.63583  0.92764  1.0000
  H   H2841     1.0  0.06228  0.60410  0.80408  1.0000
  H   H2842     1.0  0.26254  0.94675  0.88337  1.0000
  H   H2843     1.0  0.23356  0.98363  0.87240  1.0000
  S   S749      1.0  0.18187  0.55906  0.97070  1.0000
  Fe  Fe380     1.0  0.48438  0.68391  0.90347  1.0000
  H   H2844     1.0  0.13926  0.51227  0.96672  1.0000
  H   H2845     1.0  0.11875  0.58820  0.95843  1.0000
  N   N177      1.0  0.15666  0.49137  0.97231  1.0000
  H   H2846     1.0  0.25005  0.94836  0.85549  1.0000
  H   H2847     1.0  0.47187  0.84232  0.94805  1.0000
  H   H2848     1.0  0.27661  0.67051  0.91365  1.0000
  Fe  Fe381     1.0  0.28024  0.57626  0.88853  1.0000
  S   S750      1.0  0.27274  0.81310  0.94045  1.0000
  H   H2849     1.0  0.31911  0.65534  0.91115  1.0000
  H   H2850     1.0  0.41255  0.66755  0.86261  1.0000
  H   H2851     1.0  0.40003  0.58683  0.86665  1.0000
  C   C1796     1.0  0.11810  0.57653  0.96514  1.0000
  C   C1797     1.0  0.02892  0.61250  0.80193  1.0000
  C   C1798     1.0  0.24734  0.58121  0.91679  1.0000
  C   C1799     1.0  0.23941  0.58592  0.90462  1.0000
  C   C1800     1.0  0.22308  0.58764  0.90793  1.0000
  C   C1801     1.0  0.21478  0.58438  0.92340  1.0000
  C   C1802     1.0  0.22272  0.57974  0.93553  1.0000
  C   C1803     1.0  0.23896  0.57831  0.93224  1.0000
  H   H2852     1.0  0.24587  0.58813  0.89270  1.0000
  H   H2853     1.0  0.21698  0.59101  0.89853  1.0000
  H   H2854     1.0  0.21634  0.57721  0.94750  1.0000
  H   H2855     1.0  0.24506  0.57467  0.94168  1.0000
  C   C1804     1.0  0.48361  0.70710  0.92555  1.0000
  H   H2856     1.0  0.25297  0.65539  0.83220  1.0000
  C   C1805     1.0  0.34618  0.62085  0.87624  1.0000
  C   C1806     1.0  0.33871  0.61816  0.89200  1.0000
  C   C1807     1.0  0.32836  0.60799  0.89755  1.0000
  C   C1808     1.0  0.32572  0.60030  0.88750  1.0000
  H   H2857     1.0  0.29178  0.62804  0.92837  1.0000
  H   H2858     1.0  0.35381  0.62900  0.87173  1.0000
  H   H2859     1.0  0.32254  0.60581  0.90973  1.0000
  H   H2860     1.0  0.31787  0.59233  0.89192  1.0000
  C   C1809     1.0  0.20588  0.70764  0.83167  1.0000
  C   C1810     1.0  0.19631  0.70702  0.84662  1.0000
  C   C1811     1.0  0.19964  0.71336  0.85734  1.0000
  C   C1812     1.0  0.21268  0.72011  0.85327  1.0000
  C   C1813     1.0  0.22242  0.72048  0.83842  1.0000
  C   C1814     1.0  0.21893  0.71439  0.82760  1.0000
  H   H2861     1.0  0.18611  0.70204  0.84978  1.0000
  H   H2862     1.0  0.19203  0.71311  0.86880  1.0000
  H   H2863     1.0  0.23246  0.72574  0.83515  1.0000
  H   H2864     1.0  0.22633  0.71493  0.81603  1.0000
  S   S751      1.0  0.33432  0.89429  0.83570  1.0000
  H   H2865     1.0  0.22497  0.61217  0.87651  1.0000
  C   C1815     1.0  0.26970  0.90118  0.79496  1.0000
  H   H2866     1.0  0.24928  0.98311  0.84531  1.0000
  C   C1816     1.0  0.34675  0.96091  0.77742  1.0000
  C   C1817     1.0  0.25982  0.88678  0.78252  1.0000
  C   C1818     1.0  0.48976  0.84840  0.95494  1.0000
  C   C1819     1.0  0.02907  0.61730  0.78598  1.0000
  H   H2867     1.0  0.23896  0.94820  0.87493  1.0000
  C   C1820     1.0  0.15970  0.64913  0.78992  1.0000
  S   S752      1.0  0.06560  0.62837  0.96501  1.0000
  H   H2868     1.0  0.26191  0.51013  0.93278  1.0000
  C   C1821     1.0  0.12974  0.65110  0.90973  1.0000
  C   C1822     1.0  0.14377  0.65470  0.90029  1.0000
  C   C1823     1.0  0.14447  0.66239  0.88466  1.0000
  C   C1824     1.0  0.13107  0.66691  0.87848  1.0000
  C   C1825     1.0  0.11688  0.66371  0.88809  1.0000
  C   C1826     1.0  0.11624  0.65566  0.90368  1.0000
  H   H2869     1.0  0.15419  0.65130  0.90497  1.0000
  H   H2870     1.0  0.15537  0.66497  0.87748  1.0000
  H   H2871     1.0  0.10646  0.66721  0.88340  1.0000
  H   H2872     1.0  0.10534  0.65292  0.91094  1.0000
  H   H2873     1.0  0.30015  0.95638  0.84947  1.0000
  C   C1827     1.0  0.26660  0.89909  0.78162  1.0000
  C   C1828     1.0  0.40511  0.95942  0.78627  1.0000
  H   H2874     1.0  0.34989  0.61470  0.85415  1.0000
  S   S753      1.0  0.48342  0.69869  0.87960  1.0000
  H   H2875     1.0  0.27550  0.54627  0.90972  1.0000
  H   H2876     1.0  0.44997  0.73052  0.92681  1.0000
  C   C1829     1.0  0.03946  0.66899  0.87002  1.0000
  C   C1830     1.0  0.43266  0.66875  0.90349  1.0000
  C   C1831     1.0  0.14753  0.64552  0.80258  1.0000
  S   S754      1.0  0.41973  0.71631  0.97299  1.0000
  N   N178      1.0  0.05659  0.66325  0.86543  1.0000
  S   S755      1.0  0.30002  0.92674  0.84625  1.0000
  H   H2877     1.0  0.02302  0.65276  0.81006  1.0000
  H   H2878     1.0  0.47172  0.71357  0.84895  1.0000
  C   C1832     1.0  0.04252  0.61845  0.90097  1.0000
  C   C1833     1.0  0.05668  0.61431  0.90587  1.0000
  C   C1834     1.0  0.06017  0.62391  0.91344  1.0000
  C   C1835     1.0  0.04948  0.63769  0.91623  1.0000
  C   C1836     1.0  0.03542  0.64196  0.91111  1.0000
  C   C1837     1.0  0.03194  0.63238  0.90346  1.0000
  H   H2879     1.0  0.06499  0.60364  0.90377  1.0000
  H   H2880     1.0  0.07119  0.62071  0.91700  1.0000
  H   H2881     1.0  0.02711  0.65264  0.91320  1.0000
  H   H2882     1.0  0.02093  0.63558  0.89982  1.0000
  C   C1838     1.0  0.03142  0.59660  0.80903  1.0000
  C   C1839     1.0  0.03382  0.58555  0.80018  1.0000
  H   H2883     1.0  0.26649  0.96793  0.84219  1.0000
  H   H2884     1.0  0.14247  0.60875  0.89485  1.0000
  H   H2885     1.0  0.39496  0.61726  0.87701  1.0000
  N   N179      1.0  0.29598  0.65090  0.91657  1.0000
  H   H2886     1.0  0.03585  0.57323  0.80563  1.0000
  S   S756      1.0  0.30775  0.92641  0.80937  1.0000
  C   C1840     1.0  0.42167  0.93356  0.79007  1.0000
  H   H2887     1.0  0.29103  0.54731  0.84112  1.0000
  H   H2888     1.0  0.23521  0.49248  0.88214  1.0000
  H   H2889     1.0  0.30012  0.96968  0.86965  1.0000
  H   H2890     1.0  0.45379  0.72957  0.94524  1.0000
  C   C1841     1.0  0.03358  0.59036  0.78431  1.0000
  H   H2891     1.0  0.33146  0.95476  0.81643  1.0000
  C   C1842     1.0  0.47419  0.71692  0.83599  1.0000
  H   H2892     1.0  0.03618  0.59884  0.93235  1.0000
  H   H2893     1.0  0.43922  0.68799  0.91713  1.0000
  N   N180      1.0  0.32742  0.71367  0.82637  1.0000
  C   C1843     1.0  0.26717  0.52387  0.90254  1.0000
  C   C1844     1.0  0.49157  0.82292  0.95041  1.0000
  H   H2894     1.0  0.46877  0.75101  0.93125  1.0000
  H   H2895     1.0  0.25909  0.51921  0.89879  1.0000
  C   C1845     1.0  0.27707  0.53850  0.82337  1.0000
  H   H2896     1.0  0.30539  0.53307  0.80423  1.0000
  H   H2897     1.0  0.35875  0.91450  0.78179  1.0000
  S   S757      1.0  0.29170  0.81399  0.97398  1.0000
  H   H2898     1.0  0.30378  0.67249  0.90831  1.0000
  C   C1846     1.0  0.34385  0.61284  0.86628  1.0000
  S   S758      1.0  0.26325  0.48916  0.85263  1.0000
  H   H2899     1.0  0.09269  0.59817  0.81543  1.0000
  H   H2900     1.0  0.27120  0.65202  0.92241  1.0000
  H   H2901     1.0  0.05425  0.64555  0.85543  1.0000
  H   H2902     1.0  0.40460  0.68780  0.92918  1.0000
  H   H2903     1.0  0.31047  0.64281  0.89616  1.0000
  C   C1847     1.0  0.22893  0.61271  0.86412  1.0000
  C   C1848     1.0  0.27962  0.65906  0.92181  1.0000
  N   N181      1.0  0.25569  0.80547  0.82882  1.0000
  C   C1849     1.0  0.26953  0.79245  0.83017  1.0000
  C   C1850     1.0  0.25786  0.81524  0.81285  1.0000
  C   C1851     1.0  0.25373  0.81509  0.84011  1.0000
  C   C1852     1.0  0.24160  0.79907  0.83218  1.0000
  H   H2904     1.0  0.26827  0.78490  0.84213  1.0000
  H   H2905     1.0  0.28042  0.79681  0.82758  1.0000
  H   H2906     1.0  0.27127  0.78487  0.82193  1.0000
  H   H2907     1.0  0.24770  0.82530  0.81144  1.0000
  H   H2908     1.0  0.26843  0.82023  0.80983  1.0000
  H   H2909     1.0  0.25920  0.80841  0.80403  1.0000
  H   H2910     1.0  0.24339  0.82505  0.83939  1.0000
  H   H2911     1.0  0.26415  0.82012  0.83787  1.0000
  H   H2912     1.0  0.25209  0.80806  0.85231  1.0000
  H   H2913     1.0  0.24283  0.79156  0.82399  1.0000
  H   H2914     1.0  0.23096  0.80857  0.83102  1.0000
  H   H2915     1.0  0.23951  0.79182  0.84424  1.0000
  H   H2916     1.0  0.31816  0.70721  0.81049  1.0000
  C   C1853     1.0  0.05249  0.67156  0.80274  1.0000
  H   H2917     1.0  0.48862  0.79813  0.90710  1.0000
  S   S759      1.0  0.26874  0.59697  0.83467  1.0000
  C   C1854     1.0  0.48335  0.83828  0.95078  1.0000
  H   H2918     1.0  0.46699  0.72885  0.83265  1.0000
  C   C1855     1.0  0.05689  0.67341  0.78651  1.0000
  C   C1856     1.0  0.04903  0.66792  0.77875  1.0000
  C   C1857     1.0  0.28047  0.56504  0.81619  1.0000
  S   S760      1.0  0.19044  0.52154  0.97046  1.0000
  H   H2919     1.0  0.27150  0.53458  0.86524  1.0000
  C   C1858     1.0  0.27010  0.53798  0.91986  1.0000
  H   H2920     1.0  0.45889  0.76903  0.92084  1.0000
  C   C1859     1.0  0.09131  0.60619  0.80403  1.0000
  S   S761      1.0  0.08611  0.58555  0.96741  1.0000
  H   H2921     1.0  0.15907  0.51446  0.95931  1.0000
  H   H2922     1.0  0.32789  0.69105  0.82333  1.0000
  N   N182      1.0  0.44431  0.75268  0.93345  1.0000
  C   C1860     1.0  0.43219  0.76032  0.92420  1.0000
  C   C1861     1.0  0.45955  0.75623  0.92434  1.0000
  C   C1862     1.0  0.44560  0.73561  0.93736  1.0000
  S   S762      1.0  0.11820  0.63543  0.78245  1.0000
  C   C1863     1.0  0.26795  0.51432  0.86005  1.0000
  H   H2923     1.0  0.29445  0.77322  0.79136  1.0000
  C   C1864     1.0  0.32822  0.70313  0.81638  1.0000
  C   C1865     1.0  0.25595  0.87656  0.79679  1.0000
  S   S763      1.0  0.45918  0.68454  0.86145  1.0000
  C   C1866     1.0  0.31825  0.75694  0.97713  1.0000
  H   H2924     1.0  0.07792  0.62031  0.82820  1.0000
  H   H2925     1.0  0.33919  0.70249  0.80716  1.0000
  H   H2926     1.0  0.43411  0.73255  0.94345  1.0000
  H   H2927     1.0  0.03053  0.65639  0.78132  1.0000
  C   C1867     1.0  0.43321  0.95603  0.77813  1.0000
  H   H2928     1.0  0.26996  0.54066  0.81458  1.0000
  C   C1868     1.0  0.38499  0.61148  0.87952  1.0000
  H   H2929     1.0  0.34062  0.71554  0.84170  1.0000
  C   C1869     1.0  0.21881  0.62098  0.85411  1.0000
  H   H2930     1.0  0.28748  0.84784  0.96290  1.0000
  Fe  Fe382     1.0  0.29144  0.81851  0.94849  1.0000
  Fe  Fe383     1.0  0.17052  0.54199  0.96691  1.0000
  H   H2931     1.0  0.42864  0.75569  0.95531  1.0000
  H   H2932     1.0  0.06028  0.68537  0.85075  1.0000
  C   C1870     1.0  0.06273  0.67288  0.85022  1.0000
  H   H2933     1.0  0.44326  0.65911  0.90402  1.0000
  H   H2934     1.0  0.03337  0.66834  0.86129  1.0000
  C   C1871     1.0  0.48994  0.72264  0.93969  1.0000
  N   N183      1.0  0.34221  0.96471  0.79298  1.0000
  S   S764      1.0  0.47710  0.76891  0.95301  1.0000
  H   H2935     1.0  0.21107  0.67391  0.84469  1.0000
  H   H2936     1.0  0.22736  0.68581  0.85374  1.0000
  C   C1872     1.0  0.27474  0.49928  0.85719  1.0000
  N   N184      1.0  0.38882  0.59501  0.88777  1.0000
  C   C1873     1.0  0.37523  0.58791  0.89083  1.0000
  C   C1874     1.0  0.39256  0.59429  0.90270  1.0000
  H   H2937     1.0  0.36481  0.59391  0.89848  1.0000
  H   H2938     1.0  0.37170  0.58874  0.87986  1.0000
  H   H2939     1.0  0.37778  0.57536  0.89674  1.0000
  H   H2940     1.0  0.37476  0.61821  0.88665  1.0000
  H   H2941     1.0  0.39584  0.58203  0.90915  1.0000
  H   H2942     1.0  0.38233  0.60041  0.91043  1.0000
  H   H2943     1.0  0.40247  0.60001  0.90081  1.0000
  N   N185      1.0  0.16635  0.60815  0.89447  1.0000
  C   C1875     1.0  0.17504  0.61718  0.89879  1.0000
  C   C1876     1.0  0.16885  0.59199  0.90383  1.0000
  H   H2944     1.0  0.18783  0.61184  0.89678  1.0000
  H   H2945     1.0  0.17096  0.61769  0.91133  1.0000
  H   H2946     1.0  0.17363  0.62938  0.89176  1.0000
  H   H2947     1.0  0.14486  0.61634  0.90996  1.0000
  H   H2948     1.0  0.16233  0.58484  0.90108  1.0000
  H   H2949     1.0  0.16493  0.59179  0.91654  1.0000
  H   H2950     1.0  0.18149  0.58609  0.90169  1.0000
  H   H2951     1.0  0.18489  0.60279  0.87497  1.0000
  S   S765      1.0  0.03555  0.66130  0.83167  1.0000
  H   H2952     1.0  0.07711  0.66005  0.87428  1.0000
  H   H2953     1.0  0.06435  0.60078  0.94330  1.0000
  C   C1877     1.0  0.14946  0.61550  0.89752  1.0000
  H   H2954     1.0  0.07279  0.64208  0.86060  1.0000
  H   H2955     1.0  0.07563  0.66887  0.84638  1.0000
  H   H2956     1.0  0.05561  0.63921  0.87543  1.0000
  C   C1878     1.0  0.23942  0.61441  0.83207  1.0000
  H   H2957     1.0  0.46363  0.75147  0.91359  1.0000
  H   H2958     1.0  0.28552  0.86865  0.97645  1.0000
  C   C1879     1.0  0.24598  0.54454  0.91102  1.0000
  S   S766      1.0  0.33166  0.59200  0.85928  1.0000
  N   N186      1.0  0.42484  0.67213  0.91903  1.0000
  C   C1880     1.0  0.03253  0.65842  0.80357  1.0000
  H   H2959     1.0  0.40584  0.57400  0.88388  1.0000
  C   C1881     1.0  0.27681  0.52291  0.86335  1.0000
  C   C1882     1.0  0.33546  0.95212  0.80460  1.0000
  N   N187      1.0  0.28870  0.54842  0.81810  1.0000
  H   H2960     1.0  0.46987  0.70868  0.83209  1.0000
  H   H2961     1.0  0.28281  0.52584  0.82561  1.0000
  C   C1883     1.0  0.29040  0.49277  0.85793  1.0000
  N   N188      1.0  0.04537  0.58886  0.95308  1.0000
  H   H2962     1.0  0.43064  0.77325  0.92116  1.0000
  C   C1884     1.0  0.32789  0.72954  0.81673  1.0000
  H   H2963     1.0  0.30786  0.55286  0.79877  1.0000
  C   C1885     1.0  0.29249  0.51637  0.86415  1.0000
  H   H2964     1.0  0.18091  0.49266  0.96368  1.0000
  H   H2965     1.0  0.21487  0.49307  0.89134  1.0000
  H   H2966     1.0  0.43643  0.67914  0.89509  1.0000
  C   C1886     1.0  0.05248  0.60215  0.95112  1.0000
  H   H2967     1.0  0.43409  0.95726  0.78959  1.0000
  Fe  Fe384     1.0  0.99497  0.62783  0.86040  1.0000
  H   H2968     1.0  0.35312  0.96870  0.80906  1.0000
  C   C1887     1.0  0.17437  0.48982  0.92238  1.0000
  S   S767      1.0  0.47367  0.69339  0.92513  1.0000
  H   H2969     1.0  0.30421  0.53203  0.83213  1.0000
  Fe  Fe385     1.0  0.17499  0.66026  0.81496  1.0000
  H   H2970     1.0  0.27696  0.51399  0.90564  1.0000
  H   H2971     1.0  0.29812  0.63751  0.93957  1.0000
  N   N189      1.0  0.34221  0.76184  0.91523  1.0000
  C   C1888     1.0  0.35935  0.75651  0.91373  1.0000
  C   C1889     1.0  0.33872  0.77558  0.90261  1.0000
  C   C1890     1.0  0.33498  0.76621  0.93041  1.0000
  C   C1891     1.0  0.33574  0.74907  0.91428  1.0000
  H   H2972     1.0  0.36460  0.76580  0.91455  1.0000
  H   H2973     1.0  0.36524  0.75318  0.90237  1.0000
  H   H2974     1.0  0.36230  0.74614  0.92312  1.0000
  H   H2975     1.0  0.34392  0.77276  0.89093  1.0000
  H   H2976     1.0  0.32583  0.77991  0.90354  1.0000
  H   H2977     1.0  0.34341  0.78544  0.90304  1.0000
  H   H2978     1.0  0.32204  0.76992  0.93206  1.0000
  H   H2979     1.0  0.33944  0.77596  0.93144  1.0000
  H   H2980     1.0  0.33747  0.75622  0.94019  1.0000
  H   H2981     1.0  0.34103  0.74531  0.90304  1.0000
  H   H2982     1.0  0.32282  0.75273  0.91530  1.0000
  H   H2983     1.0  0.33795  0.73866  0.92385  1.0000
  Fe  Fe386     1.0  0.47786  0.67817  0.87512  1.0000
  H   H2984     1.0  0.31168  0.72205  0.84605  1.0000
  H   H2985     1.0  0.27766  0.66146  0.93355  1.0000
  C   C1892     1.0  0.22648  0.65593  0.86669  1.0000
  H   H2986     1.0  0.23485  0.65346  0.87434  1.0000
  H   H2987     1.0  0.22304  0.64481  0.86790  1.0000
  H   H2988     1.0  0.21570  0.66418  0.87128  1.0000
  H   H2989     1.0  0.24345  0.61502  0.81967  1.0000
  C   C1893     1.0  0.07703  0.62771  0.81643  1.0000
  H   H2990     1.0  0.25582  0.51943  0.85950  1.0000
  H   H2991     1.0  0.02726  0.62959  0.78049  1.0000
  H   H2992     1.0  0.29439  0.65905  0.89254  1.0000
  H   H2993     1.0  0.42059  0.75776  0.93078  1.0000
  S   S768      1.0  0.27256  0.56564  0.87333  1.0000
  S   S769      1.0  0.31081  0.80238  0.93559  1.0000
  H   H2994     1.0  0.38201  0.61257  0.86822  1.0000
  H   H2995     1.0  0.41176  0.92806  0.79144  1.0000
  C   C1894     1.0  0.06000  0.64681  0.86414  1.0000
  H   H2996     1.0  0.00274  0.58594  0.79726  1.0000
  H   H2997     1.0  0.12721  0.68142  0.97044  1.0000
  C   C1895     1.0  0.17312  0.48450  0.96577  1.0000
  C   C1896     1.0  0.41054  0.68458  0.91777  1.0000
  C   C1897     1.0  0.13094  0.55043  0.97681  1.0000
  H   H2998     1.0  0.31131  0.49610  0.86207  1.0000
  H   H2999     1.0  0.16596  0.60109  0.87406  1.0000
  C   C1898     1.0  0.40251  0.58649  0.87800  1.0000
  H   H3000     1.0  0.14712  0.62754  0.89026  1.0000
  H   H3001     1.0  0.03641  0.68134  0.87117  1.0000
  C   C1899     1.0  0.29919  0.50125  0.86150  1.0000
  N   N190      1.0  0.31342  0.87184  0.88128  1.0000
  C   C1900     1.0  0.31923  0.87210  0.89473  1.0000
  C   C1901     1.0  0.30576  0.88786  0.87446  1.0000
  C   C1902     1.0  0.30198  0.86173  0.88651  1.0000
  C   C1903     1.0  0.32669  0.86567  0.86942  1.0000
  H   H3002     1.0  0.30947  0.87654  0.90396  1.0000
  H   H3003     1.0  0.32786  0.87966  0.89118  1.0000
  H   H3004     1.0  0.32515  0.86020  0.90011  1.0000
  H   H3005     1.0  0.29588  0.89303  0.88315  1.0000
  H   H3006     1.0  0.31420  0.89569  0.86989  1.0000
  H   H3007     1.0  0.30089  0.88800  0.86456  1.0000
  H   H3008     1.0  0.29694  0.86163  0.87679  1.0000
  H   H3009     1.0  0.29211  0.86571  0.89586  1.0000
  H   H3010     1.0  0.30748  0.84945  0.89128  1.0000
  H   H3011     1.0  0.33251  0.85345  0.87402  1.0000
  H   H3012     1.0  0.33576  0.87277  0.86550  1.0000
  H   H3013     1.0  0.32279  0.86578  0.85890  1.0000
  N   N191      1.0  0.21118  0.76477  0.90298  1.0000
  C   C1904     1.0  0.22431  0.75496  0.91024  1.0000
  C   C1905     1.0  0.21357  0.76197  0.88724  1.0000
  C   C1906     1.0  0.21050  0.78141  0.90179  1.0000
  C   C1907     1.0  0.19632  0.76072  0.91267  1.0000
  H   H3014     1.0  0.22520  0.74231  0.91133  1.0000
  H   H3015     1.0  0.22295  0.75685  0.92208  1.0000
  H   H3016     1.0  0.23573  0.75768  0.90321  1.0000
  H   H3017     1.0  0.22467  0.76490  0.87959  1.0000
  H   H3018     1.0  0.21416  0.74951  0.88767  1.0000
  H   H3019     1.0  0.20389  0.76914  0.88141  1.0000
  H   H3020     1.0  0.20082  0.78920  0.89627  1.0000
  H   H3021     1.0  0.22160  0.78480  0.89462  1.0000
  H   H3022     1.0  0.20872  0.78395  0.91345  1.0000
  H   H3023     1.0  0.19414  0.76260  0.92467  1.0000
  H   H3024     1.0  0.19646  0.74824  0.91370  1.0000
  H   H3025     1.0  0.18616  0.76793  0.90756  1.0000
  H   H3026     1.0  0.02186  0.60214  0.95899  1.0000
  C   C1908     1.0  0.13491  0.64104  0.80030  1.0000
  H   H3027     1.0  0.32668  0.73794  0.82400  1.0000
  S   S770      1.0  0.30416  0.52667  0.86826  1.0000
  H   H3028     1.0  0.22654  0.67033  0.82822  1.0000
  H   H3029     1.0  0.47593  0.70529  0.95034  1.0000
  H   H3030     1.0  0.31242  0.86456  0.79252  1.0000
  C   C1909     1.0  0.10085  0.67871  0.96493  1.0000
  Fe  Fe387     1.0  0.49007  0.78515  0.95578  1.0000
  H   H3031     1.0  0.48321  0.86019  0.95540  1.0000
  S   S771      1.0  0.24783  0.86081  0.79795  1.0000
  H   H3032     1.0  0.31884  0.78740  0.96782  1.0000
  C   C1910     1.0  0.30670  0.66071  0.91588  1.0000
  H   H3033     1.0  0.02710  0.62112  0.80862  1.0000
  N   N192      1.0  0.07672  0.61837  0.80572  1.0000
  H   H3034     1.0  0.43003  0.68002  0.93673  1.0000
  C   C1911     1.0  0.25739  0.78716  0.78526  1.0000
  C   C1912     1.0  0.43559  0.67731  0.92503  1.0000
  H   H3035     1.0  0.99737  0.60356  0.81573  1.0000
  H   H3036     1.0  0.31976  0.97893  0.78948  1.0000
  H   H3037     1.0  0.29950  0.88345  0.79053  1.0000
  H   H3038     1.0  0.11509  0.71114  0.77742  1.0000
  H   H3039     1.0  0.43850  0.77139  0.94550  1.0000
  C   C1913     1.0  0.29924  0.96881  0.84660  1.0000
  C   C1914     1.0  0.11642  0.67873  0.93876  1.0000
  H   H3040     1.0  0.42233  0.93402  0.80187  1.0000
  H   H3041     1.0  0.28881  0.57292  0.81281  1.0000
  H   H3042     1.0  0.06181  0.67657  0.87866  1.0000
  S   S772      1.0  0.30469  0.56155  0.88552  1.0000
  H   H3043     1.0  0.17025  0.61999  0.87035  1.0000
  C   C1915     1.0  0.03670  0.66059  0.78728  1.0000
  C   C1916     1.0  0.06417  0.66434  0.87731  1.0000
  S   S773      1.0  0.29414  0.84006  0.92957  1.0000
  H   H3044     1.0  0.45250  0.71097  0.97248  1.0000
  H   H3045     1.0  0.27983  0.52858  0.92383  1.0000
  Fe  Fe388     1.0  0.31037  0.58142  0.86562  1.0000
  H   H3046     1.0  0.43105  0.64837  0.93151  1.0000
  C   C1917     1.0  0.07536  0.62872  0.79035  1.0000
  S   S774      1.0  0.17557  0.65513  0.79207  1.0000
  H   H3047     1.0  0.25214  0.59920  0.86584  1.0000
  H   H3048     1.0  0.11610  0.65083  0.95916  1.0000
  C   C1918     1.0  0.04039  0.66396  0.81131  1.0000
  C   C1919     1.0  0.22405  0.62184  0.83807  1.0000
  H   H3049     1.0  0.44649  0.66817  0.92619  1.0000
  H   H3050     1.0  0.24366  0.51564  0.92659  1.0000
  C   C1920     1.0  0.06313  0.61093  0.81204  1.0000
  S   S775      1.0  0.30569  0.57089  0.84833  1.0000
  S   S776      1.0  0.19803  0.65932  0.81993  1.0000
  C   C1921     1.0  0.42052  0.65784  0.92978  1.0000
  H   H3051     1.0  0.42474  0.66516  0.89847  1.0000
  H   H3052     1.0  0.40189  0.68076  0.91395  1.0000
  H   H3053     1.0  0.12559  0.63808  0.81012  1.0000
  H   H3054     1.0  0.06618  0.63706  0.81788  1.0000
  H   H3055     1.0  0.14793  0.64603  0.81412  1.0000
  Fe  Fe389     1.0  0.29748  0.55247  0.86870  1.0000
  Fe  Fe390     1.0  0.28118  0.58473  0.85416  1.0000
  H   H3056     1.0  0.41379  0.66012  0.94141  1.0000
  C   C1922     1.0  0.24953  0.60617  0.84211  1.0000
  H   H3057     1.0  0.21623  0.62803  0.83030  1.0000
  H   H3058     1.0  0.13046  0.71492  0.78369  1.0000
  S   S777      1.0  0.38411  0.92645  0.78362  1.0000
  H   H3059     1.0  0.06611  0.67945  0.77998  1.0000
  C   C1923     1.0  0.29923  0.97636  0.85803  1.0000
  N   N193      1.0  0.25315  0.96538  0.86585  1.0000
  H   H3060     1.0  0.15106  0.50424  0.95031  1.0000
  C   C1924     1.0  0.25903  0.97520  0.85065  1.0000
  H   H3061     1.0  0.27337  0.56853  0.80718  1.0000
  H   H3062     1.0  0.31814  0.73412  0.81042  1.0000
  H   H3063     1.0  0.31944  0.88164  0.79095  1.0000
  N   N194      1.0  0.11689  0.67488  0.95545  1.0000
  H   H3064     1.0  0.09313  0.67188  0.96359  1.0000
  C   C1925     1.0  0.15128  0.50622  0.96169  1.0000
  H   H3065     1.0  0.40518  0.96059  0.79802  1.0000
  H   H3066     1.0  0.36532  0.95510  0.79734  1.0000
  H   H3067     1.0  0.13894  0.68126  0.95106  1.0000
  H   H3068     1.0  0.48905  0.72571  0.95054  1.0000
  H   H3069     1.0  0.05703  0.57457  0.97135  1.0000
  H   H3070     1.0  0.05524  0.58612  0.92951  1.0000
  C   C1926     1.0  0.25017  0.77586  0.79639  1.0000
  H   H3071     1.0  0.05394  0.60306  0.96248  1.0000
  H   H3072     1.0  0.02404  0.58133  0.96552  1.0000
  H   H3073     1.0  0.26628  0.98262  0.85185  1.0000
  C   C1927     1.0  0.31266  0.71419  0.83832  1.0000
  H   H3074     1.0  0.33905  0.72972  0.80784  1.0000
  H   H3075     1.0  0.30224  0.71860  0.83296  1.0000
  H   H3076     1.0  0.35225  0.70724  0.82543  1.0000
  H   H3077     1.0  0.23786  0.77645  0.79767  1.0000
  H   H3078     1.0  0.13540  0.65450  0.95274  1.0000
  H   H3079     1.0  0.31542  0.76232  0.96547  1.0000
  H   H3080     1.0  0.07542  0.62209  0.78181  1.0000
  H   H3081     1.0  0.08518  0.63490  0.78545  1.0000
  H   H3082     1.0  0.32511  0.95058  0.80152  1.0000
  Fe  Fe391     1.0  0.20252  0.53888  0.97230  1.0000
  C   C1928     1.0  0.05555  0.57425  0.95977  1.0000
  H   H3083     1.0  0.36137  0.97575  0.78889  1.0000
  Fe  Fe392     1.0  0.08092  0.64125  0.96967  1.0000
  C   C1929     1.0  0.26653  0.95480  0.87221  1.0000
  H   H3084     1.0  0.12294  0.69767  0.79330  1.0000
  H   H3085     1.0  0.14966  0.68185  0.78853  1.0000
  H   H3086     1.0  0.03824  0.57810  0.93882  1.0000
  C   C1930     1.0  0.02978  0.59116  0.96371  1.0000
  H   H3087     1.0  0.12834  0.67590  0.93129  1.0000
  H   H3088     1.0  0.49005  0.71277  0.80737  1.0000
  H   H3089     1.0  0.10933  0.67187  0.93644  1.0000
  C   C1931     1.0  0.12364  0.65804  0.96020  1.0000
  H   H3090     1.0  0.39479  0.95461  0.78744  1.0000
  H   H3091     1.0  0.04520  0.61346  0.94612  1.0000
  H   H3092     1.0  0.27395  0.96140  0.87444  1.0000
  N   N195      1.0  0.41977  0.94925  0.77966  1.0000
  C   C1932     1.0  0.12606  0.70557  0.78175  1.0000
  H   H3093     1.0  0.12199  0.69677  0.95438  1.0000
  H   H3094     1.0  0.11125  0.69130  0.93473  1.0000
  H   H3095     1.0  0.40336  0.97139  0.77873  1.0000
  C   C1933     1.0  0.13423  0.64058  0.78531  1.0000
  H   H3096     1.0  0.08719  0.63348  0.81193  1.0000
  H   H3097     1.0  0.15760  0.69864  0.77826  1.0000
  H   H3098     1.0  0.03553  0.58177  0.77750  1.0000
  Fe  Fe393     1.0  0.60050  0.29104  0.13526  1.0000
  S   S778      1.0  0.62309  0.28401  0.11849  1.0000
  S   S779      1.0  0.58432  0.31398  0.12804  1.0000
  Fe  Fe394     1.0  0.60900  0.26381  0.16135  1.0000
  S   S780      1.0  0.63222  0.25478  0.14683  1.0000
  Fe  Fe395     1.0  0.67745  0.34705  0.16865  1.0000
  Fe  Fe396     1.0  0.63408  0.27988  0.13880  1.0000
  S   S781      1.0  0.65690  0.28647  0.13651  1.0000
  Fe  Fe397     1.0  0.61891  0.25968  0.12810  1.0000
  S   S782      1.0  0.62472  0.24081  0.11449  1.0000
  S   S783      1.0  0.61175  0.28853  0.15489  1.0000
  S   S784      1.0  0.59539  0.26704  0.14326  1.0000
  Fe  Fe398     1.0  0.56813  0.08497  0.16948  1.0000
  H   H3099     1.0  0.62132  0.45835  0.99212  1.0000
  C   C1934     1.0  0.49822  0.25200  0.99009  1.0000
  Fe  Fe399     1.0  0.60109  0.08776  0.16569  1.0000
  C   C1935     1.0  0.49478  0.24650  0.00628  1.0000
  S   S785      1.0  0.62231  0.09668  0.15089  1.0000
  H   H3100     1.0  0.55672  0.05437  0.16187  1.0000
  H   H3101     1.0  0.93948  0.47882  0.16482  1.0000
  H   H3102     1.0  0.64365  0.43352  0.99915  1.0000
  C   C1936     1.0  0.54900  0.26042  0.04939  1.0000
  S   S786      1.0  0.59131  0.07048  0.16011  1.0000
  S   S787      1.0  0.84599  0.38786  0.16345  1.0000
  Fe  Fe400     1.0  0.59656  0.16600  0.08541  1.0000
  S   S788      1.0  0.59829  0.18989  0.07045  1.0000
  S   S789      1.0  0.61886  0.14842  0.08855  1.0000
  Fe  Fe401     1.0  0.56163  0.17246  0.08982  1.0000
  S   S790      1.0  0.56044  0.19656  0.07526  1.0000
  S   S791      1.0  0.54037  0.16219  0.09978  1.0000
  Fe  Fe402     1.0  0.58131  0.18618  0.05886  1.0000
  Fe  Fe403     1.0  0.57730  0.19832  0.08817  1.0000
  S   S792      1.0  0.57185  0.22074  0.09658  1.0000
  S   S793      1.0  0.58127  0.16166  0.07241  1.0000
  S   S794      1.0  0.57690  0.17469  0.10418  1.0000
  C   C1937     1.0  0.86324  0.44385  0.17170  1.0000
  H   H3103     1.0  0.68553  0.41433  0.99599  1.0000
  Fe  Fe404     1.0  0.65349  0.45129  0.02848  1.0000
  S   S795      1.0  0.67673  0.45260  0.01197  1.0000
  S   S796      1.0  0.63160  0.45571  0.02005  1.0000
  Fe  Fe405     1.0  0.66657  0.44241  0.05713  1.0000
  S   S797      1.0  0.69091  0.44339  0.04353  1.0000
  S   S798      1.0  0.66241  0.43667  0.08327  1.0000
  Fe  Fe406     1.0  0.67986  0.46508  0.02838  1.0000
  H   H3104     1.0  0.57209  0.46694  0.16435  1.0000
  Fe  Fe407     1.0  0.68592  0.43095  0.02821  1.0000
  S   S799      1.0  0.70407  0.41076  0.02084  1.0000
  S   S800      1.0  0.65579  0.46559  0.04360  1.0000
  S   S801      1.0  0.66246  0.42811  0.04295  1.0000
  S   S802      1.0  0.61634  0.39164  0.11797  1.0000
  H   H3105     1.0  0.77087  0.37706  0.00448  1.0000
  S   S803      1.0  0.70292  0.34099  0.15713  1.0000
  H   H3106     1.0  0.63226  0.44751  0.07188  1.0000
  H   H3107     1.0  0.66947  0.40478  0.00500  1.0000
  C   C1938     1.0  0.49543  0.18194  0.09677  1.0000
  Fe  Fe408     1.0  0.78425  0.35854  0.06875  1.0000
  S   S804      1.0  0.78237  0.38045  0.07629  1.0000
  S   S805      1.0  0.77538  0.33973  0.08808  1.0000
  Fe  Fe409     1.0  0.79976  0.37057  0.03529  1.0000
  S   S806      1.0  0.79945  0.39337  0.04029  1.0000
  S   S807      1.0  0.80938  0.36910  0.01007  1.0000
  Fe  Fe410     1.0  0.80692  0.37920  0.06233  1.0000
  S   S808      1.0  0.82630  0.38397  0.07003  1.0000
  Fe  Fe411     1.0  0.77504  0.39243  0.05379  1.0000
  S   S809      1.0  0.75627  0.41437  0.05155  1.0000
  S   S810      1.0  0.80950  0.35632  0.05622  1.0000
  S   S811      1.0  0.77471  0.37064  0.04728  1.0000
  H   H3108     1.0  0.60307  0.19960  0.15025  1.0000
  S   S812      1.0  0.50657  0.23755  0.06159  1.0000
  C   C1939     1.0  0.62680  0.47524  0.07906  1.0000
  C   C1940     1.0  0.90470  0.40382  0.10961  1.0000
  H   H3109     1.0  0.58959  0.45316  0.16882  1.0000
  Fe  Fe412     1.0  0.49924  0.26050  0.06888  1.0000
  S   S813      1.0  0.97951  0.38906  0.14816  1.0000
  C   C1941     1.0  0.52826  0.18898  0.99949  1.0000
  S   S814      1.0  0.51414  0.27008  0.07815  1.0000
  Fe  Fe413     1.0  0.86922  0.39247  0.14914  1.0000
  C   C1942     1.0  0.75941  0.38558  0.00518  1.0000
  C   C1943     1.0  0.54411  0.19339  0.01436  1.0000
  H   H3110     1.0  0.64827  0.35300  0.14521  1.0000
  C   C1944     1.0  0.50274  0.30005  0.06357  1.0000
  H   H3111     1.0  0.57273  0.24592  0.06441  1.0000
  H   H3112     1.0  0.53954  0.23724  0.04456  1.0000
  H   H3113     1.0  0.73516  0.40550  0.98049  1.0000
  Fe  Fe414     1.0  0.84953  0.37096  0.14833  1.0000
  H   H3114     1.0  0.61059  0.03802  0.16178  1.0000
  S   S815      1.0  0.82790  0.36934  0.14165  1.0000
  C   C1945     1.0  0.62012  0.45461  0.07217  1.0000
  C   C1946     1.0  0.57078  0.23978  0.05642  1.0000
  N   N196      1.0  0.55409  0.24352  0.05571  1.0000
  S   S816      1.0  0.87179  0.37729  0.13273  1.0000
  S   S817      1.0  0.57791  0.10349  0.17294  1.0000
  H   H3115     1.0  0.93502  0.40187  0.09505  1.0000
  H   H3116     1.0  0.55249  0.29971  0.07352  1.0000
  C   C1947     1.0  0.72669  0.47624  0.03685  1.0000
  H   H3117     1.0  0.92560  0.38718  0.13783  1.0000
  S   S818      1.0  0.52327  0.38243  0.10090  1.0000
  Fe  Fe415     1.0  0.50128  0.33417  0.12627  1.0000
  S   S819      1.0  0.51321  0.31232  0.14068  1.0000
  S   S820      1.0  0.58259  0.19539  0.03301  1.0000
  S   S821      1.0  0.51394  0.34257  0.10187  1.0000
  C   C1948     1.0  0.58313  0.15632  0.01980  1.0000
  N   N197      1.0  0.65816  0.35510  0.12061  1.0000
  C   C1949     1.0  0.95278  0.33866  0.13232  1.0000
  H   H3118     1.0  0.56499  0.27463  0.10959  1.0000
  H   H3119     1.0  0.53842  0.28658  0.12311  1.0000
  H   H3120     1.0  0.96294  0.33283  0.12495  1.0000
  H   H3121     1.0  0.78182  0.36391  0.16869  1.0000
  C   C1950     1.0  0.50656  0.29007  0.07726  1.0000
  C   C1951     1.0  0.58662  0.16079  0.00350  1.0000
  C   C1952     1.0  0.75204  0.37588  0.98686  1.0000
  S   S822      1.0  0.87640  0.41542  0.14136  1.0000
  H   H3122     1.0  0.66786  0.40192  0.97920  1.0000
  C   C1953     1.0  0.50462  0.29612  0.09029  1.0000
  H   H3123     1.0  0.61025  0.47271  0.15065  1.0000
  S   S823      1.0  0.53842  0.99528  0.14535  1.0000
  H   H3124     1.0  0.51837  0.18820  0.00985  1.0000
  H   H3125     1.0  0.50714  0.28836  0.10101  1.0000
  H   H3126     1.0  0.54849  0.22698  0.07723  1.0000
  C   C1954     1.0  0.55111  0.19961  0.98626  1.0000
  C   C1955     1.0  0.82739  0.37423  0.12170  1.0000
  C   C1956     1.0  0.84081  0.37628  0.11008  1.0000
  C   C1957     1.0  0.84022  0.37956  0.09428  1.0000
  C   C1958     1.0  0.82626  0.38072  0.08997  1.0000
  C   C1959     1.0  0.81275  0.37890  0.10158  1.0000
  C   C1960     1.0  0.81334  0.37565  0.11740  1.0000
  H   H3127     1.0  0.85170  0.37517  0.11323  1.0000
  H   H3128     1.0  0.85070  0.38099  0.08537  1.0000
  H   H3129     1.0  0.80188  0.38003  0.09838  1.0000
  H   H3130     1.0  0.80287  0.37425  0.12632  1.0000
  C   C1961     1.0  0.78915  0.34439  0.98557  1.0000
  C   C1962     1.0  0.78659  0.34067  0.00189  1.0000
  C   C1963     1.0  0.79264  0.34822  0.00963  1.0000
  C   C1964     1.0  0.80156  0.35927  0.00102  1.0000
  C   C1965     1.0  0.80424  0.36281  0.98471  1.0000
  Fe  Fe416     1.0  0.50670  0.36602  0.10809  1.0000
  H   H3131     1.0  0.77976  0.33209  0.00859  1.0000
  H   H3132     1.0  0.79056  0.34539  0.02222  1.0000
  C   C1966     1.0  0.65440  0.34076  0.11959  1.0000
  H   H3133     1.0  0.51710  0.09744  0.15288  1.0000
  C   C1967     1.0  0.72490  0.36154  0.10875  1.0000
  C   C1968     1.0  0.73082  0.36484  0.09263  1.0000
  C   C1969     1.0  0.74628  0.35807  0.08634  1.0000
  C   C1970     1.0  0.75577  0.34753  0.09605  1.0000
  C   C1971     1.0  0.74973  0.34379  0.11214  1.0000
  C   C1972     1.0  0.73435  0.35096  0.11852  1.0000
  H   H3134     1.0  0.72354  0.37278  0.08496  1.0000
  H   H3135     1.0  0.75079  0.36083  0.07391  1.0000
  H   H3136     1.0  0.75704  0.33567  0.11971  1.0000
  C   C1973     1.0  0.52536  0.37976  0.13106  1.0000
  C   C1974     1.0  0.52869  0.38763  0.11548  1.0000
  C   C1975     1.0  0.53630  0.40004  0.11143  1.0000
  C   C1976     1.0  0.54043  0.40465  0.12290  1.0000
  H   H3137     1.0  0.51995  0.36989  0.13426  1.0000
  H   H3138     1.0  0.53891  0.40619  0.09939  1.0000
  H   H3139     1.0  0.54619  0.41431  0.11969  1.0000
  C   C1977     1.0  0.72002  0.41112  0.02771  1.0000
  C   C1978     1.0  0.72748  0.39768  0.03687  1.0000
  C   C1979     1.0  0.73883  0.39857  0.04406  1.0000
  C   C1980     1.0  0.74281  0.41286  0.04194  1.0000
  C   C1981     1.0  0.73555  0.42623  0.03253  1.0000
  C   C1982     1.0  0.72427  0.42532  0.02530  1.0000
  H   H3140     1.0  0.72398  0.38675  0.03902  1.0000
  H   H3141     1.0  0.74391  0.38836  0.05184  1.0000
  H   H3142     1.0  0.73849  0.43733  0.03094  1.0000
  H   H3143     1.0  0.71856  0.43574  0.01816  1.0000
  C   C1983     1.0  0.65129  0.42246  0.09292  1.0000
  C   C1984     1.0  0.64724  0.41886  0.10923  1.0000
  C   C1985     1.0  0.63684  0.40897  0.11703  1.0000
  C   C1986     1.0  0.63067  0.40250  0.10854  1.0000
  C   C1987     1.0  0.63530  0.40546  0.09233  1.0000
  C   C1988     1.0  0.64549  0.41550  0.08456  1.0000
  H   H3144     1.0  0.65166  0.42417  0.11583  1.0000
  H   H3145     1.0  0.63345  0.40652  0.12963  1.0000
  H   H3146     1.0  0.63048  0.40054  0.08572  1.0000
  H   H3147     1.0  0.64837  0.41818  0.07211  1.0000
  C   C1989     1.0  0.61537  0.19968  0.17398  1.0000
  H   H3148     1.0  0.76805  0.40724  0.97986  1.0000
  C   C1990     1.0  0.53071  0.09653  0.16906  1.0000
  H   H3149     1.0  0.50184  0.40868  0.13515  1.0000
  Fe  Fe417     1.0  0.98109  0.36325  0.15245  1.0000
  C   C1991     1.0  0.52476  0.98744  0.16103  1.0000
  H   H3150     1.0  0.70696  0.46630  0.03993  1.0000
  H   H3151     1.0  0.62347  0.18992  0.14712  1.0000
  H   H3152     1.0  0.56376  0.30862  0.09015  1.0000
  H   H3153     1.0  0.55915  0.23746  0.03344  1.0000
  H   H3154     1.0  0.61280  0.46265  0.10790  1.0000
  N   N198      1.0  0.61567  0.46489  0.08336  1.0000
  C   C1992     1.0  0.64609  0.47691  0.99792  1.0000
  C   C1993     1.0  0.63539  0.46741  0.00139  1.0000
  C   C1994     1.0  0.49706  0.31611  0.06289  1.0000
  N   N199      1.0  0.61765  0.20946  0.15801  1.0000
  H   H3155     1.0  0.55183  0.02111  0.17646  1.0000
  H   H3156     1.0  0.64987  0.47902  0.00720  1.0000
  H   H3157     1.0  0.53534  0.17693  0.99908  1.0000
  H   H3158     1.0  0.63326  0.32420  0.17024  1.0000
  C   C1995     1.0  0.52279  0.17603  0.09805  1.0000
  C   C1996     1.0  0.52205  0.19199  0.09578  1.0000
  C   C1997     1.0  0.50818  0.20295  0.09342  1.0000
  H   H3159     1.0  0.79537  0.37666  0.16201  1.0000
  H   H3160     1.0  0.66970  0.09274  0.17160  1.0000
  C   C1998     1.0  0.50935  0.17100  0.09890  1.0000
  H   H3161     1.0  0.53203  0.19593  0.09607  1.0000
  H   H3162     1.0  0.50766  0.21526  0.09167  1.0000
  H   H3163     1.0  0.82724  0.43870  0.17323  1.0000
  H   H3164     1.0  0.50980  0.15868  0.10084  1.0000
  C   C1999     1.0  0.62044  0.11116  0.13377  1.0000
  C   C2000     1.0  0.60584  0.11947  0.13044  1.0000
  C   C2001     1.0  0.60507  0.13118  0.11667  1.0000
  C   C2002     1.0  0.61892  0.13435  0.10619  1.0000
  C   C2003     1.0  0.63339  0.12594  0.10956  1.0000
  C   C2004     1.0  0.63415  0.11452  0.12332  1.0000
  H   H3165     1.0  0.59521  0.11689  0.13846  1.0000
  H   H3166     1.0  0.59385  0.13757  0.11405  1.0000
  H   H3167     1.0  0.64411  0.12830  0.10152  1.0000
  H   H3168     1.0  0.64544  0.10815  0.12578  1.0000
  H   H3169     1.0  0.54903  0.05726  0.14505  1.0000
  S   S824      1.0  0.70586  0.37127  0.11633  1.0000
  S   S825      1.0  0.61027  0.99355  0.14221  1.0000
  C   C2005     1.0  0.65726  0.30003  0.14675  1.0000
  C   C2006     1.0  0.67165  0.30283  0.14671  1.0000
  C   C2007     1.0  0.64342  0.30800  0.15502  1.0000
  H   H3170     1.0  0.68240  0.29675  0.14028  1.0000
  C   C2008     1.0  0.50253  0.10599  0.17311  1.0000
  C   C2009     1.0  0.53253  0.31337  0.13910  1.0000
  C   C2010     1.0  0.53781  0.32691  0.13060  1.0000
  C   C2011     1.0  0.55369  0.32709  0.12759  1.0000
  C   C2012     1.0  0.56432  0.31385  0.13337  1.0000
  C   C2013     1.0  0.55896  0.30055  0.14254  1.0000
  C   C2014     1.0  0.54306  0.30029  0.14536  1.0000
  H   H3171     1.0  0.52972  0.33720  0.12610  1.0000
  H   H3172     1.0  0.55777  0.33736  0.12038  1.0000
  H   H3173     1.0  0.56703  0.29041  0.14730  1.0000
  H   H3174     1.0  0.53897  0.28987  0.15214  1.0000
  C   C2015     1.0  0.60983  0.23532  0.10975  1.0000
  C   C2016     1.0  0.61388  0.22296  0.10206  1.0000
  C   C2017     1.0  0.60231  0.21817  0.09822  1.0000
  C   C2018     1.0  0.58661  0.22580  0.10196  1.0000
  C   C2019     1.0  0.58252  0.23804  0.10981  1.0000
  C   C2020     1.0  0.59408  0.24279  0.11372  1.0000
  H   H3175     1.0  0.62605  0.21711  0.09898  1.0000
  H   H3176     1.0  0.60559  0.20872  0.09218  1.0000
  H   H3177     1.0  0.57035  0.24376  0.11297  1.0000
  H   H3178     1.0  0.59082  0.25225  0.11971  1.0000
  S   S826      1.0  0.67255  0.37059  0.15282  1.0000
  H   H3179     1.0  0.93242  0.37088  0.11788  1.0000
  S   S827      1.0  0.60188  0.42638  0.13953  1.0000
  C   C2021     1.0  0.67013  0.43880  0.97789  1.0000
  C   C2022     1.0  0.60010  0.99743  0.17249  1.0000
  H   H3180     1.0  0.61685  0.02257  0.14158  1.0000
  C   C2023     1.0  0.55198  0.23465  0.04545  1.0000
  H   H3181     1.0  0.49344  0.38378  0.14863  1.0000
  S   S828      1.0  0.57705  0.46561  0.12034  1.0000
  H   H3182     1.0  0.57496  0.22704  0.06094  1.0000
  H   H3183     1.0  0.57837  0.24301  0.04472  1.0000
  H   H3184     1.0  0.55558  0.22185  0.04981  1.0000
  N   N200      1.0  0.70859  0.41472  0.08712  1.0000
  C   C2024     1.0  0.70945  0.43015  0.07663  1.0000
  C   C2025     1.0  0.72448  0.40607  0.08919  1.0000
  C   C2026     1.0  0.70201  0.40584  0.08022  1.0000
  C   C2027     1.0  0.69839  0.41682  0.10242  1.0000
  H   H3185     1.0  0.69760  0.43706  0.07507  1.0000
  H   H3186     1.0  0.71687  0.42893  0.06490  1.0000
  H   H3187     1.0  0.71458  0.43710  0.08131  1.0000
  H   H3188     1.0  0.72414  0.39484  0.09787  1.0000
  H   H3189     1.0  0.73221  0.40330  0.07808  1.0000
  H   H3190     1.0  0.73021  0.41287  0.09342  1.0000
  H   H3191     1.0  0.70090  0.39425  0.08798  1.0000
  H   H3192     1.0  0.70951  0.40383  0.06876  1.0000
  H   H3193     1.0  0.69012  0.41215  0.07829  1.0000
  H   H3194     1.0  0.70301  0.42340  0.10803  1.0000
  H   H3195     1.0  0.69740  0.40537  0.11058  1.0000
  H   H3196     1.0  0.68630  0.42330  0.10130  1.0000
  H   H3197     1.0  0.62800  0.44803  0.09991  1.0000
  H   H3198     1.0  0.78424  0.42335  0.05085  1.0000
  C   C2028     1.0  0.58140  0.16700  0.02893  1.0000
  H   H3199     1.0  0.76319  0.36702  0.98544  1.0000
  H   H3200     1.0  0.66824  0.42371  0.00793  1.0000
  Fe  Fe418     1.0  0.57941  0.44021  0.13275  1.0000
  C   C2029     1.0  0.61122  0.01796  0.15341  1.0000
  H   H3201     1.0  0.65973  0.37794  0.10642  1.0000
  C   C2030     1.0  0.86503  0.42722  0.15442  1.0000
  C   C2031     1.0  0.56083  0.27845  0.09849  1.0000
  C   C2032     1.0  0.93223  0.40135  0.10779  1.0000
  H   H3202     1.0  0.84320  0.42263  0.15410  1.0000
  H   H3203     1.0  0.64236  0.34306  0.11767  1.0000
  C   C2033     1.0  0.58666  0.18674  0.00551  1.0000
  H   H3204     1.0  0.81120  0.37128  0.97800  1.0000
  C   C2034     1.0  0.54282  0.29728  0.08374  1.0000
  H   H3205     1.0  0.67557  0.34295  0.13418  1.0000
  H   H3206     1.0  0.67757  0.36217  0.12334  1.0000
  C   C2035     1.0  0.53494  0.28962  0.11173  1.0000
  Fe  Fe419     1.0  0.49478  0.25037  0.04179  1.0000
  C   C2036     1.0  0.94135  0.35574  0.15048  1.0000
  S   S829      1.0  0.65850  0.33340  0.17523  1.0000
  S   S830      1.0  0.58422  0.39700  0.15564  1.0000
  H   H3207     1.0  0.66524  0.36273  0.09577  1.0000
  Fe  Fe420     1.0  0.88399  0.35853  0.14988  1.0000
  H   H3208     1.0  0.90164  0.41595  0.11148  1.0000
  N   N201      1.0  0.78291  0.44776  0.04069  1.0000
  C   C2037     1.0  0.79761  0.44476  0.02892  1.0000
  C   C2038     1.0  0.76942  0.44963  0.03384  1.0000
  C   C2039     1.0  0.78163  0.46219  0.04571  1.0000
  H   H3209     1.0  0.79792  0.45453  0.01845  1.0000
  H   H3210     1.0  0.79894  0.43388  0.02497  1.0000
  H   H3211     1.0  0.80804  0.44330  0.03370  1.0000
  H   H3212     1.0  0.75816  0.45129  0.04258  1.0000
  H   H3213     1.0  0.77023  0.43917  0.02943  1.0000
  H   H3214     1.0  0.76857  0.46001  0.02398  1.0000
  H   H3215     1.0  0.78177  0.47244  0.03568  1.0000
  H   H3216     1.0  0.79142  0.46116  0.05122  1.0000
  H   H3217     1.0  0.77042  0.46502  0.05426  1.0000
  N   N202      1.0  0.62419  0.14499  0.04220  1.0000
  C   C2040     1.0  0.61235  0.13613  0.05225  1.0000
  C   C2041     1.0  0.63931  0.13791  0.04696  1.0000
  C   C2042     1.0  0.61909  0.16138  0.04391  1.0000
  C   C2043     1.0  0.62599  0.14453  0.02576  1.0000
  H   H3218     1.0  0.60078  0.14110  0.04900  1.0000
  H   H3219     1.0  0.61066  0.13631  0.06475  1.0000
  H   H3220     1.0  0.61585  0.12369  0.05133  1.0000
  H   H3221     1.0  0.64851  0.14436  0.03975  1.0000
  H   H3222     1.0  0.63822  0.13806  0.05937  1.0000
  H   H3223     1.0  0.64354  0.12553  0.04584  1.0000
  H   H3224     1.0  0.62762  0.16849  0.03633  1.0000
  H   H3225     1.0  0.61785  0.16216  0.05612  1.0000
  H   H3226     1.0  0.60758  0.16705  0.04072  1.0000
  H   H3227     1.0  0.63495  0.15096  0.01785  1.0000
  H   H3228     1.0  0.61482  0.15001  0.02177  1.0000
  H   H3229     1.0  0.62955  0.13233  0.02406  1.0000
  N   N203      1.0  0.81520  0.33237  0.10474  1.0000
  C   C2044     1.0  0.81921  0.32194  0.11928  1.0000
  C   C2045     1.0  0.81325  0.32303  0.09485  1.0000
  C   C2046     1.0  0.82791  0.34071  0.09627  1.0000
  C   C2047     1.0  0.80040  0.34379  0.10859  1.0000
  H   H3230     1.0  0.82079  0.32867  0.12698  1.0000
  H   H3231     1.0  0.83032  0.31315  0.11682  1.0000
  H   H3232     1.0  0.80982  0.31553  0.12598  1.0000
  H   H3233     1.0  0.81022  0.33057  0.08380  1.0000
  H   H3234     1.0  0.82412  0.31419  0.09175  1.0000
  H   H3235     1.0  0.80353  0.31682  0.10076  1.0000
  H   H3236     1.0  0.82499  0.34923  0.08556  1.0000
  H   H3237     1.0  0.83912  0.33252  0.09262  1.0000
  H   H3238     1.0  0.83013  0.34738  0.10363  1.0000
  H   H3239     1.0  0.79732  0.35220  0.09793  1.0000
  H   H3240     1.0  0.80119  0.35063  0.11655  1.0000
  H   H3241     1.0  0.79039  0.33796  0.11434  1.0000
  H   H3242     1.0  0.54470  0.31625  0.10101  1.0000
  H   H3243     1.0  0.59594  0.48235  0.09137  1.0000
  H   H3244     1.0  0.65508  0.33171  0.13048  1.0000
  C   C2048     1.0  0.55264  0.02661  0.14594  1.0000
  H   H3245     1.0  0.64893  0.37258  0.13442  1.0000
  C   C2049     1.0  0.79228  0.36622  0.17091  1.0000
  H   H3246     1.0  0.73103  0.46781  0.04644  1.0000
  H   H3247     1.0  0.58829  0.19845  0.99992  1.0000
  H   H3248     1.0  0.68337  0.31528  0.15523  1.0000
  H   H3249     1.0  0.98482  0.41279  0.17090  1.0000
  H   H3250     1.0  0.52503  0.30005  0.11197  1.0000
  H   H3251     1.0  0.64266  0.20097  0.15295  1.0000
  Fe  Fe421     1.0  0.97583  0.38449  0.17424  1.0000
  H   H3252     1.0  0.66273  0.33562  0.10991  1.0000
  Fe  Fe422     1.0  0.70698  0.35293  0.17378  1.0000
  N   N204      1.0  0.75419  0.38991  0.99033  1.0000
  N   N205      1.0  0.54226  0.14012  0.14380  1.0000
  C   C2050     1.0  0.53490  0.15687  0.14290  1.0000
  C   C2051     1.0  0.53283  0.13282  0.13830  1.0000
  C   C2052     1.0  0.54300  0.13237  0.16013  1.0000
  C   C2053     1.0  0.55831  0.13834  0.13398  1.0000
  H   H3253     1.0  0.54178  0.16280  0.14680  1.0000
  H   H3254     1.0  0.52279  0.15855  0.15021  1.0000
  H   H3255     1.0  0.53401  0.16312  0.13078  1.0000
  H   H3256     1.0  0.52079  0.13350  0.14571  1.0000
  H   H3257     1.0  0.53171  0.13862  0.12612  1.0000
  H   H3258     1.0  0.53828  0.12027  0.13844  1.0000
  H   H3259     1.0  0.54886  0.11983  0.16110  1.0000
  H   H3260     1.0  0.53108  0.13296  0.16783  1.0000
  H   H3261     1.0  0.59094  0.46698  0.08650  1.0000
  H   H3262     1.0  0.55823  0.14395  0.12155  1.0000
  H   H3263     1.0  0.56414  0.12580  0.13447  1.0000
  H   H3264     1.0  0.98024  0.46159  0.17075  1.0000
  C   C2054     1.0  0.52925  0.38451  0.14256  1.0000
  Fe  Fe423     1.0  0.58654  0.41787  0.16236  1.0000
  H   H3265     1.0  0.74003  0.41197  0.99501  1.0000
  N   N206      1.0  0.58054  0.36365  0.12857  1.0000
  C   C2055     1.0  0.57664  0.38075  0.12284  1.0000
  C   C2056     1.0  0.59087  0.35969  0.13965  1.0000
  C   C2057     1.0  0.58864  0.35616  0.11524  1.0000
  C   C2058     1.0  0.56598  0.35805  0.13654  1.0000
  H   H3266     1.0  0.56890  0.38412  0.11441  1.0000
  H   H3267     1.0  0.58732  0.38544  0.11682  1.0000
  H   H3268     1.0  0.57048  0.38679  0.13259  1.0000
  H   H3269     1.0  0.60184  0.36402  0.13410  1.0000
  H   H3270     1.0  0.58500  0.36506  0.14991  1.0000
  H   H3271     1.0  0.59417  0.34683  0.14405  1.0000
  H   H3272     1.0  0.59940  0.36052  0.10869  1.0000
  H   H3273     1.0  0.58092  0.35844  0.10696  1.0000
  H   H3274     1.0  0.59220  0.34327  0.11916  1.0000
  H   H3275     1.0  0.55778  0.36108  0.12859  1.0000
  H   H3276     1.0  0.55965  0.36340  0.14674  1.0000
  H   H3277     1.0  0.56846  0.34512  0.14080  1.0000
  S   S831      1.0  0.54864  0.08956  0.15724  1.0000
  H   H3278     1.0  0.79284  0.43284  0.05994  1.0000
  C   C2059     1.0  0.52818  0.21529  0.99987  1.0000
  H   H3279     1.0  0.53643  0.26351  0.04871  1.0000
  S   S832      1.0  0.50718  0.24757  0.01742  1.0000
  H   H3280     1.0  0.93675  0.32928  0.12614  1.0000
  H   H3281     1.0  0.52659  0.37839  0.15460  1.0000
  H   H3282     1.0  0.59675  0.47435  0.17660  1.0000
  H   H3283     1.0  0.63583  0.21963  0.14112  1.0000
  C   C2060     1.0  0.60219  0.47849  0.14302  1.0000
  S   S833      1.0  0.56412  0.43294  0.15616  1.0000
  H   H3284     1.0  0.55041  0.03421  0.13462  1.0000
  H   H3285     1.0  0.62395  0.18825  0.17471  1.0000
  H   H3286     1.0  0.50858  0.25669  0.98451  1.0000
  H   H3287     1.0  0.61963  0.46145  0.06010  1.0000
  C   C2061     1.0  0.64833  0.42629  0.99020  1.0000
  C   C2062     1.0  0.63376  0.21213  0.15306  1.0000
  H   H3288     1.0  0.96520  0.31863  0.16320  1.0000
  N   N207      1.0  0.54819  0.29271  0.09852  1.0000
  H   H3289     1.0  0.55979  0.01509  0.14358  1.0000
  C   C2063     1.0  0.57717  0.45819  0.17385  1.0000
  C   C2064     1.0  0.84881  0.42850  0.15903  1.0000
  H   H3290     1.0  0.59399  0.22306  0.16174  1.0000
  H   H3291     1.0  0.64440  0.41511  0.99537  1.0000
  C   C2065     1.0  0.55414  0.30551  0.10017  1.0000
  H   H3292     1.0  0.66567  0.44698  0.98596  1.0000
  N   N208      1.0  0.53792  0.19933  0.00000  1.0000
  H   H3293     1.0  0.80228  0.35619  0.16878  1.0000
  H   H3294     1.0  0.60799  0.23114  0.16552  1.0000
  H   H3295     1.0  0.53039  0.27976  0.11112  1.0000
  C   C2066     1.0  0.87222  0.43506  0.16061  1.0000
  H   H3296     1.0  0.55676  0.26858  0.09713  1.0000
  S   S834      1.0  0.59002  0.14667  0.99251  1.0000
  H   H3297     1.0  0.55885  0.30217  0.11088  1.0000
  H   H3298     1.0  0.93009  0.41346  0.10943  1.0000
  C   C2067     1.0  0.65255  0.48303  0.98241  1.0000
  N   N209      1.0  0.66558  0.42367  0.98533  1.0000
  C   C2068     1.0  0.61610  0.45525  0.09920  1.0000
  H   H3299     1.0  0.55149  0.18135  0.01482  1.0000
  H   H3300     1.0  0.56579  0.14375  0.13772  1.0000
  N   N210      1.0  0.56065  0.03357  0.15340  1.0000
  H   H3301     1.0  0.59107  0.17960  0.98378  1.0000
  H   H3302     1.0  0.59937  0.45702  0.14008  1.0000
  C   C2069     1.0  0.53691  0.39687  0.13850  1.0000
  H   H3303     1.0  0.57115  0.28039  0.08884  1.0000
  C   C2070     1.0  0.93794  0.33663  0.13300  1.0000
  C   C2071     1.0  0.67222  0.31334  0.15512  1.0000
  H   H3304     1.0  0.95965  0.47355  0.15508  1.0000
  C   C2072     1.0  0.58816  0.17612  0.99635  1.0000
  H   H3305     1.0  0.57046  0.01144  0.16673  1.0000
  H   H3306     1.0  0.65281  0.07928  0.16507  1.0000
  H   H3307     1.0  0.58355  0.02425  0.14075  1.0000
  C   C2073     1.0  0.78297  0.43446  0.05429  1.0000
  H   H3308     1.0  0.72990  0.34840  0.13098  1.0000
  H   H3309     1.0  0.55596  0.26411  0.03747  1.0000
  H   H3310     1.0  0.55013  0.26751  0.05695  1.0000
  C   C2074     1.0  0.54457  0.23934  0.07159  1.0000
  H   H3311     1.0  0.57457  0.04350  0.13164  1.0000
  H   H3312     1.0  0.77184  0.43606  0.06322  1.0000
  H   H3313     1.0  0.53204  0.24114  0.07153  1.0000
  H   H3314     1.0  0.54527  0.24642  0.07939  1.0000
  C   C2075     1.0  0.60758  0.02677  0.16480  1.0000
  H   H3315     1.0  0.90527  0.38835  0.13922  1.0000
  H   H3316     1.0  0.75086  0.38014  0.01499  1.0000
  H   H3317     1.0  0.68305  0.34649  0.11345  1.0000
  H   H3318     1.0  0.61714  0.20853  0.13496  1.0000
  H   H3319     1.0  0.57847  0.16348  0.04146  1.0000
  H   H3320     1.0  0.55152  0.20089  0.01511  1.0000
  S   S835      1.0  0.97367  0.35029  0.13910  1.0000
  H   H3321     1.0  0.91216  0.40586  0.13504  1.0000
  Fe  Fe424     1.0  0.59749  0.40691  0.13216  1.0000
  H   H3322     1.0  0.64417  0.10718  0.16394  1.0000
  H   H3323     1.0  0.60784  0.44727  0.10294  1.0000
  C   C2076     1.0  0.61522  0.20148  0.14715  1.0000
  C   C2077     1.0  0.67251  0.41629  0.99915  1.0000
  C   C2078     1.0  0.95457  0.34826  0.14093  1.0000
  H   H3324     1.0  0.63227  0.30634  0.15474  1.0000
  C   C2079     1.0  0.58351  0.18214  0.02182  1.0000
  H   H3325     1.0  0.55883  0.20710  0.98635  1.0000
  C   C2080     1.0  0.60627  0.22460  0.15778  1.0000
  C   C2081     1.0  0.59604  0.46955  0.13700  1.0000
  S   S836      1.0  0.88306  0.37422  0.16503  1.0000
  S   S837      1.0  0.57637  0.42144  0.12297  1.0000
  Fe  Fe425     1.0  0.69834  0.36531  0.14248  1.0000
  C   C2082     1.0  0.64704  0.36124  0.13386  1.0000
  C   C2083     1.0  0.51681  0.09971  0.16396  1.0000
  C   C2084     1.0  0.71302  0.47539  0.03316  1.0000
  H   H3326     1.0  0.58177  0.14452  0.02538  1.0000
  C   C2085     1.0  0.67429  0.35147  0.12300  1.0000
  H   H3327     1.0  0.62371  0.48316  0.08729  1.0000
  S   S838      1.0  0.70431  0.37676  0.15813  1.0000
  H   H3328     1.0  0.50441  0.29548  0.05340  1.0000
  H   H3329     1.0  0.60746  0.23213  0.14584  1.0000
  C   C2086     1.0  0.65838  0.32091  0.16377  1.0000
  H   H3330     1.0  0.91613  0.35962  0.15831  1.0000
  H   H3331     1.0  0.56916  0.02793  0.17441  1.0000
  C   C2087     1.0  0.95176  0.47796  0.16539  1.0000
  H   H3332     1.0  0.54117  0.02452  0.15348  1.0000
  C   C2088     1.0  0.62992  0.46536  0.98943  1.0000
  H   H3333     1.0  0.94286  0.39442  0.11229  1.0000
  Fe  Fe426     1.0  0.56312  0.41282  0.14710  1.0000
  S   S839      1.0  0.54194  0.40223  0.15319  1.0000
  H   H3334     1.0  0.89418  0.39881  0.11553  1.0000
  C   C2089     1.0  0.92463  0.34432  0.14215  1.0000
  N   N211      1.0  0.91854  0.39434  0.11590  1.0000
  H   H3335     1.0  0.74336  0.37028  0.99634  1.0000
  H   H3336     1.0  0.64273  0.27677  0.16990  1.0000
  H   H3337     1.0  0.90667  0.40451  0.09692  1.0000
  S   S840      1.0  0.86203  0.35059  0.16405  1.0000
  C   C2090     1.0  0.63911  0.40114  0.17070  1.0000
  H   H3338     1.0  0.92406  0.37814  0.10098  1.0000
  C   C2091     1.0  0.92633  0.35382  0.15102  1.0000
  H   H3339     1.0  0.94269  0.36307  0.15727  1.0000
  C   C2092     1.0  0.92188  0.37828  0.11351  1.0000
  S   S841      1.0  0.90629  0.34205  0.14144  1.0000
  H   H3340     1.0  0.76825  0.28481  0.98021  1.0000
  C   C2093     1.0  0.91531  0.39390  0.13273  1.0000
  H   H3341     1.0  0.63606  0.21806  0.16101  1.0000
  H   H3342     1.0  0.91191  0.37250  0.11980  1.0000
  H   H3343     1.0  0.53498  0.22347  0.00038  1.0000
  Fe  Fe427     1.0  0.67890  0.37955  0.17002  1.0000
  C   C2094     1.0  0.49493  0.19794  0.09366  1.0000
  C   C2095     1.0  0.60714  0.00346  0.15713  1.0000
  H   H3344     1.0  0.72979  0.39641  0.00062  1.0000
  H   H3345     1.0  0.53329  0.30805  0.08342  1.0000
  H   H3346     1.0  0.52338  0.22019  0.98915  1.0000
  C   C2096     1.0  0.59967  0.47444  0.08305  1.0000
  H   H3347     1.0  0.86885  0.44977  0.17658  1.0000
  H   H3348     1.0  0.53814  0.28792  0.08217  1.0000
  C   C2097     1.0  0.64400  0.31823  0.16367  1.0000
  C   C2098     1.0  0.56312  0.02307  0.16843  1.0000
  C   C2099     1.0  0.58549  0.47682  0.12727  1.0000
  H   H3349     1.0  0.63897  0.46836  0.07935  1.0000
  C   C2100     1.0  0.55098  0.04891  0.15615  1.0000
  H   H3350     1.0  0.53448  0.19306  0.02499  1.0000
  H   H3351     1.0  0.52316  0.19332  0.98894  1.0000
  C   C2101     1.0  0.76609  0.39666  0.97760  1.0000
  H   H3352     1.0  0.63470  0.36332  0.13291  1.0000
  C   C2102     1.0  0.57596  0.03562  0.14309  1.0000
  H   H3353     1.0  0.51804  0.21549  0.01003  1.0000
  C   C2103     1.0  0.73915  0.40149  0.99167  1.0000
  C   C2104     1.0  0.65696  0.36695  0.10600  1.0000
  H   H3354     1.0  0.64264  0.43249  0.98019  1.0000
  H   H3355     1.0  0.96089  0.44683  0.17108  1.0000
  H   H3356     1.0  0.64491  0.37002  0.10387  1.0000
  C   C2105     1.0  0.62286  0.40513  0.17165  1.0000
  H   H3357     1.0  0.53930  0.04783  0.16381  1.0000
  H   H3358     1.0  0.76087  0.39592  0.00834  1.0000
  H   H3359     1.0  0.55849  0.18768  0.98588  1.0000
  H   H3360     1.0  0.61221  0.44635  0.07535  1.0000
  H   H3361     1.0  0.61816  0.40227  0.16344  1.0000
  H   H3362     1.0  0.64683  0.39549  0.16162  1.0000
  H   H3363     1.0  0.54975  0.13775  0.16480  1.0000
  C   C2106     1.0  0.83978  0.43765  0.16976  1.0000
  H   H3364     1.0  0.88475  0.43410  0.15706  1.0000
  H   H3365     1.0  0.58240  0.04073  0.14840  1.0000
  H   H3366     1.0  0.98425  0.29316  0.16512  1.0000
  C   C2107     1.0  0.63885  0.10489  0.17666  1.0000
  H   H3367     1.0  0.51640  0.00819  0.17039  1.0000
  S   S842      1.0  0.49559  0.35719  0.13293  1.0000
  H   H3368     1.0  0.59722  0.98610  0.17551  1.0000
  C   C2108     1.0  0.49913  0.31218  0.08956  1.0000
  C   C2109     1.0  0.49532  0.32218  0.07586  1.0000
  C   C2110     1.0  0.96747  0.31959  0.17420  1.0000
  C   C2111     1.0  0.51557  0.99625  0.17199  1.0000
  H   H3369     1.0  0.62689  0.48264  0.06713  1.0000
  C   C2112     1.0  0.84702  0.44517  0.17624  1.0000
  H   H3370     1.0  0.49767  0.31676  0.09967  1.0000
  H   H3371     1.0  0.96532  0.33231  0.17375  1.0000
  H   H3372     1.0  0.49412  0.32384  0.05228  1.0000
  H   H3373     1.0  0.49472  0.39353  0.12045  1.0000
  H   H3374     1.0  0.59885  0.48180  0.07125  1.0000
  N   N212      1.0  0.98364  0.31152  0.17582  1.0000
  C   C2113     1.0  0.98606  0.29479  0.17605  1.0000
  Fe  Fe428     1.0  0.61954  0.14304  0.24011  1.0000
  S   S843      1.0  0.60986  0.16711  0.22765  1.0000
  S   S844      1.0  0.62545  0.12446  0.22617  1.0000
  Fe  Fe429     1.0  0.62081  0.15467  0.26793  1.0000
  S   S845      1.0  0.61120  0.17972  0.25751  1.0000
  S   S846      1.0  0.62627  0.14765  0.29199  1.0000
  Fe  Fe430     1.0  0.59450  0.17005  0.25087  1.0000
  S   S847      1.0  0.56973  0.18316  0.25039  1.0000
  Fe  Fe431     1.0  0.62741  0.17448  0.23526  1.0000
  S   S848      1.0  0.64196  0.19031  0.21756  1.0000
  S   S849      1.0  0.60262  0.14525  0.26299  1.0000
  S   S850      1.0  0.63850  0.15014  0.24610  1.0000
  S   S851      1.0  0.76543  0.45548  0.29052  1.0000
  S   S852      1.0  0.78511  0.43723  0.32619  1.0000
  H   H3375     1.0  0.56865  0.15138  0.25219  1.0000
  H   H3376     1.0  0.84132  0.43971  0.26293  1.0000
  C   C2114     1.0  0.75920  0.32233  0.35381  1.0000
  C   C2115     1.0  0.61894  0.41612  0.19399  1.0000
  H   H3377     1.0  0.88420  0.48352  0.26636  1.0000
  C   C2116     1.0  0.80358  0.37159  0.18923  1.0000
  C   C2117     1.0  0.97759  0.10529  0.35720  1.0000
  C   C2118     1.0  0.52650  0.10224  0.28136  1.0000
  H   H3378     1.0  0.93700  0.43585  0.21231  1.0000
  H   H3379     1.0  0.96345  0.11717  0.32411  1.0000
  H   H3380     1.0  0.58902  0.16085  0.33445  1.0000
  C   C2119     1.0  0.84357  0.20629  0.35778  1.0000
  C   C2120     1.0  0.93649  0.44345  0.23272  1.0000
  H   H3381     1.0  0.73277  0.33630  0.37090  1.0000
  N   N213      1.0  0.68902  0.22621  0.29887  1.0000
  S   S853      1.0  0.59245  0.41807  0.18450  1.0000
  S   S854      1.0  0.93517  0.45279  0.25898  1.0000
  C   C2121     1.0  0.72629  0.37251  0.19086  1.0000
  H   H3382     1.0  0.79464  0.37966  0.36717  1.0000
  C   C2122     1.0  0.90672  0.46133  0.22947  1.0000
  C   C2123     1.0  0.80349  0.48248  0.23487  1.0000
  C   C2124     1.0  0.97626  0.42165  0.21188  1.0000
  S   S855      1.0  0.85987  0.41118  0.25374  1.0000
  C   C2125     1.0  0.60024  0.02089  0.18008  1.0000
  S   S856      1.0  0.97509  0.35929  0.17849  1.0000
  H   H3383     1.0  0.59600  0.44852  0.19401  1.0000
  H   H3384     1.0  0.57394  0.14208  0.30471  1.0000
  Fe  Fe432     1.0  0.57855  0.08837  0.19681  1.0000
  C   C2126     1.0  0.63711  0.21698  0.19523  1.0000
  Fe  Fe433     1.0  0.68557  0.16034  0.35859  1.0000
  S   S857      1.0  0.67763  0.18504  0.34588  1.0000
  C   C2127     1.0  0.98623  0.31320  0.19047  1.0000
  Fe  Fe434     1.0  0.71287  0.15275  0.33269  1.0000
  S   S858      1.0  0.70754  0.17663  0.31782  1.0000
  S   S859      1.0  0.73360  0.13558  0.32286  1.0000
  Fe  Fe435     1.0  0.70327  0.18548  0.33949  1.0000
  S   S860      1.0  0.71127  0.20801  0.33522  1.0000
  Fe  Fe436     1.0  0.68253  0.17438  0.32515  1.0000
  S   S861      1.0  0.67036  0.18361  0.30489  1.0000
  S   S862      1.0  0.71086  0.16156  0.35385  1.0000
  S   S863      1.0  0.68826  0.14964  0.33840  1.0000
  Fe  Fe437     1.0  0.85220  0.46889  0.23200  1.0000
  H   H3385     1.0  0.75627  0.31530  0.36587  1.0000
  H   H3386     1.0  0.70432  0.11897  0.28005  1.0000
  Fe  Fe438     1.0  0.80112  0.06137  0.35126  1.0000
  S   S864      1.0  0.78635  0.05166  0.34175  1.0000
  S   S865      1.0  0.81796  0.07707  0.33780  1.0000
  Fe  Fe439     1.0  0.76782  0.05650  0.36301  1.0000
  S   S866      1.0  0.74216  0.06684  0.36388  1.0000
  Fe  Fe440     1.0  0.79455  0.02894  0.35771  1.0000
  S   S867      1.0  0.80119  0.00478  0.35294  1.0000
  C   C2128     1.0  0.90099  0.39394  0.22022  1.0000
  S   S868      1.0  0.81114  0.03810  0.36514  1.0000
  H   H3387     1.0  0.80271  0.40510  0.33847  1.0000
  S   S869      1.0  0.78430  0.24133  0.34267  1.0000
  N   N214      1.0  0.84325  0.48158  0.30750  1.0000
  H   H3388     1.0  0.59128  0.00141  0.19583  1.0000
  C   C2129     1.0  0.96339  0.11215  0.33667  1.0000
  H   H3389     1.0  0.83815  0.46699  0.29555  1.0000
  Fe  Fe441     1.0  0.76499  0.24143  0.36406  1.0000
  H   H3390     1.0  0.58879  0.14046  0.33913  1.0000
  Fe  Fe442     1.0  0.51824  0.14615  0.32546  1.0000
  S   S870      1.0  0.54125  0.12929  0.32576  1.0000
  S   S871      1.0  0.51557  0.17007  0.30965  1.0000
  Fe  Fe443     1.0  0.53248  0.12370  0.35166  1.0000
  H   H3391     1.0  0.73179  0.35556  0.35861  1.0000
  H   H3392     1.0  0.98784  0.47870  0.30207  1.0000
  H   H3393     1.0  0.77211  0.31914  0.34950  1.0000
  H   H3394     1.0  0.81459  0.46360  0.25982  1.0000
  S   S872      1.0  0.80073  0.46506  0.30067  1.0000
  H   H3395     1.0  0.66359  0.09949  0.18949  1.0000
  H   H3396     1.0  0.75373  0.31850  0.34653  1.0000
  H   H3397     1.0  0.58279  0.45789  0.20907  1.0000
  Fe  Fe444     1.0  0.49456  0.12740  0.24663  1.0000
  S   S873      1.0  0.50614  0.10798  0.23401  1.0000
  S   S874      1.0  0.82322  0.23458  0.35861  1.0000
  C   C2130     1.0  0.50216  0.10906  0.18738  1.0000
  C   C2131     1.0  0.49625  0.16998  0.27904  1.0000
  S   S875      1.0  0.50929  0.14084  0.25130  1.0000
  H   H3398     1.0  0.89023  0.40247  0.21738  1.0000
  S   S876      1.0  0.50625  0.12900  0.32299  1.0000
  H   H3399     1.0  0.94797  0.43651  0.23402  1.0000
  H   H3400     1.0  0.49357  0.06192  0.21628  1.0000
  S   S877      1.0  0.90773  0.45140  0.20360  1.0000
  Fe  Fe445     1.0  0.85069  0.45457  0.20665  1.0000
  H   H3401     1.0  0.82176  0.48090  0.32466  1.0000
  S   S878      1.0  0.87101  0.43463  0.21093  1.0000
  H   H3402     1.0  0.73055  0.33978  0.35124  1.0000
  S   S879      1.0  0.96908  0.46392  0.22531  1.0000
  H   H3403     1.0  0.97775  0.28913  0.18596  1.0000
  N   N215      1.0  0.79479  0.47916  0.25124  1.0000
  H   H3404     1.0  0.96170  0.09999  0.33940  1.0000
  C   C2132     1.0  0.58212  0.16753  0.30630  1.0000
  H   H3405     1.0  0.91076  0.15033  0.34668  1.0000
  Fe  Fe446     1.0  0.75372  0.36104  0.27407  1.0000
  S   S880      1.0  0.74945  0.38664  0.26253  1.0000
  S   S881      1.0  0.74198  0.35031  0.29832  1.0000
  Fe  Fe447     1.0  0.77997  0.35206  0.24740  1.0000
  S   S882      1.0  0.77851  0.37669  0.23393  1.0000
  S   S883      1.0  0.79719  0.33344  0.23612  1.0000
  Fe  Fe448     1.0  0.77572  0.38277  0.25682  1.0000
  S   S884      1.0  0.79155  0.39663  0.25946  1.0000
  Fe  Fe449     1.0  0.75260  0.37821  0.24057  1.0000
  S   S885      1.0  0.73949  0.38886  0.22103  1.0000
  S   S886      1.0  0.77975  0.35771  0.26967  1.0000
  S   S887      1.0  0.75431  0.35310  0.25278  1.0000
  C   C2133     1.0  0.64685  0.07719  0.17763  1.0000
  C   C2134     1.0  0.83707  0.47955  0.29506  1.0000
  C   C2135     1.0  0.97179  0.46665  0.18043  1.0000
  H   H3406     1.0  0.55340  0.47994  0.18500  1.0000
  S   S888      1.0  0.85460  0.36480  0.20390  1.0000
  C   C2136     1.0  0.80834  0.28892  0.28273  1.0000
  Fe  Fe450     1.0  0.77780  0.45775  0.30771  1.0000
  Fe  Fe451     1.0  0.88192  0.45293  0.21297  1.0000
  S   S889      1.0  0.77495  0.27891  0.31239  1.0000
  Fe  Fe452     1.0  0.85994  0.43370  0.23612  1.0000
  C   C2137     1.0  0.83800  0.42320  0.30149  1.0000
  H   H3407     1.0  0.65734  0.27007  0.19751  1.0000
  H   H3408     1.0  0.82944  0.44619  0.28862  1.0000
  C   C2138     1.0  0.98573  0.38830  0.27884  1.0000
  H   H3409     1.0  0.60026  0.11198  0.24899  1.0000
  H   H3410     1.0  0.69895  0.39701  0.20841  1.0000
  C   C2139     1.0  0.61194  0.23506  0.19459  1.0000
  H   H3411     1.0  0.77487  0.35170  0.19673  1.0000
  Fe  Fe453     1.0  0.96066  0.45233  0.25006  1.0000
  H   H3412     1.0  0.89702  0.42157  0.22818  1.0000
  S   S890      1.0  0.86970  0.12618  0.35363  1.0000
  H   H3413     1.0  0.95286  0.11900  0.34334  1.0000
  C   C2140     1.0  0.85128  0.41569  0.27214  1.0000
  Fe  Fe454     1.0  0.85885  0.14998  0.35887  1.0000
  S   S891      1.0  0.84669  0.16836  0.34149  1.0000
  Fe  Fe455     1.0  0.98083  0.47578  0.23556  1.0000
  C   C2141     1.0  0.73570  0.03001  0.36829  1.0000
  N   N216      1.0  0.75364  0.33925  0.35330  1.0000
  H   H3414     1.0  0.74730  0.03322  0.36505  1.0000
  C   C2142     1.0  0.93039  0.44324  0.22035  1.0000
  H   H3415     1.0  0.92511  0.16939  0.34745  1.0000
  H   H3416     1.0  0.77394  0.34128  0.35959  1.0000
  H   H3417     1.0  0.79016  0.29700  0.36492  1.0000
  H   H3418     1.0  0.95727  0.40989  0.21770  1.0000
  S   S892      1.0  0.50382  0.98898  0.22897  1.0000
  H   H3419     1.0  0.83728  0.27782  0.36154  1.0000
  C   C2143     1.0  0.69407  0.36742  0.22146  1.0000
  H   H3420     1.0  0.57261  0.13240  0.24835  1.0000
  C   C2144     1.0  0.82819  0.19759  0.34015  1.0000
  C   C2145     1.0  0.84089  0.18700  0.34565  1.0000
  N   N217      1.0  0.81429  0.30298  0.27353  1.0000
  H   H3421     1.0  0.81313  0.22040  0.33955  1.0000
  H   H3422     1.0  0.82231  0.19436  0.33316  1.0000
  C   C2146     1.0  0.81413  0.08766  0.36413  1.0000
  C   C2147     1.0  0.56344  0.14323  0.24925  1.0000
  H   H3423     1.0  0.55288  0.46125  0.19809  1.0000
  S   S893      1.0  0.87250  0.45019  0.23872  1.0000
  C   C2148     1.0  0.74976  0.33009  0.30229  1.0000
  C   C2149     1.0  0.75928  0.32287  0.29028  1.0000
  C   C2150     1.0  0.76614  0.30693  0.29348  1.0000
  C   C2151     1.0  0.76431  0.29827  0.30882  1.0000
  C   C2152     1.0  0.75451  0.30532  0.32089  1.0000
  C   C2153     1.0  0.74693  0.32117  0.31754  1.0000
  H   H3424     1.0  0.76128  0.32952  0.27846  1.0000
  H   H3425     1.0  0.77303  0.30133  0.28406  1.0000
  H   H3426     1.0  0.75266  0.29850  0.33270  1.0000
  H   H3427     1.0  0.73899  0.32657  0.32673  1.0000
  C   C2154     1.0  0.81419  0.34059  0.22780  1.0000
  C   C2155     1.0  0.81824  0.34985  0.23525  1.0000
  C   C2156     1.0  0.83133  0.35641  0.22821  1.0000
  C   C2157     1.0  0.83981  0.35452  0.21333  1.0000
  C   C2158     1.0  0.83595  0.34501  0.20600  1.0000
  C   C2159     1.0  0.82331  0.33776  0.21340  1.0000
  H   H3428     1.0  0.81127  0.35202  0.24642  1.0000
  H   H3429     1.0  0.83464  0.36330  0.23410  1.0000
  S   S894      1.0  0.60253  0.07393  0.18996  1.0000
  H   H3430     1.0  0.82029  0.33045  0.20771  1.0000
  H   H3431     1.0  0.83785  0.41410  0.20084  1.0000
  H   H3432     1.0  0.57214  0.04933  0.24723  1.0000
  H   H3433     1.0  0.82222  0.36635  0.35940  1.0000
  N   N218      1.0  0.97790  0.11265  0.34058  1.0000
  C   C2160     1.0  0.85995  0.47359  0.30579  1.0000
  H   H3434     1.0  0.82159  0.42714  0.21027  1.0000
  H   H3435     1.0  0.75828  0.33681  0.37577  1.0000
  H   H3436     1.0  0.95658  0.44366  0.19181  1.0000
  H   H3437     1.0  0.62617  0.08622  0.20265  1.0000
  H   H3438     1.0  0.58106  0.14523  0.22046  1.0000
  H   H3439     1.0  0.54316  0.13383  0.23995  1.0000
  C   C2161     1.0  0.96679  0.41371  0.20866  1.0000
  C   C2162     1.0  0.81375  0.15672  0.33093  1.0000
  H   H3440     1.0  0.67578  0.37955  0.24577  1.0000
  C   C2163     1.0  0.64652  0.27939  0.19676  1.0000
  C   C2164     1.0  0.68024  0.38802  0.23522  1.0000
  H   H3441     1.0  0.63940  0.11473  0.18126  1.0000
  Fe  Fe456     1.0  0.77144  0.27024  0.37031  1.0000
  C   C2165     1.0  0.91551  0.45218  0.21872  1.0000
  N   N219      1.0  0.82003  0.14053  0.33863  1.0000
  H   H3442     1.0  0.77800  0.46922  0.24692  1.0000
  C   C2166     1.0  0.92750  0.45225  0.24371  1.0000
  Fe  Fe457     1.0  0.79840  0.24625  0.35650  1.0000
  C   C2167     1.0  0.49690  0.06486  0.23751  1.0000
  C   C2168     1.0  0.53182  0.10852  0.29070  1.0000
  C   C2169     1.0  0.63857  0.08661  0.20147  1.0000
  C   C2170     1.0  0.51995  0.11212  0.26896  1.0000
  C   C2171     1.0  0.51896  0.12822  0.26573  1.0000
  C   C2172     1.0  0.52516  0.13432  0.27449  1.0000
  C   C2173     1.0  0.53137  0.12453  0.28710  1.0000
  C   C2174     1.0  0.58767  0.10552  0.23578  1.0000
  H   H3443     1.0  0.51545  0.10723  0.26213  1.0000
  H   H3444     1.0  0.52488  0.14664  0.27183  1.0000
  H   H3445     1.0  0.53565  0.12941  0.29418  1.0000
  C   C2175     1.0  0.82402  0.08500  0.34999  1.0000
  S   S895      1.0  0.78171  0.06811  0.37107  1.0000
  C   C2176     1.0  0.61277  0.41263  0.18330  1.0000
  H   H3446     1.0  0.63472  0.07655  0.17809  1.0000
  C   C2177     1.0  0.84399  0.09410  0.35595  1.0000
  C   C2178     1.0  0.83884  0.08864  0.34571  1.0000
  H   H3447     1.0  0.77868  0.39301  0.18085  1.0000
  C   C2179     1.0  0.70988  0.12461  0.30508  1.0000
  H   H3448     1.0  0.85571  0.09615  0.35297  1.0000
  H   H3449     1.0  0.84654  0.08670  0.33472  1.0000
  H   H3450     1.0  0.86161  0.46091  0.30636  1.0000
  C   C2180     1.0  0.68125  0.22022  0.31507  1.0000
  C   C2181     1.0  0.58342  0.45315  0.19892  1.0000
  C   C2182     1.0  0.78537  0.99701  0.35363  1.0000
  C   C2183     1.0  0.77239  0.00641  0.34774  1.0000
  C   C2184     1.0  0.76079  0.99958  0.34668  1.0000
  H   H3451     1.0  0.66268  0.37166  0.22959  1.0000
  H   H3452     1.0  0.62215  0.29604  0.18376  1.0000
  H   H3453     1.0  0.77168  0.01883  0.34337  1.0000
  H   H3454     1.0  0.75113  0.00676  0.34146  1.0000
  C   C2185     1.0  0.72330  0.21101  0.34587  1.0000
  C   C2186     1.0  0.72920  0.22467  0.34074  1.0000
  C   C2187     1.0  0.73851  0.22771  0.34903  1.0000
  C   C2188     1.0  0.74185  0.21719  0.36266  1.0000
  C   C2189     1.0  0.73600  0.20349  0.36778  1.0000
  C   C2190     1.0  0.72682  0.20036  0.35938  1.0000
  H   H3455     1.0  0.72652  0.23298  0.33032  1.0000
  H   H3456     1.0  0.74293  0.23829  0.34498  1.0000
  C   C2191     1.0  0.83590  0.43448  0.28792  1.0000
  H   H3457     1.0  0.72230  0.18984  0.36348  1.0000
  C   C2192     1.0  0.73574  0.11654  0.33439  1.0000
  C   C2193     1.0  0.72273  0.11098  0.34423  1.0000
  C   C2194     1.0  0.72467  0.09550  0.35287  1.0000
  C   C2195     1.0  0.73967  0.08580  0.35220  1.0000
  C   C2196     1.0  0.75265  0.09142  0.34248  1.0000
  C   C2197     1.0  0.75065  0.10668  0.33340  1.0000
  H   H3458     1.0  0.71118  0.11851  0.34500  1.0000
  H   H3459     1.0  0.71461  0.09110  0.36027  1.0000
  H   H3460     1.0  0.76427  0.08402  0.34188  1.0000
  H   H3461     1.0  0.76073  0.11092  0.32578  1.0000
  C   C2198     1.0  0.73087  0.35629  0.19566  1.0000
  C   C2199     1.0  0.94469  0.47391  0.19342  1.0000
  H   H3462     1.0  0.93222  0.47450  0.19372  1.0000
  C   C2200     1.0  0.73707  0.37617  0.21085  1.0000
  C   C2201     1.0  0.74223  0.35998  0.21516  1.0000
  C   C2202     1.0  0.73918  0.35009  0.20758  1.0000
  S   S896      1.0  0.52203  0.10422  0.35124  1.0000
  H   H3463     1.0  0.97406  0.42385  0.22336  1.0000
  H   H3464     1.0  0.74841  0.35498  0.22445  1.0000
  H   H3465     1.0  0.74293  0.33756  0.21125  1.0000
  C   C2203     1.0  0.84269  0.43080  0.27329  1.0000
  H   H3466     1.0  0.94723  0.46643  0.20469  1.0000
  H   H3467     1.0  0.66868  0.24393  0.29424  1.0000
  S   S897      1.0  0.51004  0.14198  0.35150  1.0000
  C   C2204     1.0  0.64529  0.40490  0.18124  1.0000
  H   H3468     1.0  0.67527  0.14148  0.29390  1.0000
  H   H3469     1.0  0.81105  0.13005  0.32556  1.0000
  S   S898      1.0  0.72613  0.34343  0.18735  1.0000
  H   H3470     1.0  0.59421  0.13719  0.30567  1.0000
  H   H3471     1.0  0.77085  0.34549  0.33252  1.0000
  S   S899      1.0  0.86258  0.47311  0.20631  1.0000
  H   H3472     1.0  0.83748  0.13565  0.31819  1.0000
  C   C2205     1.0  0.91744  0.41158  0.20400  1.0000
  H   H3473     1.0  0.90567  0.46806  0.25054  1.0000
  N   N220      1.0  0.63389  0.27344  0.19468  1.0000
  H   H3474     1.0  0.78288  0.35591  0.21049  1.0000
  H   H3475     1.0  0.62961  0.26382  0.17785  1.0000
  C   C2206     1.0  0.59053  0.15068  0.32932  1.0000
  N   N221      1.0  0.69967  0.13522  0.29469  1.0000
  H   H3476     1.0  0.70550  0.36851  0.22272  1.0000
  N   N222      1.0  0.57944  0.15389  0.31912  1.0000
  H   H3477     1.0  0.68688  0.24763  0.28153  1.0000
  H   H3478     1.0  0.62032  0.25612  0.20692  1.0000
  H   H3479     1.0  0.80794  0.38447  0.33916  1.0000
  H   H3480     1.0  0.49481  0.14113  0.29483  1.0000
  S   S900      1.0  0.95892  0.39950  0.19011  1.0000
  H   H3481     1.0  0.72599  0.39494  0.19455  1.0000
  C   C2207     1.0  0.92777  0.15746  0.35394  1.0000
  Fe  Fe458     1.0  0.52877  0.11172  0.32525  1.0000
  H   H3482     1.0  0.58052  0.17811  0.31083  1.0000
  S   S901      1.0  0.57199  0.09718  0.21891  1.0000
  H   H3483     1.0  0.68203  0.22692  0.32321  1.0000
  H   H3484     1.0  0.92450  0.38275  0.23552  1.0000
  C   C2208     1.0  0.58402  0.47831  0.18140  1.0000
  C   C2209     1.0  0.63032  0.20746  0.20883  1.0000
  H   H3485     1.0  0.80139  0.16103  0.33672  1.0000
  H   H3486     1.0  0.68210  0.12145  0.30290  1.0000
  H   H3487     1.0  0.79524  0.34405  0.19722  1.0000
  H   H3488     1.0  0.83784  0.05752  0.37284  1.0000
  H   H3489     1.0  0.53468  0.16040  0.24598  1.0000
  H   H3490     1.0  0.54048  0.16958  0.22591  1.0000
  C   C2210     1.0  0.56320  0.15721  0.32832  1.0000
  H   H3491     1.0  0.70952  0.11218  0.30668  1.0000
  H   H3492     1.0  0.81031  0.41560  0.35662  1.0000
  H   H3493     1.0  0.93664  0.39596  0.22335  1.0000
  C   C2211     1.0  0.68833  0.39414  0.20720  1.0000
  H   H3494     1.0  0.97755  0.38280  0.28901  1.0000
  H   H3495     1.0  0.60292  0.14810  0.32272  1.0000
  H   H3496     1.0  0.71718  0.13235  0.27380  1.0000
  H   H3497     1.0  0.66875  0.37645  0.20875  1.0000
  H   H3498     1.0  0.67900  0.13659  0.31311  1.0000
  Fe  Fe459     1.0  0.77523  0.26729  0.33742  1.0000
  H   H3499     1.0  0.84395  0.14304  0.33098  1.0000
  H   H3500     1.0  0.79577  0.31821  0.28633  1.0000
  C   C2212     1.0  0.77244  0.43849  0.28286  1.0000
  C   C2213     1.0  0.76292  0.43430  0.27571  1.0000
  C   C2214     1.0  0.76844  0.42112  0.26901  1.0000
  C   C2215     1.0  0.78369  0.41232  0.26904  1.0000
  C   C2216     1.0  0.79328  0.41660  0.27606  1.0000
  C   C2217     1.0  0.78760  0.42950  0.28316  1.0000
  H   H3501     1.0  0.56073  0.14709  0.33800  1.0000
  H   H3502     1.0  0.76101  0.41798  0.26353  1.0000
  H   H3503     1.0  0.80509  0.40984  0.27617  1.0000
  H   H3504     1.0  0.79504  0.43260  0.28866  1.0000
  C   C2218     1.0  0.85324  0.40432  0.28572  1.0000
  C   C2219     1.0  0.84681  0.40814  0.30037  1.0000
  H   H3505     1.0  0.85997  0.39266  0.28490  1.0000
  H   H3506     1.0  0.84861  0.39941  0.31082  1.0000
  H   H3507     1.0  0.66868  0.22060  0.31617  1.0000
  H   H3508     1.0  0.54877  0.04038  0.24714  1.0000
  H   H3509     1.0  0.54566  0.05534  0.23009  1.0000
  H   H3510     1.0  0.80209  0.37277  0.20137  1.0000
  H   H3511     1.0  0.69140  0.38982  0.19625  1.0000
  C   C2220     1.0  0.58672  0.10493  0.22094  1.0000
  H   H3512     1.0  0.98958  0.40952  0.29164  1.0000
  C   C2221     1.0  0.55928  0.47090  0.19380  1.0000
  H   H3513     1.0  0.81154  0.30061  0.25179  1.0000
  C   C2222     1.0  0.75796  0.34813  0.33714  1.0000
  C   C2223     1.0  0.81060  0.13010  0.33782  1.0000
  H   H3514     1.0  0.81408  0.15764  0.31847  1.0000
  H   H3515     1.0  0.54718  0.14365  0.21987  1.0000
  C   C2224     1.0  0.79897  0.38944  0.36833  1.0000
  C   C2225     1.0  0.61431  0.21168  0.21524  1.0000
  H   H3516     1.0  0.60899  0.20437  0.22576  1.0000
  H   H3517     1.0  0.59285  0.22890  0.21340  1.0000
  C   C2226     1.0  0.63851  0.15768  0.29554  1.0000
  C   C2227     1.0  0.64461  0.16939  0.28393  1.0000
  C   C2228     1.0  0.65426  0.17728  0.28701  1.0000
  C   C2229     1.0  0.65801  0.17346  0.30168  1.0000
  C   C2230     1.0  0.65196  0.16172  0.31332  1.0000
  C   C2231     1.0  0.64224  0.15386  0.31025  1.0000
  H   H3518     1.0  0.64183  0.17244  0.27256  1.0000
  H   H3519     1.0  0.65883  0.18638  0.27796  1.0000
  H   H3520     1.0  0.65464  0.15879  0.32472  1.0000
  H   H3521     1.0  0.63753  0.14484  0.31931  1.0000
  C   C2232     1.0  0.55516  0.17928  0.26719  1.0000
  C   C2233     1.0  0.54078  0.19002  0.26893  1.0000
  C   C2234     1.0  0.52879  0.18712  0.28207  1.0000
  C   C2235     1.0  0.53094  0.17326  0.29334  1.0000
  C   C2236     1.0  0.54518  0.16231  0.29136  1.0000
  C   C2237     1.0  0.55738  0.16541  0.27845  1.0000
  H   H3522     1.0  0.53901  0.20075  0.26022  1.0000
  H   H3523     1.0  0.51784  0.19567  0.28350  1.0000
  H   H3524     1.0  0.54685  0.15150  0.29975  1.0000
  H   H3525     1.0  0.56839  0.15698  0.27710  1.0000
  C   C2238     1.0  0.60973  0.11804  0.22434  1.0000
  C   C2239     1.0  0.77849  0.47906  0.25159  1.0000
  H   H3526     1.0  0.67936  0.40525  0.20555  1.0000
  C   C2240     1.0  0.59922  0.11201  0.23749  1.0000
  H   H3527     1.0  0.75678  0.35621  0.36380  1.0000
  H   H3528     1.0  0.56194  0.12848  0.22782  1.0000
  H   H3529     1.0  0.83145  0.31508  0.27341  1.0000
  C   C2241     1.0  0.91959  0.14671  0.35356  1.0000
  C   C2242     1.0  0.81172  0.39422  0.34107  1.0000
  H   H3530     1.0  0.75249  0.34531  0.32908  1.0000
  N   N223      1.0  0.81392  0.39119  0.35713  1.0000
  C   C2243     1.0  0.92326  0.13119  0.36155  1.0000
  C   C2244     1.0  0.62790  0.23066  0.18802  1.0000
  C   C2245     1.0  0.68778  0.21678  0.28868  1.0000
  H   H3531     1.0  0.71189  0.21276  0.30190  1.0000
  S   S902      1.0  0.83582  0.45557  0.19055  1.0000
  H   H3532     1.0  0.57510  0.16425  0.22492  1.0000
  C   C2246     1.0  0.53034  0.09968  0.18326  1.0000
  H   H3533     1.0  0.51600  0.10880  0.20301  1.0000
  S   S903      1.0  0.53768  0.09671  0.30764  1.0000
  H   H3534     1.0  0.59423  0.16535  0.29903  1.0000
  C   C2247     1.0  0.77612  0.38207  0.18912  1.0000
  C   C2248     1.0  0.80242  0.46377  0.25947  1.0000
  H   H3535     1.0  0.82069  0.40262  0.37102  1.0000
  H   H3536     1.0  0.82218  0.30572  0.29244  1.0000
  C   C2249     1.0  0.80137  0.31697  0.27414  1.0000
  C   C2250     1.0  0.98629  0.21079  0.37387  1.0000
  H   H3537     1.0  0.68205  0.25005  0.30125  1.0000
  Fe  Fe460     1.0  0.99052  0.44481  0.22597  1.0000
  H   H3538     1.0  0.96746  0.11143  0.36491  1.0000
  H   H3539     1.0  0.90296  0.40537  0.24319  1.0000
  H   H3540     1.0  0.98847  0.38161  0.26955  1.0000
  S   S904      1.0  0.49954  0.06927  0.26480  1.0000
  H   H3541     1.0  0.61642  0.12274  0.19935  1.0000
  C   C2251     1.0  0.78542  0.35444  0.19829  1.0000
  C   C2252     1.0  0.61975  0.28616  0.19374  1.0000
  C   C2253     1.0  0.81905  0.40442  0.35899  1.0000
  N   N224      1.0  0.91317  0.40196  0.21979  1.0000
  H   H3542     1.0  0.63988  0.41543  0.20096  1.0000
  H   H3543     1.0  0.82817  0.37438  0.37203  1.0000
  H   H3544     1.0  0.92641  0.41803  0.20334  1.0000
  C   C2254     1.0  0.83432  0.47476  0.32285  1.0000
  H   H3545     1.0  0.55383  0.14016  0.25925  1.0000
  N   N225      1.0  0.55784  0.15022  0.23463  1.0000
  C   C2255     1.0  0.57087  0.15523  0.22211  1.0000
  C   C2256     1.0  0.54478  0.16386  0.23680  1.0000
  C   C2257     1.0  0.55230  0.13856  0.23036  1.0000
  C   C2258     1.0  0.50580  0.98936  0.18539  1.0000
  H   H3546     1.0  0.49949  0.07627  0.23230  1.0000
  H   H3547     1.0  0.83169  0.41987  0.24089  1.0000
  H   H3548     1.0  0.54840  0.17279  0.24033  1.0000
  H   H3549     1.0  0.84971  0.20974  0.36438  1.0000
  H   H3550     1.0  0.49900  0.99605  0.19405  1.0000
  H   H3551     1.0  0.69639  0.36304  0.21064  1.0000
  H   H3552     1.0  0.83729  0.37744  0.35165  1.0000
  H   H3553     1.0  0.56092  0.16742  0.33363  1.0000
  C   C2259     1.0  0.68131  0.24270  0.29372  1.0000
  Fe  Fe461     1.0  0.80724  0.44568  0.32050  1.0000
  H   H3554     1.0  0.70710  0.23176  0.30594  1.0000
  H   H3555     1.0  0.75118  0.44122  0.27544  1.0000
  H   H3556     1.0  0.89542  0.46867  0.22799  1.0000
  H   H3557     1.0  0.69358  0.20429  0.29227  1.0000
  N   N226      1.0  0.68252  0.38249  0.22086  1.0000
  C   C2260     1.0  0.58199  0.14008  0.31257  1.0000
  S   S905      1.0  0.82998  0.42786  0.31988  1.0000
  Fe  Fe462     1.0  0.50011  0.12299  0.34897  1.0000
  H   H3558     1.0  0.71283  0.15315  0.28827  1.0000
  C   C2261     1.0  0.92721  0.39025  0.22368  1.0000
  C   C2262     1.0  0.81932  0.13988  0.35512  1.0000
  S   S906      1.0  0.76654  0.47420  0.32401  1.0000
  H   H3559     1.0  0.62637  0.26442  0.21925  1.0000
  S   S907      1.0  0.87835  0.15092  0.36883  1.0000
  Fe  Fe463     1.0  0.59049  0.05810  0.18506  1.0000
  H   H3560     1.0  0.55448  0.15981  0.32100  1.0000
  H   H3561     1.0  0.56724  0.16029  0.21080  1.0000
  H   H3562     1.0  0.52674  0.08988  0.28419  1.0000
  H   H3563     1.0  0.76524  0.38021  0.18732  1.0000
  C   C2263     1.0  0.60852  0.11777  0.20951  1.0000
  H   H3564     1.0  0.97903  0.13514  0.32524  1.0000
  C   C2264     1.0  0.70572  0.22509  0.29808  1.0000
  S   S908      1.0  0.76153  0.44536  0.36565  1.0000
  H   H3565     1.0  0.69737  0.13901  0.27112  1.0000
  H   H3566     1.0  0.57960  0.10078  0.24599  1.0000
  H   H3567     1.0  0.90515  0.38625  0.21169  1.0000
  H   H3568     1.0  0.49425  0.03804  0.27183  1.0000
  H   H3569     1.0  0.82604  0.14786  0.35614  1.0000
  C   C2265     1.0  0.51609  0.10600  0.19235  1.0000
  C   C2266     1.0  0.82760  0.27165  0.36772  1.0000
  N   N227      1.0  0.95540  0.46760  0.18009  1.0000
  S   S909      1.0  0.66557  0.40048  0.18014  1.0000
  S   S910      1.0  0.75465  0.26723  0.35786  1.0000
  S   S911      1.0  0.56645  0.07134  0.19410  1.0000
  H   H3570     1.0  0.90713  0.42043  0.20048  1.0000
  C   C2267     1.0  0.98893  0.42615  0.20040  1.0000
  H   H3571     1.0  0.65381  0.17686  0.37245  1.0000
  H   H3572     1.0  0.61002  0.28201  0.19212  1.0000
  H   H3573     1.0  0.59627  0.11096  0.19629  1.0000
  C   C2268     1.0  0.93964  0.15273  0.36230  1.0000
  C   C2269     1.0  0.78730  0.30256  0.37463  1.0000
  H   H3574     1.0  0.85862  0.18330  0.35850  1.0000
  H   H3575     1.0  0.68997  0.35824  0.23144  1.0000
  H   H3576     1.0  0.83886  0.47573  0.33254  1.0000
  H   H3577     1.0  0.57991  0.12961  0.32194  1.0000
  C   C2270     1.0  0.84864  0.19135  0.35444  1.0000
  H   H3578     1.0  0.82535  0.31195  0.24990  1.0000
  H   H3579     1.0  0.70630  0.12736  0.31684  1.0000
  H   H3580     1.0  0.64937  0.25752  0.18064  1.0000
  N   N228      1.0  0.57598  0.46516  0.18700  1.0000
  N   N229      1.0  0.83082  0.40611  0.22566  1.0000
  C   C2271     1.0  0.84620  0.39556  0.22704  1.0000
  C   C2272     1.0  0.82413  0.41283  0.23966  1.0000
  C   C2273     1.0  0.82013  0.39728  0.22428  1.0000
  C   C2274     1.0  0.83288  0.41876  0.21164  1.0000
  H   H3581     1.0  0.85172  0.39047  0.21657  1.0000
  H   H3582     1.0  0.71200  0.22962  0.28608  1.0000
  H   H3583     1.0  0.60339  0.19731  0.17806  1.0000
  H   H3584     1.0  0.81226  0.42043  0.23933  1.0000
  H   H3585     1.0  0.82292  0.40351  0.25047  1.0000
  H   H3586     1.0  0.83668  0.29421  0.27983  1.0000
  H   H3587     1.0  0.82507  0.39159  0.21413  1.0000
  H   H3588     1.0  0.80851  0.40497  0.22294  1.0000
  H   H3589     1.0  0.81789  0.38798  0.23491  1.0000
  H   H3590     1.0  0.97413  0.21233  0.37260  1.0000
  C   C2275     1.0  0.63915  0.26760  0.18015  1.0000
  H   H3591     1.0  0.84101  0.42556  0.21221  1.0000
  Fe  Fe464     1.0  0.97402  0.15705  0.36746  1.0000
  H   H3592     1.0  0.81494  0.11784  0.34368  1.0000
  H   H3593     1.0  0.98884  0.39184  0.30633  1.0000
  H   H3594     1.0  0.63327  0.23779  0.17752  1.0000
  H   H3595     1.0  0.84166  0.12330  0.33623  1.0000
  H   H3596     1.0  0.79808  0.13365  0.34362  1.0000
  H   H3597     1.0  0.84508  0.38573  0.23738  1.0000
  H   H3598     1.0  0.85445  0.40185  0.22829  1.0000
  H   H3599     1.0  0.82849  0.26265  0.36127  1.0000
  H   H3600     1.0  0.64294  0.28405  0.20754  1.0000
  H   H3601     1.0  0.81391  0.36190  0.18697  1.0000
  S   S912      1.0  0.59471  0.03211  0.19432  1.0000
  H   H3602     1.0  0.98890  0.46520  0.28167  1.0000
  C   C2276     1.0  0.63517  0.41247  0.19282  1.0000
  S   S913      1.0  0.95007  0.16634  0.36195  1.0000
  H   H3603     1.0  0.64423  0.07523  0.20808  1.0000
  H   H3604     1.0  0.68694  0.20790  0.31927  1.0000
  N   N230      1.0  0.54871  0.06344  0.24876  1.0000
  C   C2277     1.0  0.54489  0.05983  0.26598  1.0000
  C   C2278     1.0  0.56585  0.06146  0.24299  1.0000
  C   C2279     1.0  0.54092  0.07974  0.24298  1.0000
  C   C2280     1.0  0.54311  0.05280  0.24306  1.0000
  H   H3605     1.0  0.53201  0.06124  0.27067  1.0000
  H   H3606     1.0  0.54886  0.06775  0.27065  1.0000
  H   H3607     1.0  0.55053  0.04761  0.27082  1.0000
  H   H3608     1.0  0.83042  0.29103  0.25620  1.0000
  H   H3609     1.0  0.57043  0.06956  0.24680  1.0000
  H   H3610     1.0  0.52801  0.08160  0.24738  1.0000
  H   H3611     1.0  0.54331  0.08289  0.23002  1.0000
  H   H3612     1.0  0.54503  0.08816  0.24683  1.0000
  H   H3613     1.0  0.95861  0.31473  0.18407  1.0000
  S   S914      1.0  0.97077  0.46569  0.26036  1.0000
  C   C2281     1.0  0.98244  0.41517  0.18238  1.0000
  H   H3614     1.0  0.94095  0.45192  0.18164  1.0000
  H   H3615     1.0  0.61543  0.29086  0.20451  1.0000
  H   H3616     1.0  0.49923  0.16711  0.26737  1.0000
  S   S915      1.0  0.91408  0.11741  0.35987  1.0000
  H   H3617     1.0  0.80251  0.08555  0.36730  1.0000
  H   H3618     1.0  0.80326  0.31799  0.36348  1.0000
  C   C2282     1.0  0.93479  0.12656  0.37032  1.0000
  H   H3619     1.0  0.91692  0.18044  0.37428  1.0000
  H   H3620     1.0  0.82441  0.12795  0.36120  1.0000
  H   H3621     1.0  0.50645  0.16423  0.28456  1.0000
  H   H3622     1.0  0.92249  0.40431  0.19510  1.0000
  H   H3623     1.0  0.69336  0.22101  0.27630  1.0000
  H   H3624     1.0  0.98453  0.32568  0.19069  1.0000
  C   C2283     1.0  0.49351  0.05673  0.22842  1.0000
  S   S916      1.0  0.79875  0.46075  0.33803  1.0000
  H   H3625     1.0  0.93223  0.38255  0.21515  1.0000
  H   H3626     1.0  0.79988  0.20893  0.37110  1.0000
  C   C2284     1.0  0.70060  0.15151  0.29301  1.0000
  H   H3627     1.0  0.79206  0.31648  0.26871  1.0000
  C   C2285     1.0  0.82074  0.30152  0.25716  1.0000
  S   S917      1.0  0.55167  0.12206  0.36363  1.0000
  H   H3628     1.0  0.61120  0.42174  0.20312  1.0000
  H   H3629     1.0  0.69654  0.15499  0.30442  1.0000
  C   C2286     1.0  0.82292  0.21235  0.34383  1.0000
  H   H3630     1.0  0.82069  0.16486  0.33126  1.0000
  H   H3631     1.0  0.79585  0.46077  0.27171  1.0000
  H   H3632     1.0  0.73595  0.02278  0.36024  1.0000
  H   H3633     1.0  0.82273  0.39585  0.33230  1.0000
  H   H3634     1.0  0.99106  0.09167  0.33277  1.0000
  N   N231      1.0  0.78935  0.36858  0.18690  1.0000
  Fe  Fe465     1.0  0.88799  0.12627  0.36583  1.0000
  H   H3635     1.0  0.57774  0.44295  0.20325  1.0000
  H   H3636     1.0  0.67174  0.39946  0.23506  1.0000
  C   C2287     1.0  0.59712  0.11113  0.20779  1.0000
  C   C2288     1.0  0.66744  0.38043  0.21956  1.0000
  C   C2289     1.0  0.70488  0.13120  0.27922  1.0000
  S   S918      1.0  0.98096  0.43174  0.24987  1.0000
  H   H3637     1.0  0.69307  0.15989  0.28522  1.0000
  C   C2290     1.0  0.68331  0.13359  0.30144  1.0000
  H   H3638     1.0  0.80554  0.32781  0.26764  1.0000
  C   C2291     1.0  0.72954  0.38241  0.19832  1.0000
  S   S919      1.0  0.83859  0.45203  0.23174  1.0000
  H   H3639     1.0  0.67533  0.21703  0.28928  1.0000
  S   S920      1.0  0.79117  0.27229  0.34935  1.0000
  H   H3640     1.0  0.66962  0.07893  0.18995  1.0000
  H   H3641     1.0  0.97388  0.47833  0.17950  1.0000
  C   C2292     1.0  0.60518  0.22556  0.20823  1.0000
  H   H3642     1.0  0.65848  0.39161  0.21892  1.0000
  H   H3643     1.0  0.53022  0.05396  0.24724  1.0000
  C   C2293     1.0  0.91258  0.46113  0.24214  1.0000
  H   H3644     1.0  0.55790  0.47623  0.20379  1.0000
  H   H3645     1.0  0.81580  0.48274  0.23414  1.0000
  H   H3646     1.0  0.56909  0.06401  0.23002  1.0000
  S   S921      1.0  0.60027  0.25256  0.18631  1.0000
  H   H3647     1.0  0.80306  0.28978  0.29508  1.0000
  H   H3648     1.0  0.79909  0.28721  0.27800  1.0000
  H   H3649     1.0  0.57387  0.17037  0.29844  1.0000
  H   H3650     1.0  0.81780  0.27815  0.28281  1.0000
  C   C2294     1.0  0.83648  0.13540  0.33064  1.0000
  H   H3651     1.0  0.84268  0.34325  0.19465  1.0000
  Fe  Fe466     1.0  0.77585  0.45402  0.34206  1.0000
  C   C2295     1.0  0.73642  0.34289  0.35877  1.0000
  H   H3652     1.0  0.83034  0.40605  0.35075  1.0000
  H   H3653     1.0  0.77340  0.38408  0.20114  1.0000
  H   H3654     1.0  0.86704  0.47866  0.29444  1.0000
  N   N232      1.0  0.64686  0.08972  0.18493  1.0000
  C   C2296     1.0  0.96998  0.41032  0.19395  1.0000
  H   H3655     1.0  0.91618  0.41776  0.23176  1.0000
  H   H3656     1.0  0.72232  0.12562  0.30046  1.0000
  H   H3657     1.0  0.80706  0.14329  0.36162  1.0000
  C   C2297     1.0  0.63009  0.26056  0.20802  1.0000
  C   C2298     1.0  0.83421  0.09605  0.37039  1.0000
  C   C2299     1.0  0.82672  0.30457  0.28010  1.0000
  C   C2300     1.0  0.83045  0.21665  0.35283  1.0000
  H   H3658     1.0  0.97941  0.40035  0.27434  1.0000
  H   H3659     1.0  0.80387  0.47344  0.22866  1.0000
  C   C2301     1.0  0.94296  0.13735  0.37074  1.0000
  H   H3660     1.0  0.75404  0.36095  0.33634  1.0000
  H   H3661     1.0  0.80295  0.45425  0.25383  1.0000
  H   H3662     1.0  0.64949  0.21368  0.19023  1.0000
  H   H3663     1.0  0.89743  0.38663  0.23200  1.0000
  H   H3664     1.0  0.57091  0.44847  0.17765  1.0000
  S   S922      1.0  0.68193  0.35645  0.18679  1.0000
  H   H3665     1.0  0.97673  0.09287  0.35992  1.0000
  H   H3666     1.0  0.54106  0.09763  0.18710  1.0000
  H   H3667     1.0  0.79159  0.44566  0.37002  1.0000
  C   C2302     1.0  0.59682  0.00607  0.18398  1.0000
  H   H3668     1.0  0.69148  0.38957  0.23657  1.0000
  H   H3669     1.0  0.81633  0.28020  0.36687  1.0000
  C   C2303     1.0  0.76096  0.34360  0.36355  1.0000
  C   C2304     1.0  0.90708  0.41207  0.23125  1.0000
  H   H3670     1.0  0.49496  0.18278  0.27732  1.0000
  C   C2305     1.0  0.66318  0.09024  0.18394  1.0000
  H   H3671     1.0  0.65276  0.06553  0.18352  1.0000
  H   H3672     1.0  0.78970  0.40031  0.36662  1.0000
  H   H3673     1.0  0.77129  0.47768  0.26368  1.0000
  C   C2306     1.0  0.49687  0.05827  0.25323  1.0000
  H   H3674     1.0  0.99014  0.12981  0.34001  1.0000
  H   H3675     1.0  0.64029  0.25048  0.20882  1.0000
  C   C2307     1.0  0.82595  0.37669  0.36015  1.0000
  H   H3676     1.0  0.72681  0.04107  0.36600  1.0000
  C   C2308     1.0  0.81917  0.09319  0.37425  1.0000
  H   H3677     1.0  0.97805  0.30799  0.20085  1.0000
  H   H3678     1.0  0.86898  0.47422  0.25361  1.0000
  C   C2309     1.0  0.49412  0.04323  0.25970  1.0000
  H   H3679     1.0  0.83485  0.46217  0.32395  1.0000
  H   H3680     1.0  0.97482  0.45904  0.19148  1.0000
  C   C2310     1.0  0.95334  0.45184  0.18116  1.0000
  H   H3681     1.0  0.80663  0.38243  0.18112  1.0000
  H   H3682     1.0  0.72018  0.37744  0.18145  1.0000
  H   H3683     1.0  0.63837  0.09585  0.20737  1.0000
  S   S923      1.0  0.75309  0.22089  0.37367  1.0000
  H   H3684     1.0  0.86496  0.47475  0.31509  1.0000
  H   H3685     1.0  0.57076  0.13353  0.37583  1.0000
  H   H3686     1.0  0.61691  0.20551  0.18246  1.0000
  H   H3687     1.0  0.69991  0.11100  0.37609  1.0000
  H   H3688     1.0  0.96922  0.13583  0.34503  1.0000
  H   H3689     1.0  0.98835  0.10556  0.36054  1.0000
  C   C2311     1.0  0.97911  0.12907  0.33757  1.0000
  H   H3690     1.0  0.64971  0.28906  0.18681  1.0000
  C   C2312     1.0  0.79465  0.31449  0.37381  1.0000
  Fe  Fe467     1.0  0.79027  0.47972  0.31870  1.0000
  H   H3691     1.0  0.85658  0.04623  0.37642  1.0000
  H   H3692     1.0  0.62627  0.10517  0.17784  1.0000
  Fe  Fe468     1.0  0.86016  0.36803  0.17790  1.0000
  H   H3693     1.0  0.93742  0.11461  0.37676  1.0000
  C   C2313     1.0  0.99161  0.10409  0.33085  1.0000
  H   H3694     1.0  0.79197  0.98379  0.32569  1.0000
  C   C2314     1.0  0.84957  0.04666  0.40718  1.0000
  Fe  Fe469     1.0  0.81796  0.34039  0.42924  1.0000
  S   S924      1.0  0.79828  0.33000  0.42964  1.0000
  S   S925      1.0  0.83830  0.32441  0.43888  1.0000
  Fe  Fe470     1.0  0.80177  0.37332  0.41572  1.0000
  S   S926      1.0  0.78064  0.36572  0.41508  1.0000
  S   S927      1.0  0.80623  0.39755  0.40739  1.0000
  Fe  Fe471     1.0  0.78320  0.35090  0.43882  1.0000
  S   S928      1.0  0.76311  0.34904  0.45951  1.0000
  Fe  Fe472     1.0  0.79793  0.34562  0.40593  1.0000
  S   S929      1.0  0.76484  0.28497  0.38834  1.0000
  S   S930      1.0  0.80294  0.36015  0.44010  1.0000
  S   S931      1.0  0.81894  0.35448  0.40482  1.0000
  S   S932      1.0  0.76866  0.37659  0.51319  1.0000
  H   H3695     1.0  0.74090  0.98613  0.50303  1.0000
  H   H3696     1.0  0.66876  0.99786  0.45666  1.0000
  Fe  Fe473     1.0  0.68620  0.05348  0.46775  1.0000
  S   S933      1.0  0.67849  0.04495  0.45100  1.0000
  S   S934      1.0  0.67657  0.04947  0.49359  1.0000
  Fe  Fe474     1.0  0.70416  0.03654  0.44188  1.0000
  S   S935      1.0  0.71363  0.01218  0.43809  1.0000
  Fe  Fe475     1.0  0.68227  0.06764  0.43462  1.0000
  H   H3697     1.0  0.75978  0.38498  0.45648  1.0000
  S   S936      1.0  0.71170  0.04325  0.45977  1.0000
  S   S937      1.0  0.68717  0.07712  0.45242  1.0000
  H   H3698     1.0  0.96543  0.23027  0.39071  1.0000
  H   H3699     1.0  0.76289  0.04993  0.40286  1.0000
  H   H3700     1.0  0.83727  0.28312  0.38642  1.0000
  Fe  Fe476     1.0  0.73424  0.04386  0.53483  1.0000
  S   S938      1.0  0.70972  0.05494  0.54496  1.0000
  S   S939      1.0  0.73822  0.02785  0.51908  1.0000
  Fe  Fe477     1.0  0.71894  0.07654  0.53942  1.0000
  S   S940      1.0  0.70433  0.09897  0.52892  1.0000
  H   H3701     1.0  0.55127  0.08975  0.41882  1.0000
  H   H3702     1.0  0.96244  0.25380  0.51141  1.0000
  S   S941      1.0  0.74280  0.06605  0.52691  1.0000
  S   S942      1.0  0.97098  0.26475  0.57249  1.0000
  S   S943      1.0  0.58363  0.13779  0.42096  1.0000
  H   H3703     1.0  0.69345  0.09530  0.39131  1.0000
  H   H3704     1.0  0.96193  0.27238  0.52694  1.0000
  H   H3705     1.0  0.68057  0.05708  0.53549  1.0000
  S   S944      1.0  0.67497  0.14782  0.38241  1.0000
  Fe  Fe478     1.0  0.58680  0.12550  0.44506  1.0000
  S   S945      1.0  0.59593  0.14427  0.44881  1.0000
  S   S946      1.0  0.59697  0.09987  0.45155  1.0000
  Fe  Fe479     1.0  0.55923  0.14762  0.43291  1.0000
  S   S947      1.0  0.56526  0.16852  0.43611  1.0000
  S   S948      1.0  0.53801  0.14828  0.42429  1.0000
  Fe  Fe480     1.0  0.57072  0.15378  0.45884  1.0000
  S   S949      1.0  0.56348  0.16467  0.47982  1.0000
  S   S950      1.0  0.56197  0.13392  0.45689  1.0000
  Fe  Fe481     1.0  0.61102  0.15406  0.54030  1.0000
  S   S951      1.0  0.60292  0.13172  0.55159  1.0000
  S   S952      1.0  0.61621  0.16126  0.51403  1.0000
  C   C2315     1.0  0.78946  0.18836  0.40803  1.0000
  H   H3706     1.0  0.88908  0.16476  0.39064  1.0000
  H   H3707     1.0  0.61028  0.16555  0.46149  1.0000
  H   H3708     1.0  0.72720  0.99638  0.46584  1.0000
  H   H3709     1.0  0.72190  0.04275  0.39330  1.0000
  H   H3710     1.0  0.64731  0.99541  0.48949  1.0000
  H   H3711     1.0  0.82860  0.27185  0.40445  1.0000
  S   S953      1.0  0.63073  0.14796  0.55279  1.0000
  S   S954      1.0  0.59388  0.16760  0.55745  1.0000
  H   H3712     1.0  0.77104  0.04103  0.53165  1.0000
  H   H3713     1.0  0.98577  0.18843  0.40036  1.0000
  C   C2316     1.0  0.63041  0.15161  0.40768  1.0000
  Fe  Fe482     1.0  0.97370  0.24149  0.43279  1.0000
  S   S955      1.0  0.97806  0.21891  0.45026  1.0000
  S   S956      1.0  0.95296  0.25072  0.42171  1.0000
  H   H3714     1.0  0.81584  0.24718  0.38622  1.0000
  C   C2317     1.0  0.76834  0.41977  0.38869  1.0000
  H   H3715     1.0  0.62654  0.01018  0.45670  1.0000
  S   S957      1.0  0.98840  0.14605  0.41810  1.0000
  H   H3716     1.0  0.97858  0.28979  0.49578  1.0000
  S   S958      1.0  0.97901  0.23140  0.48790  1.0000
  H   H3717     1.0  0.64297  0.10965  0.41044  1.0000
  Fe  Fe483     1.0  0.86895  0.25218  0.41401  1.0000
  S   S959      1.0  0.84614  0.24799  0.42953  1.0000
  S   S960      1.0  0.86715  0.27497  0.39689  1.0000
  Fe  Fe484     1.0  0.88705  0.22026  0.42666  1.0000
  S   S961      1.0  0.86569  0.21293  0.44323  1.0000
  S   S962      1.0  0.91126  0.20495  0.42504  1.0000
  Fe  Fe485     1.0  0.85389  0.22473  0.42315  1.0000
  S   S963      1.0  0.83741  0.21711  0.41413  1.0000
  Fe  Fe486     1.0  0.85987  0.23697  0.44809  1.0000
  S   S964      1.0  0.84997  0.24177  0.47215  1.0000
  S   S965      1.0  0.87582  0.22974  0.40611  1.0000
  S   S966      1.0  0.88215  0.24336  0.43315  1.0000
  C   C2318     1.0  0.97573  0.27845  0.49673  1.0000
  H   H3718     1.0  0.85374  0.25857  0.37897  1.0000
  C   C2319     1.0  0.96988  0.24646  0.55385  1.0000
  H   H3719     1.0  0.66642  0.03550  0.54313  1.0000
  H   H3720     1.0  0.77464  0.02254  0.55654  1.0000
  H   H3721     1.0  0.86965  0.37234  0.56178  1.0000
  H   H3722     1.0  0.62516  0.02499  0.47640  1.0000
  S   S967      1.0  0.86370  0.14578  0.41400  1.0000
  H   H3723     1.0  0.64178  0.01927  0.44336  1.0000
  H   H3724     1.0  0.75573  0.42732  0.45310  1.0000
  H   H3725     1.0  0.77454  0.42522  0.45706  1.0000
  H   H3726     1.0  0.64275  0.02429  0.48212  1.0000
  H   H3727     1.0  0.95888  0.26098  0.49213  1.0000
  S   S968      1.0  0.89537  0.24655  0.52700  1.0000
  C   C2320     1.0  0.84452  0.19728  0.41415  1.0000
  C   C2321     1.0  0.84526  0.19176  0.40112  1.0000
  C   C2322     1.0  0.85127  0.17591  0.40093  1.0000
  C   C2323     1.0  0.85624  0.16556  0.41395  1.0000
  C   C2324     1.0  0.85545  0.17108  0.42700  1.0000
  C   C2325     1.0  0.84974  0.18697  0.42705  1.0000
  C   C2326     1.0  0.96152  0.25783  0.56244  1.0000
  H   H3728     1.0  0.85203  0.17168  0.39076  1.0000
  H   H3729     1.0  0.85932  0.16305  0.43707  1.0000
  H   H3730     1.0  0.84912  0.19119  0.43717  1.0000
  C   C2327     1.0  0.86025  0.25268  0.47709  1.0000
  C   C2328     1.0  0.85977  0.25157  0.49278  1.0000
  C   C2329     1.0  0.86804  0.26015  0.49684  1.0000
  C   C2330     1.0  0.87653  0.27010  0.48520  1.0000
  C   C2331     1.0  0.87654  0.27166  0.46957  1.0000
  C   C2332     1.0  0.86858  0.26281  0.46552  1.0000
  H   H3731     1.0  0.85323  0.24383  0.50179  1.0000
  H   H3732     1.0  0.88292  0.27950  0.46053  1.0000
  H   H3733     1.0  0.86870  0.26407  0.45343  1.0000
  H   H3734     1.0  0.66983  0.07658  0.53689  1.0000
  S   S969      1.0  0.73000  0.07953  0.44143  1.0000
  H   H3735     1.0  0.64493  0.99846  0.44888  1.0000
  H   H3736     1.0  0.69089  0.01197  0.55749  1.0000
  C   C2333     1.0  0.73669  0.99254  0.55569  1.0000
  H   H3737     1.0  0.60235  0.18207  0.47043  1.0000
  H   H3738     1.0  0.81585  0.06300  0.39430  1.0000
  N   N233      1.0  0.72230  0.99491  0.49051  1.0000
  H   H3739     1.0  0.79513  0.18284  0.41814  1.0000
  C   C2334     1.0  0.94289  0.23727  0.42093  1.0000
  C   C2335     1.0  0.92967  0.24287  0.41444  1.0000
  C   C2336     1.0  0.92045  0.23272  0.41496  1.0000
  C   C2337     1.0  0.92432  0.21694  0.42211  1.0000
  C   C2338     1.0  0.93805  0.21111  0.42785  1.0000
  C   C2339     1.0  0.94736  0.22129  0.42724  1.0000
  H   H3740     1.0  0.92629  0.25518  0.40931  1.0000
  H   H3741     1.0  0.91021  0.23718  0.40995  1.0000
  H   H3742     1.0  0.94115  0.19886  0.43327  1.0000
  H   H3743     1.0  0.95769  0.21682  0.43205  1.0000
  C   C2340     1.0  0.63804  0.02392  0.47225  1.0000
  C   C2341     1.0  0.91863  0.16876  0.40415  1.0000
  C   C2342     1.0  0.63941  0.00935  0.45333  1.0000
  H   H3744     1.0  0.98320  0.23738  0.38297  1.0000
  C   C2343     1.0  0.82758  0.27685  0.39214  1.0000
  S   S970      1.0  0.77825  0.35476  0.55378  1.0000
  S   S971      1.0  0.79866  0.33827  0.38403  1.0000
  H   H3745     1.0  0.85799  0.30894  0.54698  1.0000
  H   H3746     1.0  0.76865  0.41330  0.43164  1.0000
  C   C2344     1.0  0.77577  0.05877  0.43015  1.0000
  H   H3747     1.0  0.70920  0.10326  0.42120  1.0000
  H   H3748     1.0  0.56549  0.14446  0.39911  1.0000
  C   C2345     1.0  0.54137  0.14271  0.40645  1.0000
  C   C2346     1.0  0.94614  0.24677  0.54649  1.0000
  S   S972      1.0  0.66804  0.08368  0.41785  1.0000
  H   H3749     1.0  0.66840  0.04935  0.56268  1.0000
  C   C2347     1.0  0.57826  0.16345  0.48926  1.0000
  C   C2348     1.0  0.57627  0.17449  0.49803  1.0000
  C   C2349     1.0  0.58782  0.17372  0.50582  1.0000
  C   C2350     1.0  0.60132  0.16175  0.50507  1.0000
  C   C2351     1.0  0.60328  0.15064  0.49638  1.0000
  C   C2352     1.0  0.59173  0.15143  0.48856  1.0000
  H   H3750     1.0  0.56585  0.18378  0.49865  1.0000
  H   H3751     1.0  0.58635  0.18245  0.51234  1.0000
  H   H3752     1.0  0.61377  0.14143  0.49569  1.0000
  H   H3753     1.0  0.59321  0.14266  0.48211  1.0000
  Fe  Fe487     1.0  0.86457  0.13993  0.39158  1.0000
  H   H3754     1.0  0.70863  0.02335  0.56506  1.0000
  H   H3755     1.0  0.95675  0.29300  0.51938  1.0000
  H   H3756     1.0  0.61049  0.21144  0.43345  1.0000
  S   S973      1.0  0.90865  0.27792  0.52189  1.0000
  C   C2353     1.0  0.68543  0.10040  0.54064  1.0000
  C   C2354     1.0  0.68280  0.09003  0.55508  1.0000
  C   C2355     1.0  0.66763  0.09065  0.56424  1.0000
  C   C2356     1.0  0.65503  0.10163  0.55900  1.0000
  C   C2357     1.0  0.65761  0.11206  0.54460  1.0000
  C   C2358     1.0  0.67284  0.11149  0.53543  1.0000
  C   C2359     1.0  0.70072  0.10370  0.41430  1.0000
  H   H3757     1.0  0.98938  0.37240  0.50886  1.0000
  H   H3758     1.0  0.64787  0.12045  0.54041  1.0000
  H   H3759     1.0  0.67481  0.11957  0.52430  1.0000
  S   S974      1.0  0.81486  0.34820  0.55619  1.0000
  C   C2360     1.0  0.94394  0.21044  0.57258  1.0000
  H   H3760     1.0  0.80892  0.42690  0.38663  1.0000
  H   H3761     1.0  0.64078  0.08219  0.54439  1.0000
  H   H3762     1.0  0.78970  0.00512  0.55659  1.0000
  H   H3763     1.0  0.63999  0.07322  0.52951  1.0000
  C   C2361     1.0  0.79062  0.32218  0.38615  1.0000
  C   C2362     1.0  0.79762  0.42485  0.38721  1.0000
  H   H3764     1.0  0.96843  0.23155  0.53999  1.0000
  C   C2363     1.0  0.78056  0.07422  0.57099  1.0000
  C   C2364     1.0  0.64827  0.08813  0.42713  1.0000
  C   C2365     1.0  0.64233  0.07806  0.44074  1.0000
  C   C2366     1.0  0.62648  0.08163  0.44809  1.0000
  C   C2367     1.0  0.61668  0.09548  0.44210  1.0000
  C   C2368     1.0  0.62264  0.10565  0.42859  1.0000
  C   C2369     1.0  0.63839  0.10184  0.42097  1.0000
  H   H3765     1.0  0.64990  0.06748  0.44552  1.0000
  H   H3766     1.0  0.62188  0.07381  0.45859  1.0000
  H   H3767     1.0  0.61513  0.11639  0.42394  1.0000
  Fe  Fe488     1.0  0.66981  0.99247  0.55634  1.0000
  C   C2370     1.0  0.69972  0.00689  0.43195  1.0000
  S   S975      1.0  0.87541  0.11531  0.38932  1.0000
  C   C2371     1.0  0.92772  0.20368  0.55972  1.0000
  C   C2372     1.0  0.67704  0.99842  0.42261  1.0000
  C   C2373     1.0  0.67769  0.01413  0.41952  1.0000
  C   C2374     1.0  0.68891  0.01839  0.42434  1.0000
  H   H3768     1.0  0.66934  0.02305  0.41363  1.0000
  H   H3769     1.0  0.68926  0.03057  0.42206  1.0000
  C   C2375     1.0  0.69297  0.04449  0.50178  1.0000
  C   C2376     1.0  0.70592  0.05098  0.49373  1.0000
  C   C2377     1.0  0.71995  0.04553  0.49886  1.0000
  C   C2378     1.0  0.72091  0.03390  0.51236  1.0000
  C   C2379     1.0  0.70778  0.02783  0.52088  1.0000
  C   C2380     1.0  0.69383  0.03301  0.51547  1.0000
  H   H3770     1.0  0.70524  0.05990  0.48324  1.0000
  H   H3771     1.0  0.73012  0.05020  0.49231  1.0000
  H   H3772     1.0  0.70853  0.01895  0.53146  1.0000
  H   H3773     1.0  0.68402  0.02762  0.52144  1.0000
  S   S976      1.0  0.75833  0.99603  0.56928  1.0000
  N   N234      1.0  0.78745  0.01899  0.53377  1.0000
  H   H3774     1.0  0.73398  0.00695  0.49936  1.0000
  H   H3775     1.0  0.98312  0.26929  0.50414  1.0000
  C   C2381     1.0  0.77196  0.30588  0.40015  1.0000
  C   C2382     1.0  0.77947  0.31764  0.39946  1.0000
  H   H3776     1.0  0.73796  0.06474  0.41567  1.0000
  H   H3777     1.0  0.52268  0.13025  0.38613  1.0000
  H   H3778     1.0  0.76296  0.30277  0.41028  1.0000
  H   H3779     1.0  0.77621  0.32358  0.40898  1.0000
  C   C2383     1.0  0.84772  0.31152  0.42640  1.0000
  C   C2384     1.0  0.84291  0.31369  0.41257  1.0000
  C   C2385     1.0  0.84949  0.30282  0.40310  1.0000
  C   C2386     1.0  0.86058  0.28947  0.40769  1.0000
  C   C2387     1.0  0.86546  0.28726  0.42150  1.0000
  C   C2388     1.0  0.85918  0.29839  0.43077  1.0000
  H   H3780     1.0  0.83390  0.32357  0.40922  1.0000
  H   H3781     1.0  0.84565  0.30457  0.39246  1.0000
  H   H3782     1.0  0.87423  0.27707  0.42492  1.0000
  H   H3783     1.0  0.86297  0.29666  0.44143  1.0000
  C   C2389     1.0  0.79299  0.41143  0.39705  1.0000
  C   C2390     1.0  0.78664  0.01756  0.55045  1.0000
  H   H3784     1.0  0.94310  0.26342  0.50873  1.0000
  H   H3785     1.0  0.67417  0.16226  0.56987  1.0000
  S   S977      1.0  0.69035  0.99265  0.53593  1.0000
  C   C2391     1.0  0.77823  0.40902  0.39799  1.0000
  H   H3786     1.0  0.79525  0.21705  0.40193  1.0000
  H   H3787     1.0  0.71718  0.00969  0.38040  1.0000
  H   H3788     1.0  0.75644  0.01041  0.38450  1.0000
  H   H3789     1.0  0.77442  0.39888  0.40579  1.0000
  C   C2392     1.0  0.76506  0.35432  0.47586  1.0000
  C   C2393     1.0  0.75162  0.36169  0.48515  1.0000
  C   C2394     1.0  0.75286  0.36786  0.49703  1.0000
  C   C2395     1.0  0.76749  0.36620  0.50016  1.0000
  C   C2396     1.0  0.78093  0.35799  0.49150  1.0000
  C   C2397     1.0  0.77973  0.35218  0.47923  1.0000
  H   H3790     1.0  0.74025  0.36326  0.48271  1.0000
  H   H3791     1.0  0.79228  0.35678  0.49378  1.0000
  H   H3792     1.0  0.79013  0.34616  0.47234  1.0000
  Fe  Fe489     1.0  0.91227  0.25352  0.53610  1.0000
  C   C2398     1.0  0.75671  0.10098  0.56657  1.0000
  S   S978      1.0  0.79386  0.04201  0.40831  1.0000
  Fe  Fe490     1.0  0.89000  0.28341  0.54259  1.0000
  H   H3793     1.0  0.66802  0.00808  0.47111  1.0000
  C   C2399     1.0  0.63145  0.17555  0.38804  1.0000
  S   S979      1.0  0.93664  0.23946  0.53676  1.0000
  H   H3794     1.0  0.74391  0.98791  0.47457  1.0000
  H   H3795     1.0  0.96694  0.20162  0.40099  1.0000
  S   S980      1.0  0.66249  0.99345  0.41707  1.0000
  C   C2400     1.0  0.56616  0.12534  0.54475  1.0000
  H   H3796     1.0  0.71852  0.98961  0.54665  1.0000
  H   H3797     1.0  0.95399  0.20888  0.56249  1.0000
  S   S981      1.0  0.70739  0.05849  0.42411  1.0000
  C   C2401     1.0  0.84353  0.25301  0.38464  1.0000
  H   H3798     1.0  0.57985  0.14921  0.53022  1.0000
  H   H3799     1.0  0.56907  0.13816  0.51428  1.0000
  H   H3800     1.0  0.74245  0.37419  0.50368  1.0000
  H   H3801     1.0  0.56241  0.16450  0.53118  1.0000
  H   H3802     1.0  0.65614  0.04623  0.52791  1.0000
  H   H3803     1.0  0.73262  0.00509  0.55398  1.0000
  H   H3804     1.0  0.76417  0.01536  0.53777  1.0000
  N   N235      1.0  0.55839  0.14121  0.53766  1.0000
  C   C2402     1.0  0.56764  0.15246  0.53687  1.0000
  H   H3805     1.0  0.58474  0.08042  0.43808  1.0000
  H   H3806     1.0  0.62342  0.20297  0.44674  1.0000
  H   H3807     1.0  0.78634  0.05706  0.43416  1.0000
  H   H3808     1.0  0.81632  0.28568  0.39211  1.0000
  H   H3809     1.0  0.97942  0.27582  0.48490  1.0000
  H   H3810     1.0  0.72813  0.14913  0.56096  1.0000
  S   S982      1.0  0.86042  0.24113  0.56364  1.0000
  H   H3811     1.0  0.98226  0.24183  0.55342  1.0000
  H   H3812     1.0  0.59233  0.17740  0.44323  1.0000
  N   N236      1.0  0.95891  0.27876  0.50337  1.0000
  C   C2403     1.0  0.84607  0.05489  0.38071  1.0000
  H   H3813     1.0  0.80463  0.01302  0.51364  1.0000
  C   C2404     1.0  0.95569  0.26363  0.50391  1.0000
  C   C2405     1.0  0.95476  0.28156  0.51931  1.0000
  H   H3814     1.0  0.84459  0.24739  0.39683  1.0000
  H   H3815     1.0  0.73050  0.09441  0.40058  1.0000
  H   H3816     1.0  0.85309  0.37493  0.54299  1.0000
  H   H3817     1.0  0.92210  0.17856  0.40640  1.0000
  C   C2406     1.0  0.90713  0.18573  0.38297  1.0000
  H   H3818     1.0  0.93778  0.20247  0.54958  1.0000
  C   C2407     1.0  0.78316  0.03566  0.52620  1.0000
  C   C2408     1.0  0.75841  0.08867  0.55944  1.0000
  H   H3819     1.0  0.75699  0.41781  0.38926  1.0000
  H   H3820     1.0  0.75365  0.16489  0.56251  1.0000
  H   H3821     1.0  0.71186  0.16208  0.57039  1.0000
  H   H3822     1.0  0.92868  0.16319  0.39584  1.0000
  N   N237      1.0  0.81621  0.28328  0.45757  1.0000
  C   C2409     1.0  0.83117  0.28266  0.46126  1.0000
  C   C2410     1.0  0.81756  0.28843  0.44054  1.0000
  C   C2411     1.0  0.80355  0.29447  0.46548  1.0000
  C   C2412     1.0  0.81267  0.26757  0.46296  1.0000
  H   H3823     1.0  0.84107  0.27513  0.45461  1.0000
  H   H3824     1.0  0.83107  0.27776  0.47386  1.0000
  H   H3825     1.0  0.83384  0.29443  0.45823  1.0000
  H   H3826     1.0  0.80653  0.28900  0.43723  1.0000
  H   H3827     1.0  0.82022  0.30023  0.43621  1.0000
  H   H3828     1.0  0.82724  0.28046  0.43416  1.0000
  H   H3829     1.0  0.79207  0.29536  0.46285  1.0000
  H   H3830     1.0  0.80597  0.30643  0.46165  1.0000
  H   H3831     1.0  0.80221  0.29095  0.47835  1.0000
  H   H3832     1.0  0.80148  0.26750  0.46034  1.0000
  H   H3833     1.0  0.81176  0.26324  0.47575  1.0000
  H   H3834     1.0  0.82213  0.25886  0.45730  1.0000
  C   C2413     1.0  0.54251  0.14553  0.54725  1.0000
  H   H3835     1.0  0.97802  0.16604  0.44013  1.0000
  H   H3836     1.0  0.78364  0.03726  0.51360  1.0000
  H   H3837     1.0  0.53639  0.15749  0.54224  1.0000
  Fe  Fe491     1.0  0.71206  0.06632  0.44319  1.0000
  N   N238      1.0  0.60981  0.18776  0.44546  1.0000
  C   C2414     1.0  0.76455  0.41944  0.45974  1.0000
  H   H3838     1.0  0.63397  0.17993  0.43455  1.0000
  H   H3839     1.0  0.68992  0.11259  0.41753  1.0000
  H   H3840     1.0  0.59254  0.10331  0.41883  1.0000
  C   C2415     1.0  0.76161  0.06754  0.43722  1.0000
  S   S983      1.0  0.67738  0.98814  0.50017  1.0000
  H   H3841     1.0  0.70726  0.02741  0.38710  1.0000
  C   C2416     1.0  0.88239  0.33425  0.53216  1.0000
  H   H3842     1.0  0.53518  0.13728  0.54816  1.0000
  C   C2417     1.0  0.81420  0.18333  0.38980  1.0000
  H   H3843     1.0  0.91038  0.19599  0.38454  1.0000
  H   H3844     1.0  0.58100  0.11419  0.40468  1.0000
  C   C2418     1.0  0.56206  0.10597  0.43254  1.0000
  H   H3845     1.0  0.56835  0.15289  0.54866  1.0000
  H   H3846     1.0  0.59245  0.19651  0.43144  1.0000
  H   H3847     1.0  0.56815  0.08771  0.40301  1.0000
  H   H3848     1.0  0.65224  0.13450  0.40748  1.0000
  H   H3849     1.0  0.62391  0.14455  0.41751  1.0000
  H   H3850     1.0  0.56902  0.10662  0.44047  1.0000
  H   H3851     1.0  0.82637  0.03555  0.39084  1.0000
  S   S984      1.0  0.84396  0.14149  0.38204  1.0000
  H   H3852     1.0  0.64554  0.03982  0.54746  1.0000
  H   H3853     1.0  0.87624  0.35769  0.51875  1.0000
  H   H3854     1.0  0.75911  0.41849  0.47240  1.0000
  C   C2419     1.0  0.68697  0.01663  0.56789  1.0000
  H   H3855     1.0  0.56724  0.07482  0.43841  1.0000
  H   H3856     1.0  0.85391  0.38430  0.57297  1.0000
  H   H3857     1.0  0.58414  0.07200  0.42277  1.0000
  H   H3858     1.0  0.65449  0.06731  0.56472  1.0000
  C   C2420     1.0  0.87721  0.32055  0.54019  1.0000
  Fe  Fe492     1.0  0.58994  0.15764  0.42590  1.0000
  H   H3859     1.0  0.70187  0.00752  0.48132  1.0000
  C   C2421     1.0  0.58489  0.10232  0.41170  1.0000
  C   C2422     1.0  0.57711  0.08003  0.43061  1.0000
  H   H3860     1.0  0.58459  0.19380  0.45220  1.0000
  H   H3861     1.0  0.62308  0.17642  0.46324  1.0000
  H   H3862     1.0  0.55181  0.15345  0.51585  1.0000
  H   H3863     1.0  0.59227  0.09488  0.40341  1.0000
  C   C2423     1.0  0.74476  0.00749  0.38743  1.0000
  H   H3864     1.0  0.56722  0.12468  0.55676  1.0000
  C   C2424     1.0  0.56144  0.09488  0.41175  1.0000
  C   C2425     1.0  0.87231  0.34701  0.52482  1.0000
  C   C2426     1.0  0.85696  0.34615  0.52587  1.0000
  N   N239      1.0  0.57137  0.09579  0.42164  1.0000
  Fe  Fe493     1.0  0.88990  0.27176  0.51486  1.0000
  C   C2427     1.0  0.76259  0.05472  0.41247  1.0000
  C   C2428     1.0  0.65490  0.15499  0.38921  1.0000
  C   C2429     1.0  0.96210  0.24072  0.54616  1.0000
  H   H3865     1.0  0.55800  0.11808  0.42620  1.0000
  H   H3866     1.0  0.87953  0.21974  0.54435  1.0000
  N   N240      1.0  0.64568  0.00937  0.46658  1.0000
  C   C2430     1.0  0.77571  0.29843  0.38769  1.0000
  C   C2431     1.0  0.69938  0.99115  0.43465  1.0000
  C   C2432     1.0  0.66271  0.00846  0.46139  1.0000
  H   H3867     1.0  0.95158  0.30298  0.49279  1.0000
  S   S985      1.0  0.80679  0.34626  0.52389  1.0000
  H   H3868     1.0  0.55019  0.13341  0.52184  1.0000
  H   H3869     1.0  0.78544  0.38203  0.46235  1.0000
  H   H3870     1.0  0.81794  0.05629  0.41405  1.0000
  H   H3871     1.0  0.89744  0.15219  0.40643  1.0000
  H   H3872     1.0  0.85280  0.05782  0.40636  1.0000
  C   C2433     1.0  0.94549  0.26367  0.56304  1.0000
  H   H3873     1.0  0.55951  0.11652  0.54556  1.0000
  H   H3874     1.0  0.93795  0.22299  0.57049  1.0000
  H   H3875     1.0  0.74270  0.00111  0.39985  1.0000
  H   H3876     1.0  0.71067  0.01909  0.48793  1.0000
  C   C2434     1.0  0.89135  0.18193  0.40910  1.0000
  H   H3877     1.0  0.60270  0.20881  0.45411  1.0000
  C   C2435     1.0  0.64643  0.14594  0.40201  1.0000
  H   H3878     1.0  0.86790  0.25896  0.50896  1.0000
  C   C2436     1.0  0.97927  0.20046  0.40155  1.0000
  Fe  Fe494     1.0  0.87764  0.25473  0.54727  1.0000
  H   H3879     1.0  0.90934  0.15487  0.38700  1.0000
  C   C2437     1.0  0.62295  0.16648  0.40072  1.0000
  H   H3880     1.0  0.82837  0.02955  0.41060  1.0000
  C   C2438     1.0  0.73027  0.99568  0.50223  1.0000
  H   H3881     1.0  0.72889  0.02607  0.40749  1.0000
  C   C2439     1.0  0.87958  0.21404  0.55640  1.0000
  C   C2440     1.0  0.55912  0.13511  0.38321  1.0000
  H   H3882     1.0  0.77644  0.39251  0.47764  1.0000
  H   H3883     1.0  0.82165  0.41414  0.56016  1.0000
  S   S986      1.0  0.80236  0.31043  0.55897  1.0000
  N   N241      1.0  0.98660  0.21236  0.38939  1.0000
  H   H3884     1.0  0.75058  0.08961  0.55211  1.0000
  H   H3885     1.0  0.77661  0.01155  0.51975  1.0000
  H   H3886     1.0  0.92041  0.19553  0.56030  1.0000
  H   H3887     1.0  0.81144  0.20264  0.40841  1.0000
  H   H3888     1.0  0.98984  0.18575  0.44403  1.0000
  N   N242      1.0  0.71059  0.09996  0.48259  1.0000
  C   C2441     1.0  0.70101  0.09399  0.47593  1.0000
  C   C2442     1.0  0.71847  0.08700  0.49353  1.0000
  C   C2443     1.0  0.70037  0.11210  0.49098  1.0000
  C   C2444     1.0  0.72254  0.10672  0.46992  1.0000
  H   H3889     1.0  0.69201  0.08857  0.48518  1.0000
  H   H3890     1.0  0.70843  0.08495  0.46938  1.0000
  H   H3891     1.0  0.69484  0.10343  0.46765  1.0000
  H   H3892     1.0  0.72547  0.09117  0.49911  1.0000
  H   H3893     1.0  0.70986  0.08136  0.50310  1.0000
  H   H3894     1.0  0.72657  0.07784  0.48747  1.0000
  H   H3895     1.0  0.70719  0.11678  0.49631  1.0000
  H   H3896     1.0  0.69128  0.10731  0.50065  1.0000
  H   H3897     1.0  0.69425  0.12209  0.48310  1.0000
  H   H3898     1.0  0.72999  0.11134  0.47455  1.0000
  H   H3899     1.0  0.71706  0.11644  0.46134  1.0000
  H   H3900     1.0  0.73045  0.09780  0.46338  1.0000
  C   C2445     1.0  0.62195  0.18104  0.43312  1.0000
  S   S987      1.0  0.72528  0.07195  0.56250  1.0000
  H   H3901     1.0  0.69728  0.09227  0.41798  1.0000
  S   S988      1.0  0.60328  0.17442  0.40818  1.0000
  C   C2446     1.0  0.71711  0.01702  0.38831  1.0000
  H   H3902     1.0  0.64782  0.04968  0.56864  1.0000
  Fe  Fe495     1.0  0.81952  0.35995  0.53094  1.0000
  H   H3903     1.0  0.88874  0.17365  0.42049  1.0000
  H   H3904     1.0  0.78749  0.41080  0.43567  1.0000
  H   H3905     1.0  0.82696  0.07185  0.40151  1.0000
  H   H3906     1.0  0.70077  0.13199  0.39598  1.0000
  C   C2447     1.0  0.55622  0.14108  0.39655  1.0000
  C   C2448     1.0  0.73131  0.03202  0.39497  1.0000
  C   C2449     1.0  0.73285  0.99702  0.47492  1.0000
  H   H3907     1.0  0.76121  0.07247  0.44681  1.0000
  C   C2450     1.0  0.74842  0.06309  0.41978  1.0000
  H   H3908     1.0  0.71453  0.01011  0.40045  1.0000
  N   N243      1.0  0.92065  0.23902  0.46903  1.0000
  C   C2451     1.0  0.93667  0.22916  0.46702  1.0000
  C   C2452     1.0  0.91305  0.23663  0.48578  1.0000
  C   C2453     1.0  0.91144  0.23473  0.46051  1.0000
  C   C2454     1.0  0.92151  0.25559  0.46279  1.0000
  H   H3909     1.0  0.94290  0.23119  0.45458  1.0000
  H   H3910     1.0  0.93655  0.21651  0.47098  1.0000
  H   H3911     1.0  0.94382  0.23174  0.47369  1.0000
  H   H3912     1.0  0.90090  0.24379  0.48773  1.0000
  H   H3913     1.0  0.91235  0.22421  0.49087  1.0000
  H   H3914     1.0  0.91956  0.23996  0.49255  1.0000
  H   H3915     1.0  0.91668  0.23667  0.44779  1.0000
  H   H3916     1.0  0.89921  0.24179  0.46199  1.0000
  H   H3917     1.0  0.91082  0.22220  0.46462  1.0000
  H   H3918     1.0  0.90967  0.26343  0.46427  1.0000
  H   H3919     1.0  0.92706  0.25781  0.45011  1.0000
  H   H3920     1.0  0.92849  0.25921  0.46884  1.0000
  S   S989      1.0  0.88779  0.28012  0.48990  1.0000
  H   H3921     1.0  0.54300  0.14539  0.55933  1.0000
  H   H3922     1.0  0.55146  0.10174  0.43990  1.0000
  H   H3923     1.0  0.97744  0.22952  0.40344  1.0000
  H   H3924     1.0  0.98597  0.22803  0.51749  1.0000
  N   N244      1.0  0.83860  0.04904  0.39708  1.0000
  H   H3925     1.0  0.83832  0.38784  0.55393  1.0000
  S   S990      1.0  0.97895  0.25610  0.44594  1.0000
  H   H3926     1.0  0.98876  0.36302  0.48602  1.0000
  C   C2455     1.0  0.74792  0.06953  0.43211  1.0000
  C   C2456     1.0  0.85189  0.33234  0.53363  1.0000
  C   C2457     1.0  0.55729  0.14156  0.52175  1.0000
  S   S991      1.0  0.89504  0.25944  0.55751  1.0000
  H   H3927     1.0  0.80034  0.38687  0.38056  1.0000
  C   C2458     1.0  0.80357  0.01218  0.52624  1.0000
  C   C2459     1.0  0.81439  0.40827  0.57035  1.0000
  C   C2460     1.0  0.64115  0.07085  0.54179  1.0000
  H   H3928     1.0  0.69943  0.00602  0.50172  1.0000
  Fe  Fe496     1.0  0.62124  0.12655  0.56529  1.0000
  S   S992      1.0  0.74180  0.03623  0.55740  1.0000
  C   C2461     1.0  0.77699  0.40565  0.43894  1.0000
  H   H3929     1.0  0.95230  0.28952  0.48141  1.0000
  C   C2462     1.0  0.84300  0.37540  0.55318  1.0000
  C   C2463     1.0  0.61170  0.20345  0.44492  1.0000
  H   H3930     1.0  0.89416  0.33501  0.53168  1.0000
  Fe  Fe497     1.0  0.79360  0.36763  0.55852  1.0000
  H   H3931     1.0  0.93669  0.29188  0.49821  1.0000
  H   H3932     1.0  0.69245  0.08155  0.55928  1.0000
  N   N245      1.0  0.73224  0.02164  0.38475  1.0000
  H   H3933     1.0  0.71938  0.08355  0.39599  1.0000
  H   H3934     1.0  0.79464  0.02392  0.55209  1.0000
  H   H3935     1.0  0.78089  0.39415  0.43554  1.0000
  H   H3936     1.0  0.74715  0.40394  0.45284  1.0000
  H   H3937     1.0  0.75059  0.39503  0.47209  1.0000
  H   H3938     1.0  0.81586  0.25095  0.40434  1.0000
  Fe  Fe498     1.0  0.74844  0.05938  0.55051  1.0000
  H   H3939     1.0  0.62081  0.16920  0.43321  1.0000
  H   H3940     1.0  0.93901  0.27254  0.56960  1.0000
  N   N246      1.0  0.90425  0.17433  0.39790  1.0000
  C   C2464     1.0  0.77035  0.07530  0.56166  1.0000
  S   S993      1.0  0.87072  0.27945  0.53440  1.0000
  H   H3941     1.0  0.66895  0.06819  0.52160  1.0000
  Fe  Fe499     1.0  0.71809  0.04930  0.56707  1.0000
  N   N247      1.0  0.76980  0.40393  0.45575  1.0000
  H   H3942     1.0  0.68723  0.98766  0.38583  1.0000
  C   C2465     1.0  0.75622  0.39668  0.45945  1.0000
  H   H3943     1.0  0.80661  0.39653  0.55735  1.0000
  H   H3944     1.0  0.64005  0.03443  0.46290  1.0000
  C   C2466     1.0  0.93786  0.25835  0.55485  1.0000
  C   C2467     1.0  0.64271  0.99574  0.47930  1.0000
  H   H3945     1.0  0.79197  0.39886  0.46220  1.0000
  C   C2468     1.0  0.77624  0.05241  0.41773  1.0000
  C   C2469     1.0  0.78143  0.39391  0.46487  1.0000
  S   S994      1.0  0.79948  0.38053  0.53365  1.0000
  N   N248      1.0  0.65578  0.05936  0.54429  1.0000
  H   H3946     1.0  0.72736  0.16978  0.55607  1.0000
  C   C2470     1.0  0.66937  0.06563  0.53412  1.0000
  C   C2471     1.0  0.65595  0.04463  0.54047  1.0000
  C   C2472     1.0  0.65667  0.05630  0.56079  1.0000
  N   N249      1.0  0.80036  0.19550  0.39441  1.0000
  C   C2473     1.0  0.94945  0.29136  0.49350  1.0000
  H   H3947     1.0  0.94223  0.28143  0.52486  1.0000
  C   C2474     1.0  0.69695  0.02318  0.57212  1.0000
  C   C2475     1.0  0.80538  0.20761  0.39852  1.0000
  C   C2476     1.0  0.86206  0.31949  0.54069  1.0000
  C   C2477     1.0  0.97781  0.22809  0.39169  1.0000
  H   H3948     1.0  0.77886  0.19726  0.41176  1.0000
  H   H3949     1.0  0.82032  0.17741  0.39954  1.0000
  H   H3950     1.0  0.81214  0.01829  0.52722  1.0000
  H   H3951     1.0  0.66535  0.01867  0.45198  1.0000
  H   H3952     1.0  0.79100  0.04247  0.52740  1.0000
  H   H3953     1.0  0.84428  0.04226  0.41961  1.0000
  S   S995      1.0  0.84091  0.10012  0.38471  1.0000
  H   H3954     1.0  0.73600  0.00864  0.47143  1.0000
  C   C2478     1.0  0.72478  0.15978  0.56583  1.0000
  Fe  Fe500     1.0  0.78612  0.36585  0.52857  1.0000
  S   S996      1.0  0.84382  0.36266  0.51843  1.0000
  H   H3955     1.0  0.51765  0.14041  0.41003  1.0000
  Fe  Fe501     1.0  0.80016  0.33629  0.54956  1.0000
  C   C2479     1.0  0.68789  0.98693  0.43017  1.0000
  H   H3956     1.0  0.68443  0.11510  0.39242  1.0000
  C   C2480     1.0  0.52921  0.13907  0.40248  1.0000
  C   C2481     1.0  0.59411  0.18899  0.44300  1.0000
  H   H3957     1.0  0.84006  0.33158  0.53436  1.0000
  C   C2482     1.0  0.61147  0.17752  0.46082  1.0000
  S   S997      1.0  0.65839  0.01070  0.57049  1.0000
  H   H3958     1.0  0.55659  0.10668  0.40519  1.0000
  H   H3959     1.0  0.89538  0.19287  0.55090  1.0000
  H   H3960     1.0  0.80715  0.99961  0.53177  1.0000
  H   H3961     1.0  0.63069  0.06659  0.54951  1.0000
  H   H3962     1.0  0.86550  0.34898  0.55645  1.0000
  H   H3963     1.0  0.62998  0.99594  0.48347  1.0000
  S   S998      1.0  0.88955  0.30491  0.54989  1.0000
  C   C2483     1.0  0.85466  0.34948  0.56578  1.0000
  C   C2484     1.0  0.88847  0.19883  0.56010  1.0000
  C   C2485     1.0  0.78790  0.43539  0.37767  1.0000
  H   H3964     1.0  0.62097  0.18836  0.42132  1.0000
  S   S999      1.0  0.77177  0.05929  0.55399  1.0000
  H   H3965     1.0  0.84650  0.34450  0.56250  1.0000
  H   H3966     1.0  0.77924  0.99797  0.53783  1.0000
  N   N250      1.0  0.84869  0.32021  0.49091  1.0000
  C   C2486     1.0  0.83269  0.32008  0.49027  1.0000
  C   C2487     1.0  0.85983  0.31608  0.47669  1.0000
  C   C2488     1.0  0.85311  0.30872  0.50478  1.0000
  C   C2489     1.0  0.84912  0.33596  0.49189  1.0000
  H   H3967     1.0  0.82395  0.32325  0.50078  1.0000
  H   H3968     1.0  0.83194  0.30833  0.48965  1.0000
  H   H3969     1.0  0.82905  0.32856  0.47984  1.0000
  H   H3970     1.0  0.85684  0.32446  0.46594  1.0000
  H   H3971     1.0  0.87205  0.31594  0.47681  1.0000
  H   H3972     1.0  0.85981  0.30424  0.47564  1.0000
  H   H3973     1.0  0.86510  0.30861  0.50567  1.0000
  H   H3974     1.0  0.85317  0.29664  0.50435  1.0000
  H   H3975     1.0  0.84489  0.31136  0.51574  1.0000
  H   H3976     1.0  0.86094  0.33645  0.49271  1.0000
  H   H3977     1.0  0.84070  0.33951  0.50239  1.0000
  H   H3978     1.0  0.84603  0.34496  0.48154  1.0000
  C   C2490     1.0  0.98924  0.16799  0.43295  1.0000
  H   H3979     1.0  0.64746  0.16592  0.56568  1.0000
  H   H3980     1.0  0.88038  0.18644  0.40465  1.0000
  S   S1000     1.0  0.98268  0.13373  0.38213  1.0000
  C   C2491     1.0  0.53203  0.13335  0.38895  1.0000
  N   N251      1.0  0.70746  0.10723  0.39738  1.0000
  C   C2492     1.0  0.82424  0.06057  0.40195  1.0000
  H   H3981     1.0  0.78540  0.17922  0.40530  1.0000
  C   C2493     1.0  0.89988  0.16096  0.39536  1.0000
  C   C2494     1.0  0.69587  0.10713  0.38888  1.0000
  Fe  Fe502     1.0  0.79082  0.04426  0.38431  1.0000
  H   H3982     1.0  0.84141  0.19980  0.39110  1.0000
  C   C2495     1.0  0.70796  0.00743  0.49034  1.0000
  C   C2496     1.0  0.87067  0.22179  0.56826  1.0000
  N   N252      1.0  0.82851  0.26453  0.38412  1.0000
  H   H3983     1.0  0.92054  0.21576  0.55711  1.0000
  C   C2497     1.0  0.81539  0.25659  0.39196  1.0000
  C   C2498     1.0  0.72190  0.09532  0.39362  1.0000
  H   H3984     1.0  0.83376  0.37147  0.55044  1.0000
  H   H3985     1.0  0.92558  0.26319  0.55510  1.0000
  C   C2499     1.0  0.77647  0.01059  0.53216  1.0000
  H   H3986     1.0  0.72781  0.09816  0.38112  1.0000
  H   H3987     1.0  0.75418  0.14442  0.56622  1.0000
  H   H3988     1.0  0.74753  0.11134  0.56479  1.0000
  H   H3989     1.0  0.57823  0.12180  0.53785  1.0000
  Fe  Fe503     1.0  0.61296  0.15944  0.57106  1.0000
  H   H3990     1.0  0.89428  0.19198  0.41142  1.0000
  H   H3991     1.0  0.91694  0.16003  0.41536  1.0000
  N   N253      1.0  0.84754  0.36565  0.56776  1.0000
  H   H3992     1.0  0.97917  0.20144  0.41342  1.0000
  H   H3993     1.0  0.86060  0.03811  0.40379  1.0000
  H   H3994     1.0  0.78973  0.06385  0.57285  1.0000
  C   C2500     1.0  0.80590  0.39833  0.56874  1.0000
  H   H3995     1.0  0.62571  0.18707  0.38268  1.0000
  Fe  Fe504     1.0  0.58749  0.14460  0.56992  1.0000
  S   S1001     1.0  0.63621  0.10247  0.57081  1.0000
  H   H3996     1.0  0.81146  0.09493  0.38529  1.0000
  C   C2501     1.0  0.83449  0.03409  0.39850  1.0000
  H   H3997     1.0  0.81094  0.17420  0.38623  1.0000
  H   H3998     1.0  0.74240  0.03598  0.39247  1.0000
  C   C2502     1.0  0.77333  0.43277  0.37824  1.0000
  H   H3999     1.0  0.72036  0.12311  0.39864  1.0000
  C   C2503     1.0  0.64736  0.16977  0.38220  1.0000
  C   C2504     1.0  0.85900  0.37208  0.57136  1.0000
  C   C2505     1.0  0.54708  0.13109  0.37946  1.0000
  H   H4000     1.0  0.82281  0.18841  0.37980  1.0000
  H   H4001     1.0  0.84502  0.02500  0.39517  1.0000
  C   C2506     1.0  0.71129  0.12280  0.39281  1.0000
  H   H4002     1.0  0.81370  0.21320  0.38853  1.0000
  H   H4003     1.0  0.80382  0.26488  0.39176  1.0000
  Fe  Fe505     1.0  0.98546  0.23318  0.46217  1.0000
  H   H4004     1.0  0.74556  0.99927  0.38011  1.0000
  H   H4005     1.0  0.95137  0.18086  0.56878  1.0000
  H   H4006     1.0  0.71576  0.12616  0.37999  1.0000
  H   H4007     1.0  0.72245  0.99466  0.51406  1.0000
  H   H4008     1.0  0.64854  0.98456  0.47546  1.0000
  C   C2507     1.0  0.75022  0.15477  0.57163  1.0000
  C   C2508     1.0  0.88865  0.19148  0.57566  1.0000
  H   H4009     1.0  0.85084  0.27199  0.57518  1.0000
  N   N254      1.0  0.93302  0.20044  0.57439  1.0000
  C   C2509     1.0  0.74963  0.98507  0.56245  1.0000
  H   H4010     1.0  0.95175  0.13378  0.37761  1.0000
  H   H4011     1.0  0.78140  0.21133  0.38469  1.0000
  H   H4012     1.0  0.84992  0.06580  0.37937  1.0000
  H   H4013     1.0  0.84459  0.24349  0.37874  1.0000
  S   S1002     1.0  0.65533  0.98467  0.54504  1.0000
  H   H4014     1.0  0.89658  0.19010  0.37782  1.0000
  S   S1003     1.0  0.77507  0.03310  0.37825  1.0000
  C   C2510     1.0  0.79234  0.20269  0.38132  1.0000
  S   S1004     1.0  0.98219  0.17071  0.37921  1.0000
  H   H4015     1.0  0.73850  0.19532  0.37833  1.0000
  S   S1005     1.0  0.77987  0.24450  0.37843  1.0000
  H   H4016     1.0  0.73105  0.18242  0.57524  1.0000
  H   H4017     1.0  0.66571  0.08263  0.57543  1.0000
  H   H4018     1.0  0.85788  0.34163  0.57663  1.0000
  Fe  Fe506     1.0  0.85610  0.11767  0.37756  1.0000
  C   C2511     1.0  0.67173  0.01678  0.57675  1.0000
  C   C2512     1.0  0.76683  0.09981  0.57608  1.0000
  C   C2513     1.0  0.64892  0.16813  0.57615  1.0000
  C   C2514     1.0  0.72869  0.98377  0.55152  1.0000
  H   H4019     1.0  0.98959  0.42365  0.57569  1.0000
  H   H4020     1.0  0.65024  0.12301  0.57700  1.0000
  H   H4021     1.0  0.78892  0.19389  0.37740  1.0000
  H   H4022     1.0  0.76340  0.15199  0.65604  1.0000
  Fe  Fe507     1.0  0.80502  0.07915  0.61320  1.0000
  H   H4023     1.0  0.87023  0.06111  0.59077  1.0000
  S   S1006     1.0  0.81831  0.05520  0.60924  1.0000
  Fe  Fe508     1.0  0.78385  0.10036  0.63445  1.0000
  S   S1007     1.0  0.78396  0.12214  0.61564  1.0000
  S   S1008     1.0  0.77110  0.10089  0.65907  1.0000
  Fe  Fe509     1.0  0.78129  0.10725  0.60119  1.0000
  C   C2515     1.0  0.51902  0.11785  0.72479  1.0000
  Fe  Fe510     1.0  0.80974  0.11207  0.60899  1.0000
  S   S1009     1.0  0.82768  0.12709  0.60025  1.0000
  S   S1010     1.0  0.77892  0.08625  0.62061  1.0000
  S   S1011     1.0  0.80990  0.09127  0.62900  1.0000
  H   H4024     1.0  0.82457  0.42347  0.69471  1.0000
  H   H4025     1.0  0.72232  0.15161  0.67751  1.0000
  H   H4026     1.0  0.61314  0.17033  0.66154  1.0000
  Fe  Fe511     1.0  0.60372  0.18237  0.73611  1.0000
  S   S1012     1.0  0.58869  0.20651  0.73201  1.0000
  S   S1013     1.0  0.62969  0.17780  0.72684  1.0000
  Fe  Fe512     1.0  0.57627  0.16740  0.75333  1.0000
  S   S1014     1.0  0.55889  0.19028  0.75035  1.0000
  H   H4027     1.0  0.80477  0.00764  0.60678  1.0000
  Fe  Fe513     1.0  0.57303  0.19505  0.72586  1.0000
  S   S1015     1.0  0.56525  0.20307  0.70302  1.0000
  Fe  Fe514     1.0  0.57626  0.19932  0.75691  1.0000
  S   S1016     1.0  0.70363  0.03919  0.58978  1.0000
  S   S1017     1.0  0.58901  0.17134  0.72838  1.0000
  S   S1018     1.0  0.59264  0.17602  0.76156  1.0000
  Fe  Fe515     1.0  0.69482  0.15909  0.64840  1.0000
  S   S1019     1.0  0.70925  0.16391  0.62423  1.0000
  S   S1020     1.0  0.70094  0.13862  0.66753  1.0000
  Fe  Fe516     1.0  0.67061  0.18895  0.64273  1.0000
  S   S1021     1.0  0.68300  0.19667  0.61788  1.0000
  S   S1022     1.0  0.64745  0.20248  0.65382  1.0000
  Fe  Fe517     1.0  0.68632  0.17172  0.61677  1.0000
  Fe  Fe518     1.0  0.70487  0.18835  0.62736  1.0000
  S   S1023     1.0  0.72601  0.19922  0.61861  1.0000
  S   S1024     1.0  0.67215  0.16462  0.64081  1.0000
  S   S1025     1.0  0.69219  0.18291  0.65231  1.0000
  Fe  Fe519     1.0  0.75937  0.24303  0.65819  1.0000
  S   S1026     1.0  0.77088  0.25160  0.63345  1.0000
  S   S1027     1.0  0.73718  0.23419  0.66404  1.0000
  Fe  Fe520     1.0  0.78111  0.25399  0.67099  1.0000
  S   S1028     1.0  0.79438  0.26354  0.64716  1.0000
  S   S1029     1.0  0.78628  0.25594  0.69302  1.0000
  Fe  Fe521     1.0  0.77076  0.27267  0.64132  1.0000
  S   S1030     1.0  0.76282  0.29685  0.62799  1.0000
  Fe  Fe522     1.0  0.79337  0.24152  0.64155  1.0000
  S   S1031     1.0  0.81315  0.22956  0.62501  1.0000
  S   S1032     1.0  0.75748  0.26507  0.66558  1.0000
  S   S1033     1.0  0.78197  0.23094  0.66589  1.0000
  H   H4028     1.0  0.70759  0.99979  0.60440  1.0000
  H   H4029     1.0  0.98249  0.22312  0.63556  1.0000
  H   H4030     1.0  0.71103  0.29949  0.61929  1.0000
  S   S1034     1.0  0.82071  0.48311  0.61577  1.0000
  H   H4031     1.0  0.73937  0.28189  0.59914  1.0000
  H   H4032     1.0  0.73514  0.32580  0.74011  1.0000
  C   C2516     1.0  0.54702  0.17599  0.60359  1.0000
  C   C2517     1.0  0.86377  0.05854  0.60312  1.0000
  H   H4033     1.0  0.94562  0.46315  0.71743  1.0000
  S   S1035     1.0  0.79176  0.98790  0.59219  1.0000
  S   S1036     1.0  0.80708  0.09925  0.59260  1.0000
  H   H4034     1.0  0.90281  0.47088  0.76236  1.0000
  Fe  Fe523     1.0  0.88915  0.13850  0.63243  1.0000
  S   S1037     1.0  0.89594  0.14717  0.64967  1.0000
  S   S1038     1.0  0.87749  0.11808  0.64002  1.0000
  Fe  Fe524     1.0  0.89879  0.16428  0.60591  1.0000
  S   S1039     1.0  0.90624  0.17571  0.62053  1.0000
  H   H4035     1.0  0.82428  0.28907  0.58375  1.0000
  Fe  Fe525     1.0  0.91732  0.15134  0.63114  1.0000
  S   S1040     1.0  0.94014  0.14528  0.63894  1.0000
  Fe  Fe526     1.0  0.88452  0.17091  0.63806  1.0000
  S   S1041     1.0  0.87059  0.18755  0.65354  1.0000
  S   S1042     1.0  0.91178  0.14011  0.61494  1.0000
  S   S1043     1.0  0.87575  0.16199  0.62234  1.0000
  H   H4036     1.0  0.81494  0.25809  0.59775  1.0000
  H   H4037     1.0  0.83634  0.35751  0.59160  1.0000
  H   H4038     1.0  0.96270  0.24593  0.60322  1.0000
  H   H4039     1.0  0.76290  0.31720  0.77086  1.0000
  H   H4040     1.0  0.79626  0.28181  0.57991  1.0000
  C   C2518     1.0  0.82937  0.33693  0.75793  1.0000
  C   C2519     1.0  0.98311  0.40686  0.60501  1.0000
  C   C2520     1.0  0.85663  0.39956  0.70798  1.0000
  H   H4041     1.0  0.76847  0.29314  0.73022  1.0000
  N   N255      1.0  0.98020  0.24269  0.61615  1.0000
  H   H4042     1.0  0.97240  0.41411  0.60088  1.0000
  C   C2521     1.0  0.81369  0.41055  0.58510  1.0000
  H   H4043     1.0  0.82403  0.36225  0.57791  1.0000
  H   H4044     1.0  0.72573  0.17781  0.64829  1.0000
  S   S1044     1.0  0.77645  0.00464  0.63119  1.0000
  H   H4045     1.0  0.66682  0.10118  0.61145  1.0000
  H   H4046     1.0  0.98319  0.16373  0.64501  1.0000
  H   H4047     1.0  0.82684  0.26327  0.57858  1.0000
  C   C2522     1.0  0.55306  0.15188  0.59471  1.0000
  H   H4048     1.0  0.72782  0.04001  0.60793  1.0000
  C   C2523     1.0  0.87975  0.19922  0.58750  1.0000
  Fe  Fe527     1.0  0.86456  0.47623  0.72185  1.0000
  S   S1045     1.0  0.88681  0.47135  0.70420  1.0000
  H   H4049     1.0  0.81366  0.43957  0.71492  1.0000
  Fe  Fe528     1.0  0.85833  0.44423  0.72677  1.0000
  S   S1046     1.0  0.88006  0.43653  0.70953  1.0000
  Fe  Fe529     1.0  0.89141  0.44815  0.72060  1.0000
  S   S1047     1.0  0.91528  0.43692  0.72563  1.0000
  Fe  Fe530     1.0  0.87333  0.46040  0.69488  1.0000
  S   S1048     1.0  0.87232  0.46747  0.66974  1.0000
  S   S1049     1.0  0.87017  0.45390  0.73924  1.0000
  S   S1050     1.0  0.85059  0.46709  0.71125  1.0000
  H   H4050     1.0  0.83371  0.24581  0.59193  1.0000
  Fe  Fe531     1.0  0.82190  0.42934  0.60935  1.0000
  S   S1051     1.0  0.80118  0.44760  0.61767  1.0000
  S   S1052     1.0  0.82587  0.42168  0.58679  1.0000
  Fe  Fe532     1.0  0.83699  0.42609  0.63623  1.0000
  S   S1053     1.0  0.81771  0.44408  0.64645  1.0000
  S   S1054     1.0  0.85559  0.41442  0.64998  1.0000
  Fe  Fe533     1.0  0.80209  0.43200  0.64140  1.0000
  S   S1055     1.0  0.78251  0.42458  0.66080  1.0000
  Fe  Fe534     1.0  0.81898  0.45783  0.62206  1.0000
  S   S1056     1.0  0.82132  0.41295  0.63276  1.0000
  S   S1057     1.0  0.83971  0.44071  0.61198  1.0000
  H   H4051     1.0  0.54918  0.15923  0.74277  1.0000
  H   H4052     1.0  0.98683  0.41390  0.61093  1.0000
  Fe  Fe535     1.0  0.79639  0.32737  0.71497  1.0000
  S   S1058     1.0  0.78120  0.35114  0.71630  1.0000
  S   S1059     1.0  0.79668  0.32185  0.69237  1.0000
  Fe  Fe536     1.0  0.80062  0.35523  0.72404  1.0000
  S   S1060     1.0  0.81150  0.37609  0.71501  1.0000
  S   S1061     1.0  0.81666  0.33230  0.72081  1.0000
  C   C2524     1.0  0.51840  0.11009  0.70176  1.0000
  H   H4053     1.0  0.72002  0.27559  0.64822  1.0000
  H   H4054     1.0  0.87199  0.04993  0.61003  1.0000
  C   C2525     1.0  0.94103  0.18382  0.57820  1.0000
  C   C2526     1.0  0.67681  0.02909  0.59462  1.0000
  H   H4055     1.0  0.82243  0.19556  0.61956  1.0000
  H   H4056     1.0  0.74943  0.14001  0.66531  1.0000
  H   H4057     1.0  0.86934  0.39558  0.70309  1.0000
  C   C2527     1.0  0.66401  0.16612  0.57851  1.0000
  C   C2528     1.0  0.91302  0.40754  0.76611  1.0000
  H   H4058     1.0  0.83102  0.29054  0.59986  1.0000
  H   H4059     1.0  0.74928  0.17641  0.67598  1.0000
  H   H4060     1.0  0.71957  0.25631  0.63422  1.0000
  H   H4061     1.0  0.66486  0.13623  0.60390  1.0000
  S   S1062     1.0  0.81809  0.31051  0.76496  1.0000
  C   C2529     1.0  0.51764  0.12177  0.70926  1.0000
  H   H4062     1.0  0.87525  0.40539  0.77109  1.0000
  C   C2530     1.0  0.81929  0.19010  0.61174  1.0000
  H   H4063     1.0  0.87674  0.08340  0.59660  1.0000
  H   H4064     1.0  0.72746  0.25883  0.61356  1.0000
  S   S1063     1.0  0.52385  0.15690  0.67253  1.0000
  N   N256      1.0  0.85060  0.38750  0.72105  1.0000
  H   H4065     1.0  0.91860  0.39490  0.76705  1.0000
  N   N257      1.0  0.83152  0.17632  0.60800  1.0000
  H   H4066     1.0  0.58202  0.20622  0.66707  1.0000
  H   H4067     1.0  0.83801  0.17041  0.63015  1.0000
  H   H4068     1.0  0.85706  0.13613  0.59243  1.0000
  H   H4069     1.0  0.81562  0.16431  0.60505  1.0000
  C   C2531     1.0  0.81834  0.44925  0.70609  1.0000
  H   H4070     1.0  0.67278  0.03409  0.60483  1.0000
  H   H4071     1.0  0.92291  0.20183  0.59830  1.0000
  H   H4072     1.0  0.74942  0.33337  0.71297  1.0000
  H   H4073     1.0  0.73419  0.17090  0.59394  1.0000
  H   H4074     1.0  0.91477  0.41315  0.75350  1.0000
  S   S1064     1.0  0.93101  0.46548  0.77311  1.0000
  H   H4075     1.0  0.53996  0.13471  0.60910  1.0000
  S   S1065     1.0  0.49809  0.15342  0.65489  1.0000
  H   H4076     1.0  0.73706  0.30738  0.70790  1.0000
  H   H4077     1.0  0.54892  0.18757  0.60194  1.0000
  Fe  Fe537     1.0  0.80531  0.32360  0.74575  1.0000
  H   H4078     1.0  0.65427  0.17651  0.61346  1.0000
  H   H4079     1.0  0.73565  0.18886  0.66450  1.0000
  C   C2532     1.0  0.62912  0.23181  0.74524  1.0000
  C   C2533     1.0  0.79027  0.41179  0.67641  1.0000
  C   C2534     1.0  0.78070  0.40354  0.68883  1.0000
  C   C2535     1.0  0.78712  0.39253  0.70081  1.0000
  C   C2536     1.0  0.80305  0.39007  0.70053  1.0000
  C   C2537     1.0  0.81253  0.39857  0.68832  1.0000
  C   C2538     1.0  0.80620  0.40923  0.67618  1.0000
  H   H4080     1.0  0.76836  0.40549  0.68906  1.0000
  H   H4081     1.0  0.77971  0.38610  0.71034  1.0000
  H   H4082     1.0  0.82491  0.39650  0.68790  1.0000
  H   H4083     1.0  0.81377  0.41524  0.66653  1.0000
  C   C2539     1.0  0.86891  0.45254  0.66342  1.0000
  C   C2540     1.0  0.86095  0.45637  0.65138  1.0000
  C   C2541     1.0  0.85714  0.44461  0.64699  1.0000
  C   C2542     1.0  0.86153  0.42898  0.65446  1.0000
  C   C2543     1.0  0.86993  0.42509  0.66617  1.0000
  C   C2544     1.0  0.87349  0.43689  0.67074  1.0000
  H   H4084     1.0  0.85744  0.46846  0.64561  1.0000
  H   H4085     1.0  0.85086  0.44769  0.63776  1.0000
  H   H4086     1.0  0.87350  0.41299  0.67180  1.0000
  H   H4087     1.0  0.88005  0.43383  0.67970  1.0000
  C   C2545     1.0  0.91947  0.44464  0.73910  1.0000
  C   C2546     1.0  0.93415  0.43930  0.74296  1.0000
  C   C2547     1.0  0.93762  0.44551  0.75365  1.0000
  C   C2548     1.0  0.92634  0.45692  0.76063  1.0000
  C   C2549     1.0  0.91154  0.46198  0.75707  1.0000
  C   C2550     1.0  0.90820  0.45595  0.74618  1.0000
  H   H4088     1.0  0.94290  0.43048  0.73756  1.0000
  H   H4089     1.0  0.94903  0.44143  0.75654  1.0000
  Fe  Fe538     1.0  0.50350  0.17058  0.68709  1.0000
  H   H4090     1.0  0.89689  0.46001  0.74330  1.0000
  C   C2551     1.0  0.60850  0.20916  0.64530  1.0000
  C   C2552     1.0  0.75650  0.32119  0.71386  1.0000
  H   H4091     1.0  0.81099  0.46045  0.70905  1.0000
  S   S1066     1.0  0.79058  0.34699  0.74929  1.0000
  H   H4092     1.0  0.71538  0.17479  0.58925  1.0000
  H   H4093     1.0  0.61686  0.20802  0.63398  1.0000
  C   C2553     1.0  0.52155  0.10223  0.73272  1.0000
  H   H4094     1.0  0.95508  0.24681  0.62336  1.0000
  C   C2554     1.0  0.61672  0.18162  0.65587  1.0000
  Fe  Fe539     1.0  0.51238  0.17063  0.65261  1.0000
  H   H4095     1.0  0.93304  0.17598  0.57968  1.0000
  H   H4096     1.0  0.73333  0.06642  0.60126  1.0000
  H   H4097     1.0  0.88888  0.41039  0.75315  1.0000
  C   C2555     1.0  0.84140  0.42305  0.75805  1.0000
  S   S1067     1.0  0.84238  0.42765  0.73795  1.0000
  H   H4098     1.0  0.72960  0.15978  0.68903  1.0000
  C   C2556     1.0  0.75775  0.29396  0.72618  1.0000
  Fe  Fe540     1.0  0.77281  0.34030  0.74134  1.0000
  H   H4099     1.0  0.92478  0.46480  0.70397  1.0000
  H   H4100     1.0  0.70948  0.99036  0.58083  1.0000
  H   H4101     1.0  0.74022  0.25373  0.62682  1.0000
  H   H4102     1.0  0.84186  0.24733  0.61482  1.0000
  C   C2557     1.0  0.83357  0.36568  0.58072  1.0000
  H   H4103     1.0  0.60676  0.21530  0.75365  1.0000
  H   H4104     1.0  0.51552  0.13388  0.70326  1.0000
  C   C2558     1.0  0.66599  0.16894  0.59205  1.0000
  H   H4105     1.0  0.74522  0.16925  0.63942  1.0000
  S   S1068     1.0  0.50529  0.17889  0.70740  1.0000
  C   C2559     1.0  0.65283  0.17417  0.60306  1.0000
  C   C2560     1.0  0.49599  0.01554  0.76689  1.0000
  H   H4106     1.0  0.55225  0.08823  0.76662  1.0000
  C   C2561     1.0  0.74274  0.31385  0.74053  1.0000
  H   H4107     1.0  0.52536  0.15073  0.62862  1.0000
  C   C2562     1.0  0.76698  0.03855  0.59711  1.0000
  C   C2563     1.0  0.79555  0.39326  0.59659  1.0000
  H   H4108     1.0  0.84102  0.43278  0.68747  1.0000
  H   H4109     1.0  0.82947  0.43279  0.67458  1.0000
  S   S1069     1.0  0.96916  0.46396  0.73947  1.0000
  C   C2564     1.0  0.70397  0.98884  0.61167  1.0000
  H   H4110     1.0  0.61477  0.21231  0.65242  1.0000
  H   H4111     1.0  0.85569  0.17110  0.59594  1.0000
  Fe  Fe541     1.0  0.50139  0.04786  0.77054  1.0000
  C   C2565     1.0  0.52281  0.09050  0.72508  1.0000
  H   H4112     1.0  0.62299  0.20448  0.76261  1.0000
  H   H4113     1.0  0.97102  0.26589  0.62035  1.0000
  H   H4114     1.0  0.73991  0.29567  0.60962  1.0000
  H   H4115     1.0  0.58803  0.18573  0.67487  1.0000
  H   H4116     1.0  0.59035  0.18005  0.64916  1.0000
  H   H4117     1.0  0.86519  0.09125  0.61313  1.0000
  H   H4118     1.0  0.81749  0.19925  0.60107  1.0000
  H   H4119     1.0  0.96437  0.22834  0.61804  1.0000
  H   H4120     1.0  0.76855  0.03944  0.58443  1.0000
  H   H4121     1.0  0.85613  0.06039  0.63309  1.0000
  C   C2566     1.0  0.53365  0.15531  0.61860  1.0000
  C   C2567     1.0  0.55572  0.16670  0.59285  1.0000
  S   S1070     1.0  0.78658  0.31612  0.73969  1.0000
  C   C2568     1.0  0.96892  0.18180  0.63089  1.0000
  C   C2569     1.0  0.97312  0.16679  0.63982  1.0000
  C   C2570     1.0  0.96425  0.15567  0.64208  1.0000
  C   C2571     1.0  0.95116  0.15948  0.63544  1.0000
  C   C2572     1.0  0.94700  0.17449  0.62646  1.0000
  C   C2573     1.0  0.95583  0.18563  0.62423  1.0000
  H   H4122     1.0  0.61911  0.19800  0.74761  1.0000
  H   H4123     1.0  0.96757  0.14407  0.64901  1.0000
  H   H4124     1.0  0.93703  0.17751  0.62121  1.0000
  H   H4125     1.0  0.95256  0.19723  0.61730  1.0000
  C   C2574     1.0  0.78948  0.27418  0.69267  1.0000
  C   C2575     1.0  0.78744  0.28673  0.68001  1.0000
  C   C2576     1.0  0.78987  0.30124  0.67999  1.0000
  C   C2577     1.0  0.79416  0.30335  0.69269  1.0000
  C   C2578     1.0  0.79612  0.29086  0.70542  1.0000
  C   C2579     1.0  0.79384  0.27627  0.70537  1.0000
  H   H4126     1.0  0.78399  0.28525  0.67022  1.0000
  H   H4127     1.0  0.78833  0.31087  0.67011  1.0000
  H   H4128     1.0  0.79959  0.29236  0.71519  1.0000
  H   H4129     1.0  0.79550  0.26656  0.71515  1.0000
  C   C2580     1.0  0.77397  0.30040  0.60888  1.0000
  C   C2581     1.0  0.78190  0.28811  0.60133  1.0000
  H   H4130     1.0  0.83544  0.15875  0.59501  1.0000
  C   C2582     1.0  0.99038  0.39271  0.58444  1.0000
  H   H4131     1.0  0.83034  0.44824  0.70752  1.0000
  C   C2583     1.0  0.77477  0.31575  0.60106  1.0000
  H   H4132     1.0  0.78141  0.27622  0.60730  1.0000
  Fe  Fe542     1.0  0.50649  0.08049  0.76410  1.0000
  H   H4133     1.0  0.63551  0.10830  0.60111  1.0000
  H   H4134     1.0  0.76873  0.32528  0.60687  1.0000
  C   C2584     1.0  0.82923  0.21879  0.63315  1.0000
  C   C2585     1.0  0.84230  0.21108  0.62377  1.0000
  C   C2586     1.0  0.85498  0.20157  0.63009  1.0000
  C   C2587     1.0  0.85483  0.20000  0.64572  1.0000
  C   C2588     1.0  0.84199  0.20820  0.65503  1.0000
  C   C2589     1.0  0.82912  0.21755  0.64876  1.0000
  H   H4135     1.0  0.84246  0.21231  0.61164  1.0000
  H   H4136     1.0  0.86496  0.19548  0.62290  1.0000
  H   H4137     1.0  0.84184  0.20706  0.66715  1.0000
  H   H4138     1.0  0.81908  0.22361  0.65604  1.0000
  C   C2590     1.0  0.72901  0.20912  0.63114  1.0000
  C   C2591     1.0  0.74359  0.21281  0.62862  1.0000
  C   C2592     1.0  0.74633  0.22036  0.63874  1.0000
  C   C2593     1.0  0.73441  0.22438  0.65133  1.0000
  C   C2594     1.0  0.71984  0.22072  0.65380  1.0000
  C   C2595     1.0  0.71714  0.21310  0.64376  1.0000
  H   H4139     1.0  0.75282  0.20973  0.61888  1.0000
  H   H4140     1.0  0.75764  0.22305  0.63680  1.0000
  H   H4141     1.0  0.71057  0.22386  0.66350  1.0000
  H   H4142     1.0  0.70580  0.21051  0.64567  1.0000
  H   H4143     1.0  0.51744  0.12696  0.73082  1.0000
  C   C2596     1.0  0.63449  0.18443  0.70652  1.0000
  C   C2597     1.0  0.62384  0.19603  0.69878  1.0000
  C   C2598     1.0  0.62809  0.20188  0.68270  1.0000
  C   C2599     1.0  0.64274  0.19564  0.67413  1.0000
  C   C2600     1.0  0.65321  0.18371  0.68179  1.0000
  C   C2601     1.0  0.64922  0.17834  0.69801  1.0000
  H   H4144     1.0  0.61240  0.20072  0.70518  1.0000
  H   H4145     1.0  0.61999  0.21121  0.67692  1.0000
  H   H4146     1.0  0.66439  0.17857  0.67528  1.0000
  H   H4147     1.0  0.65745  0.16925  0.70389  1.0000
  C   C2602     1.0  0.54787  0.19793  0.70353  1.0000
  C   C2603     1.0  0.52213  0.19322  0.71731  1.0000
  C   C2604     1.0  0.53549  0.19841  0.71659  1.0000
  H   H4148     1.0  0.51266  0.19343  0.72753  1.0000
  H   H4149     1.0  0.53625  0.20267  0.72620  1.0000
  H   H4150     1.0  0.81343  0.28382  0.60337  1.0000
  H   H4151     1.0  0.69094  0.99140  0.61437  1.0000
  H   H4152     1.0  0.82873  0.37744  0.58342  1.0000
  H   H4153     1.0  0.78640  0.08523  0.58580  1.0000
  N   N258      1.0  0.62941  0.21808  0.73953  1.0000
  H   H4154     1.0  0.75684  0.14789  0.67692  1.0000
  N   N259      1.0  0.60307  0.19456  0.65330  1.0000
  C   C2605     1.0  0.85969  0.38353  0.73325  1.0000
  S   S1071     1.0  0.76449  0.11502  0.58531  1.0000
  H   H4155     1.0  0.73577  0.14220  0.60025  1.0000
  H   H4156     1.0  0.82312  0.25936  0.62085  1.0000
  N   N260      1.0  0.74767  0.30985  0.72504  1.0000
  S   S1072     1.0  0.78709  0.37688  0.58054  1.0000
  H   H4157     1.0  0.65455  0.12549  0.62145  1.0000
  C   C2606     1.0  0.75303  0.15052  0.66576  1.0000
  H   H4158     1.0  0.50054  0.16840  0.61996  1.0000
  H   H4159     1.0  0.53845  0.07619  0.77627  1.0000
  C   C2607     1.0  0.61911  0.20856  0.75138  1.0000
  C   C2608     1.0  0.62378  0.22331  0.72487  1.0000
  C   C2609     1.0  0.84181  0.12367  0.61125  1.0000
  C   C2610     1.0  0.85521  0.12987  0.60448  1.0000
  C   C2611     1.0  0.86622  0.12814  0.61326  1.0000
  C   C2612     1.0  0.86405  0.11989  0.62876  1.0000
  C   C2613     1.0  0.85096  0.11319  0.63538  1.0000
  C   C2614     1.0  0.83975  0.11522  0.62669  1.0000
  H   H4160     1.0  0.95189  0.46311  0.68920  1.0000
  H   H4161     1.0  0.87644  0.13313  0.60801  1.0000
  H   H4162     1.0  0.84923  0.10685  0.64740  1.0000
  H   H4163     1.0  0.82937  0.11058  0.63207  1.0000
  C   C2615     1.0  0.75130  0.11032  0.66086  1.0000
  C   C2616     1.0  0.74168  0.11005  0.67575  1.0000
  C   C2617     1.0  0.72608  0.11837  0.67758  1.0000
  C   C2618     1.0  0.72008  0.12720  0.66455  1.0000
  C   C2619     1.0  0.72958  0.12726  0.64960  1.0000
  C   C2620     1.0  0.74520  0.11876  0.64774  1.0000
  H   H4164     1.0  0.74635  0.10348  0.68589  1.0000
  H   H4165     1.0  0.71874  0.11819  0.68915  1.0000
  H   H4166     1.0  0.72491  0.13374  0.63948  1.0000
  H   H4167     1.0  0.75253  0.11884  0.63620  1.0000
  H   H4168     1.0  0.82348  0.16085  0.62950  1.0000
  H   H4169     1.0  0.58424  0.20053  0.64135  1.0000
  H   H4170     1.0  0.55481  0.40165  0.77570  1.0000
  H   H4171     1.0  0.53266  0.18283  0.68230  1.0000
  C   C2621     1.0  0.78862  0.01822  0.62508  1.0000
  C   C2622     1.0  0.80163  0.01722  0.61262  1.0000
  C   C2623     1.0  0.81077  0.02855  0.60785  1.0000
  C   C2624     1.0  0.80670  0.04113  0.61524  1.0000
  C   C2625     1.0  0.79360  0.04218  0.62757  1.0000
  C   C2626     1.0  0.78474  0.03066  0.63260  1.0000
  H   H4172     1.0  0.84467  0.18992  0.58811  1.0000
  H   H4173     1.0  0.97978  0.39655  0.61392  1.0000
  H   H4174     1.0  0.79053  0.05166  0.63354  1.0000
  H   H4175     1.0  0.77480  0.03142  0.64235  1.0000
  C   C2627     1.0  0.66559  0.10809  0.59960  1.0000
  H   H4176     1.0  0.62758  0.17993  0.60936  1.0000
  H   H4177     1.0  0.80337  0.40498  0.60959  1.0000
  C   C2628     1.0  0.79129  0.30663  0.57810  1.0000
  C   C2629     1.0  0.80407  0.40319  0.59821  1.0000
  C   C2630     1.0  0.83423  0.16508  0.62263  1.0000
  C   C2631     1.0  0.72873  0.26094  0.62450  1.0000
  H   H4178     1.0  0.77082  0.02600  0.60243  1.0000
  H   H4179     1.0  0.71662  0.14629  0.59626  1.0000
  N   N261      1.0  0.54892  0.14424  0.72847  1.0000
  C   C2632     1.0  0.54253  0.14560  0.71484  1.0000
  C   C2633     1.0  0.54508  0.15971  0.73229  1.0000
  C   C2634     1.0  0.56612  0.13861  0.72474  1.0000
  C   C2635     1.0  0.54194  0.13317  0.74200  1.0000
  H   H4180     1.0  0.54513  0.13416  0.71153  1.0000
  H   H4181     1.0  0.54748  0.15400  0.70450  1.0000
  H   H4182     1.0  0.52957  0.15000  0.71722  1.0000
  H   H4183     1.0  0.55074  0.16813  0.72259  1.0000
  H   H4184     1.0  0.53221  0.16454  0.73469  1.0000
  C   C2636     1.0  0.74529  0.17822  0.66505  1.0000
  H   H4185     1.0  0.57128  0.13766  0.73476  1.0000
  H   H4186     1.0  0.57174  0.14677  0.71463  1.0000
  H   H4187     1.0  0.56945  0.12691  0.72184  1.0000
  H   H4188     1.0  0.54423  0.12142  0.73943  1.0000
  H   H4189     1.0  0.52900  0.13732  0.74537  1.0000
  H   H4190     1.0  0.54675  0.13180  0.75235  1.0000
  H   H4191     1.0  0.97979  0.39944  0.57985  1.0000
  H   H4192     1.0  0.87223  0.37832  0.72893  1.0000
  S   S1073     1.0  0.90097  0.17313  0.58016  1.0000
  C   C2637     1.0  0.86990  0.08027  0.60871  1.0000
  H   H4193     1.0  0.78454  0.33067  0.58005  1.0000
  H   H4194     1.0  0.80207  0.44894  0.67699  1.0000
  H   H4195     1.0  0.84057  0.26602  0.61858  1.0000
  S   S1074     1.0  0.97970  0.19605  0.62795  1.0000
  C   C2638     1.0  0.82718  0.25820  0.59107  1.0000
  C   C2639     1.0  0.80243  0.44933  0.68891  1.0000
  C   C2640     1.0  0.85216  0.37341  0.71532  1.0000
  H   H4196     1.0  0.79428  0.46032  0.69160  1.0000
  H   H4197     1.0  0.91949  0.41262  0.77141  1.0000
  C   C2641     1.0  0.98043  0.25946  0.61224  1.0000
  H   H4198     1.0  0.82871  0.38444  0.73689  1.0000
  S   S1075     1.0  0.68495  0.16488  0.59542  1.0000
  H   H4199     1.0  0.75198  0.27648  0.61261  1.0000
  C   C2642     1.0  0.74021  0.28315  0.61060  1.0000
  H   H4200     1.0  0.85512  0.41056  0.71179  1.0000
  N   N262      1.0  0.91053  0.17086  0.67503  1.0000
  C   C2643     1.0  0.92107  0.15522  0.67557  1.0000
  C   C2644     1.0  0.91168  0.17950  0.65865  1.0000
  C   C2645     1.0  0.91520  0.17954  0.68377  1.0000
  C   C2646     1.0  0.89420  0.16923  0.68205  1.0000
  H   H4201     1.0  0.91780  0.14829  0.66918  1.0000
  H   H4202     1.0  0.92073  0.14838  0.68773  1.0000
  H   H4203     1.0  0.93345  0.15602  0.66998  1.0000
  H   H4204     1.0  0.90882  0.17293  0.65167  1.0000
  H   H4205     1.0  0.90334  0.19108  0.65767  1.0000
  H   H4206     1.0  0.92372  0.18138  0.65310  1.0000
  H   H4207     1.0  0.90755  0.19145  0.68345  1.0000
  H   H4208     1.0  0.92751  0.18090  0.67877  1.0000
  H   H4209     1.0  0.91441  0.17340  0.69621  1.0000
  H   H4210     1.0  0.89025  0.16286  0.67563  1.0000
  H   H4211     1.0  0.88589  0.18083  0.68165  1.0000
  H   H4212     1.0  0.89282  0.16274  0.69440  1.0000
  N   N263      1.0  0.75055  0.04486  0.60430  1.0000
  Fe  Fe543     1.0  0.50758  0.14115  0.67625  1.0000
  C   C2647     1.0  0.74571  0.06127  0.59627  1.0000
  C   C2648     1.0  0.74917  0.04416  0.62093  1.0000
  C   C2649     1.0  0.54194  0.14623  0.60754  1.0000
  H   H4213     1.0  0.91389  0.48208  0.71086  1.0000
  H   H4214     1.0  0.63778  0.10880  0.61985  1.0000
  N   N264      1.0  0.81851  0.44855  0.69010  1.0000
  C   C2650     1.0  0.82630  0.16886  0.59851  1.0000
  C   C2651     1.0  0.82546  0.28334  0.59596  1.0000
  H   H4215     1.0  0.72860  0.29222  0.63781  1.0000
  H   H4216     1.0  0.87817  0.07240  0.61598  1.0000
  H   H4217     1.0  0.73608  0.30554  0.74931  1.0000
  C   C2652     1.0  0.73536  0.16730  0.64962  1.0000
  C   C2653     1.0  0.72655  0.16191  0.67756  1.0000
  H   H4218     1.0  0.84759  0.36409  0.72483  1.0000
  H   H4219     1.0  0.62311  0.18375  0.66354  1.0000
  N   N265      1.0  0.79680  0.36695  0.66191  1.0000
  C   C2654     1.0  0.79730  0.38203  0.65060  1.0000
  C   C2655     1.0  0.78109  0.36778  0.67235  1.0000
  C   C2656     1.0  0.80866  0.36359  0.67129  1.0000
  C   C2657     1.0  0.80012  0.35437  0.65344  1.0000
  H   H4220     1.0  0.80901  0.38188  0.64257  1.0000
  H   H4221     1.0  0.79481  0.39180  0.65658  1.0000
  H   H4222     1.0  0.78847  0.38501  0.64334  1.0000
  H   H4223     1.0  0.77829  0.37704  0.67906  1.0000
  H   H4224     1.0  0.77180  0.37049  0.66567  1.0000
  H   H4225     1.0  0.78031  0.35651  0.68092  1.0000
  H   H4226     1.0  0.80855  0.35229  0.67998  1.0000
  H   H4227     1.0  0.80646  0.37284  0.67786  1.0000
  H   H4228     1.0  0.82068  0.36291  0.66385  1.0000
  H   H4229     1.0  0.79984  0.34281  0.66164  1.0000
  H   H4230     1.0  0.81191  0.35338  0.64549  1.0000
  H   H4231     1.0  0.79135  0.35650  0.64628  1.0000
  H   H4232     1.0  0.76730  0.32085  0.71744  1.0000
  C   C2658     1.0  0.77868  0.08637  0.57834  1.0000
  H   H4233     1.0  0.78828  0.38742  0.60678  1.0000
  H   H4234     1.0  0.85046  0.40239  0.69828  1.0000
  C   C2659     1.0  0.65394  0.13175  0.60927  1.0000
  N   N266      1.0  0.72759  0.27766  0.62337  1.0000
  H   H4235     1.0  0.52191  0.08536  0.70377  1.0000
  C   C2660     1.0  0.92314  0.47775  0.70125  1.0000
  H   H4236     1.0  0.67671  0.11202  0.59363  1.0000
  H   H4237     1.0  0.84355  0.15464  0.62030  1.0000
  S   S1076     1.0  0.74726  0.34553  0.75251  1.0000
  H   H4238     1.0  0.94515  0.18090  0.58924  1.0000
  C   C2661     1.0  0.96490  0.24088  0.61517  1.0000
  C   C2662     1.0  0.63575  0.17277  0.58743  1.0000
  C   C2663     1.0  0.85075  0.26704  0.58779  1.0000
  H   H4239     1.0  0.70244  0.28298  0.62963  1.0000
  H   H4240     1.0  0.65371  0.21538  0.72779  1.0000
  C   C2664     1.0  0.59244  0.19648  0.66848  1.0000
  C   C2665     1.0  0.52122  0.09443  0.70959  1.0000
  H   H4241     1.0  0.55611  0.19242  0.68080  1.0000
  S   S1077     1.0  0.51453  0.11513  0.68312  1.0000
  H   H4242     1.0  0.85921  0.39405  0.73739  1.0000
  H   H4243     1.0  0.72586  0.32225  0.71851  1.0000
  H   H4244     1.0  0.80785  0.18690  0.61782  1.0000
  H   H4245     1.0  0.76028  0.31864  0.70199  1.0000
  C   C2666     1.0  0.73370  0.31039  0.71955  1.0000
  H   H4246     1.0  0.73109  0.15731  0.64890  1.0000
  C   C2667     1.0  0.53338  0.18722  0.69184  1.0000
  H   H4247     1.0  0.95438  0.47960  0.71334  1.0000
  H   H4248     1.0  0.65017  0.20431  0.74756  1.0000
  S   S1078     1.0  0.52480  0.18250  0.62936  1.0000
  H   H4249     1.0  0.64614  0.19812  0.73240  1.0000
  C   C2668     1.0  0.84076  0.40789  0.76660  1.0000
  C   C2669     1.0  0.53602  0.17031  0.61651  1.0000
  H   H4250     1.0  0.97334  0.24151  0.64088  1.0000
  C   C2670     1.0  0.52121  0.18727  0.70512  1.0000
  Fe  Fe544     1.0  0.95442  0.47120  0.76146  1.0000
  H   H4251     1.0  0.61703  0.23914  0.74757  1.0000
  C   C2671     1.0  0.84640  0.08391  0.59968  1.0000
  H   H4252     1.0  0.79766  0.43934  0.69705  1.0000
  C   C2672     1.0  0.59463  0.19100  0.64351  1.0000
  C   C2673     1.0  0.54665  0.19266  0.69100  1.0000
  C   C2674     1.0  0.79035  0.29126  0.58585  1.0000
  C   C2675     1.0  0.83391  0.39355  0.72764  1.0000
  H   H4253     1.0  0.75319  0.06864  0.59712  1.0000
  H   H4254     1.0  0.71647  0.17213  0.67683  1.0000
  H   H4255     1.0  0.77514  0.04492  0.59848  1.0000
  H   H4256     1.0  0.86458  0.36845  0.71030  1.0000
  N   N267      1.0  0.85716  0.07291  0.60927  1.0000
  H   H4257     1.0  0.84073  0.09464  0.60429  1.0000
  H   H4258     1.0  0.85660  0.27402  0.59165  1.0000
  H   H4259     1.0  0.82519  0.46145  0.66661  1.0000
  C   C2676     1.0  0.78362  0.31883  0.58580  1.0000
  C   C2677     1.0  0.83511  0.25966  0.61355  1.0000
  H   H4260     1.0  0.94646  0.48094  0.67547  1.0000
  H   H4261     1.0  0.82454  0.34026  0.74767  1.0000
  C   C2678     1.0  0.79663  0.39061  0.58190  1.0000
  H   H4262     1.0  0.82092  0.02764  0.59833  1.0000
  C   C2679     1.0  0.82884  0.43373  0.68660  1.0000
  C   C2680     1.0  0.72921  0.27976  0.63823  1.0000
  H   H4263     1.0  0.96137  0.47884  0.68567  1.0000
  H   H4264     1.0  0.83230  0.40360  0.73294  1.0000
  H   H4265     1.0  0.61155  0.23038  0.72657  1.0000
  H   H4266     1.0  0.62702  0.12568  0.60859  1.0000
  H   H4267     1.0  0.52499  0.07838  0.73112  1.0000
  H   H4268     1.0  0.59856  0.21916  0.64298  1.0000
  H   H4269     1.0  0.60231  0.18952  0.63195  1.0000
  H   H4270     1.0  0.75298  0.31365  0.74500  1.0000
  H   H4271     1.0  0.88028  0.19366  0.59943  1.0000
  N   N268      1.0  0.74008  0.16448  0.66451  1.0000
  C   C2681     1.0  0.74292  0.33650  0.77235  1.0000
  C   C2682     1.0  0.71222  0.28682  0.62019  1.0000
  H   H4272     1.0  0.62531  0.18022  0.64473  1.0000
  C   C2683     1.0  0.98265  0.23576  0.63217  1.0000
  H   H4273     1.0  0.64053  0.14019  0.58436  1.0000
  H   H4274     1.0  0.85432  0.05276  0.60352  1.0000
  N   N269      1.0  0.65203  0.12150  0.60028  1.0000
  C   C2684     1.0  0.49547  0.17774  0.61083  1.0000
  S   S1079     1.0  0.75670  0.98440  0.61324  1.0000
  H   H4275     1.0  0.97860  0.26508  0.60024  1.0000
  H   H4276     1.0  0.66434  0.10008  0.59303  1.0000
  C   C2685     1.0  0.49700  0.99944  0.77133  1.0000
  H   H4277     1.0  0.85508  0.37497  0.74362  1.0000
  H   H4278     1.0  0.81679  0.47325  0.68086  1.0000
  C   C2686     1.0  0.72937  0.14435  0.59086  1.0000
  H   H4279     1.0  0.83645  0.46178  0.67967  1.0000
  H   H4280     1.0  0.75694  0.05089  0.62241  1.0000
  S   S1080     1.0  0.56645  0.14604  0.76519  1.0000
  C   C2687     1.0  0.94334  0.47612  0.71428  1.0000
  C   C2688     1.0  0.87068  0.21435  0.58383  1.0000
  C   C2689     1.0  0.82817  0.32267  0.76833  1.0000
  H   H4281     1.0  0.89032  0.43335  0.76077  1.0000
  C   C2690     1.0  0.82447  0.46184  0.67885  1.0000
  H   H4282     1.0  0.75255  0.03192  0.62742  1.0000
  Fe  Fe545     1.0  0.77904  0.98696  0.61713  1.0000
  H   H4283     1.0  0.98754  0.38184  0.59270  1.0000
  H   H4284     1.0  0.74069  0.27306  0.64089  1.0000
  H   H4285     1.0  0.82365  0.17717  0.58763  1.0000
  H   H4286     1.0  0.75513  0.18085  0.65505  1.0000
  H   H4287     1.0  0.74367  0.02305  0.60895  1.0000
  S   S1081     1.0  0.52200  0.09753  0.75246  1.0000
  C   C2691     1.0  0.63774  0.17613  0.60071  1.0000
  C   C2692     1.0  0.64558  0.20859  0.73671  1.0000
  S   S1082     1.0  0.60518  0.13738  0.58470  1.0000
  C   C2693     1.0  0.69179  0.02961  0.58537  1.0000
  H   H4288     1.0  0.59841  0.19910  0.67623  1.0000
  H   H4289     1.0  0.84537  0.37603  0.70614  1.0000
  C   C2694     1.0  0.88796  0.40397  0.76554  1.0000
  H   H4290     1.0  0.93456  0.48056  0.72415  1.0000
  C   C2695     1.0  0.74037  0.03548  0.60287  1.0000
  N   N270      1.0  0.73316  0.15775  0.57819  1.0000
  C   C2696     1.0  0.63746  0.11580  0.60783  1.0000
  H   H4291     1.0  0.91104  0.19633  0.58895  1.0000
  H   H4292     1.0  0.84353  0.07948  0.63067  1.0000
  H   H4293     1.0  0.73697  0.04901  0.62667  1.0000
  H   H4294     1.0  0.83971  0.39926  0.76114  1.0000
  C   C2697     1.0  0.84846  0.06893  0.62556  1.0000
  H   H4295     1.0  0.83852  0.06368  0.62634  1.0000
  H   H4296     1.0  0.85810  0.25496  0.58876  1.0000
  H   H4297     1.0  0.85259  0.08762  0.58740  1.0000
  C   C2698     1.0  0.84242  0.43419  0.76536  1.0000
  N   N271      1.0  0.83463  0.26707  0.59709  1.0000
  H   H4298     1.0  0.84218  0.44610  0.75900  1.0000
  S   S1083     1.0  0.49329  0.18578  0.66692  1.0000
  H   H4299     1.0  0.56426  0.17115  0.58299  1.0000
  H   H4300     1.0  0.85070  0.18662  0.60601  1.0000
  H   H4301     1.0  0.72675  0.30198  0.72771  1.0000
  H   H4302     1.0  0.74673  0.06219  0.58369  1.0000
  H   H4303     1.0  0.89288  0.39135  0.76560  1.0000
  H   H4304     1.0  0.49382  0.17196  0.60239  1.0000
  S   S1084     1.0  0.85462  0.35511  0.77521  1.0000
  H   H4305     1.0  0.82685  0.39751  0.71856  1.0000
  H   H4306     1.0  0.65489  0.02303  0.59704  1.0000
  H   H4307     1.0  0.49206  0.20276  0.62253  1.0000
  H   H4308     1.0  0.80092  0.48180  0.64704  1.0000
  N   N272      1.0  0.93789  0.48241  0.69955  1.0000
  H   H4309     1.0  0.76167  0.29057  0.71468  1.0000
  H   H4310     1.0  0.62387  0.21316  0.72035  1.0000
  H   H4311     1.0  0.75153  0.28505  0.73451  1.0000
  H   H4312     1.0  0.83692  0.07857  0.59945  1.0000
  H   H4313     1.0  0.74127  0.03561  0.59047  1.0000
  H   H4314     1.0  0.71061  0.28550  0.60905  1.0000
  H   H4315     1.0  0.50708  0.99174  0.77556  1.0000
  H   H4316     1.0  0.86418  0.22052  0.59297  1.0000
  C   C2699     1.0  0.84626  0.18122  0.59912  1.0000
  H   H4317     1.0  0.63321  0.22824  0.75637  1.0000
  H   H4318     1.0  0.50451  0.18477  0.60470  1.0000
  H   H4319     1.0  0.91858  0.48244  0.69039  1.0000
  H   H4320     1.0  0.64400  0.14211  0.60975  1.0000
  H   H4321     1.0  0.73270  0.13339  0.58650  1.0000
  H   H4322     1.0  0.63130  0.23049  0.71560  1.0000
  H   H4323     1.0  0.86274  0.36502  0.58226  1.0000
  H   H4324     1.0  0.63676  0.23933  0.73663  1.0000
  H   H4325     1.0  0.75696  0.15228  0.58083  1.0000
  C   C2700     1.0  0.66671  0.02286  0.59020  1.0000
  H   H4326     1.0  0.83800  0.35778  0.75241  1.0000
  C   C2701     1.0  0.84385  0.34263  0.77355  1.0000
  C   C2702     1.0  0.83715  0.34683  0.76055  1.0000
  Fe  Fe546     1.0  0.98914  0.45949  0.75095  1.0000
  H   H4327     1.0  0.91275  0.21619  0.58441  1.0000
  S   S1085     1.0  0.49636  0.06901  0.75164  1.0000
  C   C2703     1.0  0.91935  0.20387  0.58711  1.0000
  S   S1086     1.0  0.56772  0.21502  0.77423  1.0000
  H   H4328     1.0  0.66161  0.13540  0.57836  1.0000
  N   N273      1.0  0.89620  0.40988  0.77374  1.0000
  H   H4329     1.0  0.70787  0.98617  0.62280  1.0000
  S   S1087     1.0  0.51108  0.02320  0.76813  1.0000
  C   C2704     1.0  0.94990  0.47606  0.68690  1.0000
  S   S1088     1.0  0.97408  0.46469  0.77374  1.0000
  C   C2705     1.0  0.72826  0.17208  0.58443  1.0000
  H   H4330     1.0  0.59597  0.14087  0.77416  1.0000
  S   S1089     1.0  0.61671  0.17384  0.58567  1.0000
  H   H4331     1.0  0.94876  0.20780  0.58316  1.0000
  S   S1090     1.0  0.56318  0.14051  0.58084  1.0000
  C   C2706     1.0  0.65108  0.13044  0.58431  1.0000
  C   C2707     1.0  0.88939  0.42669  0.77304  1.0000
  H   H4332     1.0  0.73220  0.98379  0.59331  1.0000
  H   H4333     1.0  0.99129  0.23972  0.59280  1.0000
  H   H4334     1.0  0.54879  0.01592  0.88165  1.0000
  Fe  Fe547     1.0  0.53457  0.10209  0.84633  1.0000
  S   S1091     1.0  0.55591  0.08439  0.83859  1.0000
  S   S1092     1.0  0.51674  0.11246  0.83164  1.0000
  Fe  Fe548     1.0  0.54547  0.10360  0.87442  1.0000
  S   S1093     1.0  0.56803  0.08620  0.86886  1.0000
  S   S1094     1.0  0.53663  0.11607  0.89440  1.0000
  Fe  Fe549     1.0  0.56861  0.09935  0.84405  1.0000
  H   H4335     1.0  0.76966  0.32865  0.82152  1.0000
  Fe  Fe550     1.0  0.55307  0.07287  0.86397  1.0000
  S   S1095     1.0  0.55297  0.04737  0.87486  1.0000
  S   S1096     1.0  0.54738  0.11785  0.85002  1.0000
  S   S1097     1.0  0.53043  0.08948  0.87128  1.0000
  Fe  Fe551     1.0  0.55884  0.17220  0.95205  1.0000
  S   S1098     1.0  0.57919  0.17907  0.95548  1.0000
  S   S1099     1.0  0.53494  0.18711  0.95795  1.0000
  Fe  Fe552     1.0  0.57798  0.14153  0.94355  1.0000
  S   S1100     1.0  0.59974  0.14546  0.94738  1.0000
  S   S1101     1.0  0.58195  0.12015  0.93386  1.0000
  Fe  Fe553     1.0  0.58461  0.15418  0.96852  1.0000
  C   C2708     1.0  0.50701  0.02000  0.81290  1.0000
  Fe  Fe554     1.0  0.59218  0.16979  0.93401  1.0000
  S   S1102     1.0  0.60958  0.17873  0.91297  1.0000
  S   S1103     1.0  0.56349  0.14772  0.96614  1.0000
  S   S1104     1.0  0.57109  0.16553  0.92920  1.0000
  C   C2709     1.0  0.55755  0.40858  0.88524  1.0000
  Fe  Fe555     1.0  0.57798  0.27506  0.82923  1.0000
  C   C2710     1.0  0.56086  0.37936  0.81088  1.0000
  Fe  Fe556     1.0  0.59416  0.25549  0.85501  1.0000
  S   S1105     1.0  0.61736  0.24992  0.83868  1.0000
  S   S1106     1.0  0.58849  0.24954  0.88114  1.0000
  Fe  Fe557     1.0  0.61184  0.27539  0.82728  1.0000
  S   S1107     1.0  0.63123  0.28884  0.81962  1.0000
  S   S1108     1.0  0.58951  0.28116  0.84471  1.0000
  S   S1109     1.0  0.58090  0.24974  0.84099  1.0000
  H   H4336     1.0  0.55462  0.99660  0.86520  1.0000
  S   S1110     1.0  0.51274  0.33677  0.87847  1.0000
  Fe  Fe558     1.0  0.58819  0.43082  0.84775  1.0000
  S   S1111     1.0  0.60602  0.44562  0.83600  1.0000
  S   S1112     1.0  0.58296  0.41354  0.83752  1.0000
  Fe  Fe559     1.0  0.58311  0.43883  0.87879  1.0000
  S   S1113     1.0  0.60065  0.45389  0.87008  1.0000
  S   S1114     1.0  0.56954  0.43523  0.90346  1.0000
  Fe  Fe560     1.0  0.58967  0.46330  0.84940  1.0000
  Fe  Fe561     1.0  0.61547  0.43516  0.85768  1.0000
  S   S1115     1.0  0.64097  0.42675  0.85847  1.0000
  S   S1116     1.0  0.57080  0.44949  0.85903  1.0000
  S   S1117     1.0  0.59897  0.41909  0.86845  1.0000
  Fe  Fe562     1.0  0.66201  0.44111  0.92367  1.0000
  S   S1118     1.0  0.64559  0.44819  0.94494  1.0000
  S   S1119     1.0  0.67468  0.41618  0.92466  1.0000
  H   H4337     1.0  0.52070  0.09799  0.78827  1.0000
  H   H4338     1.0  0.66322  0.46924  0.85641  1.0000
  S   S1120     1.0  0.98871  0.34810  0.84972  1.0000
  Fe  Fe563     1.0  0.62910  0.46053  0.92904  1.0000
  S   S1121     1.0  0.60363  0.46084  0.93906  1.0000
  S   S1122     1.0  0.67325  0.46165  0.91689  1.0000
  S   S1123     1.0  0.64489  0.45175  0.90817  1.0000
  H   H4339     1.0  0.56031  0.39577  0.88998  1.0000
  Fe  Fe564     1.0  0.75682  0.35170  0.92953  1.0000
  S   S1124     1.0  0.75757  0.37665  0.91796  1.0000
  S   S1125     1.0  0.74924  0.33456  0.92104  1.0000
  Fe  Fe565     1.0  0.75204  0.38057  0.94220  1.0000
  Fe  Fe566     1.0  0.65464  0.47303  0.90328  1.0000
  Fe  Fe567     1.0  0.78249  0.36969  0.92057  1.0000
  S   S1126     1.0  0.79978  0.37957  0.89994  1.0000
  Fe  Fe568     1.0  0.69544  0.34571  0.86306  1.0000
  S   S1127     1.0  0.70734  0.35291  0.83800  1.0000
  S   S1128     1.0  0.69753  0.35848  0.88027  1.0000
  Fe  Fe569     1.0  0.67691  0.32616  0.85502  1.0000
  S   S1129     1.0  0.68778  0.33184  0.82955  1.0000
  S   S1130     1.0  0.65632  0.31402  0.86428  1.0000
  Fe  Fe570     1.0  0.71015  0.32792  0.83726  1.0000
  S   S1131     1.0  0.73288  0.31511  0.82453  1.0000
  Fe  Fe571     1.0  0.68398  0.35613  0.83272  1.0000
  S   S1132     1.0  0.67180  0.37666  0.81716  1.0000
  S   S1133     1.0  0.69977  0.32020  0.86285  1.0000
  S   S1134     1.0  0.67167  0.35092  0.85771  1.0000
  N   N274      1.0  0.55499  0.39386  0.80009  1.0000
  H   H4340     1.0  0.87673  0.42876  0.77889  1.0000
  C   C2711     1.0  0.52704  0.03002  0.81724  1.0000
  H   H4341     1.0  0.50911  0.24196  0.94965  1.0000
  Fe  Fe572     1.0  0.60352  0.24662  0.82332  1.0000
  C   C2712     1.0  0.94583  0.36157  0.82413  1.0000
  Fe  Fe573     1.0  0.85623  0.38266  0.81230  1.0000
  S   S1135     1.0  0.87394  0.37346  0.79283  1.0000
  S   S1136     1.0  0.84806  0.40859  0.80786  1.0000
  Fe  Fe574     1.0  0.85671  0.35052  0.83250  1.0000
  S   S1137     1.0  0.87435  0.33870  0.81424  1.0000
  S   S1138     1.0  0.84787  0.33655  0.85625  1.0000
  Fe  Fe575     1.0  0.88663  0.35797  0.81099  1.0000
  S   S1139     1.0  0.91299  0.35438  0.80630  1.0000
  Fe  Fe576     1.0  0.85981  0.35549  0.79777  1.0000
  H   H4342     1.0  0.49979  0.18768  0.93780  1.0000
  S   S1140     1.0  0.86998  0.36865  0.83025  1.0000
  S   S1141     1.0  0.84115  0.36572  0.81636  1.0000
  H   H4343     1.0  0.65721  0.25006  0.85856  1.0000
  S   S1142     1.0  0.51376  0.05867  0.78125  1.0000
  S   S1143     1.0  0.52250  0.25443  0.91800  1.0000
  H   H4344     1.0  0.64423  0.22942  0.87632  1.0000
  H   H4345     1.0  0.64570  0.26511  0.88747  1.0000
  H   H4346     1.0  0.95176  0.44842  0.80683  1.0000
  C   C2713     1.0  0.52834  0.32917  0.81392  1.0000
  S   S1144     1.0  0.61172  0.22610  0.81144  1.0000
  H   H4347     1.0  0.77867  0.27545  0.96426  1.0000
  H   H4348     1.0  0.68515  0.47262  0.97308  1.0000
  H   H4349     1.0  0.53919  0.17749  0.79730  1.0000
  Fe  Fe577     1.0  0.51661  0.36540  0.82309  1.0000
  H   H4350     1.0  0.53288  0.40998  0.87387  1.0000
  H   H4351     1.0  0.66316  0.47002  0.83659  1.0000
  C   C2714     1.0  0.64596  0.25879  0.86045  1.0000
  H   H4352     1.0  0.53591  0.01187  0.79612  1.0000
  H   H4353     1.0  0.89547  0.43175  0.77877  1.0000
  C   C2715     1.0  0.49276  0.09068  0.81683  1.0000
  H   H4354     1.0  0.77716  0.31226  0.93385  1.0000
  H   H4355     1.0  0.57216  0.30889  0.81225  1.0000
  S   S1145     1.0  0.98737  0.37760  0.81880  1.0000
  S   S1146     1.0  0.78225  0.34443  0.93052  1.0000
  C   C2716     1.0  0.50065  0.19998  0.93223  1.0000
  H   H4356     1.0  0.50591  0.31500  0.90733  1.0000
  H   H4357     1.0  0.54001  0.40057  0.91387  1.0000
  C   C2717     1.0  0.53767  0.41321  0.90823  1.0000
  H   H4358     1.0  0.53349  0.19223  0.90427  1.0000
  H   H4359     1.0  0.94058  0.41272  0.80568  1.0000
  C   C2718     1.0  0.93701  0.37085  0.83475  1.0000
  C   C2719     1.0  0.92068  0.37538  0.83644  1.0000
  C   C2720     1.0  0.91318  0.37054  0.82768  1.0000
  C   C2721     1.0  0.92197  0.36106  0.81722  1.0000
  C   C2722     1.0  0.93832  0.35669  0.81540  1.0000
  N   N275      1.0  0.54094  0.41565  0.89108  1.0000
  H   H4360     1.0  0.91381  0.38266  0.84458  1.0000
  H   H4361     1.0  0.90063  0.37421  0.82899  1.0000
  H   H4362     1.0  0.94520  0.34937  0.80731  1.0000
  N   N276      1.0  0.51009  0.20139  0.91610  1.0000
  H   H4363     1.0  0.54810  0.06483  0.80727  1.0000
  H   H4364     1.0  0.58107  0.16934  0.81354  1.0000
  C   C2723     1.0  0.51913  0.00719  0.83480  1.0000
  H   H4365     1.0  0.60264  0.98526  0.81086  1.0000
  H   H4366     1.0  0.55323  0.29776  0.85311  1.0000
  C   C2724     1.0  0.53140  0.10107  0.78913  1.0000
  H   H4367     1.0  0.84769  0.32512  0.79423  1.0000
  H   H4368     1.0  0.55890  0.15751  0.83032  1.0000
  H   H4369     1.0  0.58110  0.16069  0.79818  1.0000
  C   C2725     1.0  0.73607  0.32285  0.80435  1.0000
  C   C2726     1.0  0.74908  0.31568  0.79436  1.0000
  H   H4370     1.0  0.74890  0.31298  0.96135  1.0000
  H   H4371     1.0  0.97578  0.41065  0.79748  1.0000
  H   H4372     1.0  0.55830  0.06939  0.77871  1.0000
  C   C2727     1.0  0.72625  0.33662  0.79822  1.0000
  H   H4373     1.0  0.75647  0.30483  0.79902  1.0000
  H   H4374     1.0  0.77757  0.38815  0.97622  1.0000
  H   H4375     1.0  0.52927  0.03675  0.80503  1.0000
  H   H4376     1.0  0.71619  0.34226  0.80581  1.0000
  C   C2728     1.0  0.81330  0.36730  0.88821  1.0000
  C   C2729     1.0  0.81589  0.35103  0.89299  1.0000
  C   C2730     1.0  0.82655  0.34160  0.88314  1.0000
  C   C2731     1.0  0.83452  0.34842  0.86846  1.0000
  C   C2732     1.0  0.83186  0.36467  0.86368  1.0000
  C   C2733     1.0  0.82137  0.37408  0.87358  1.0000
  H   H4377     1.0  0.80986  0.34572  0.90432  1.0000
  H   H4378     1.0  0.82862  0.32902  0.88689  1.0000
  H   H4379     1.0  0.83790  0.37005  0.85235  1.0000
  H   H4380     1.0  0.81941  0.38667  0.86984  1.0000
  C   C2734     1.0  0.73544  0.34165  0.90903  1.0000
  C   C2735     1.0  0.73324  0.33165  0.90101  1.0000
  C   C2736     1.0  0.72199  0.33680  0.89175  1.0000
  C   C2737     1.0  0.71270  0.35194  0.89065  1.0000
  C   C2738     1.0  0.71511  0.36203  0.89845  1.0000
  C   C2739     1.0  0.72652  0.35696  0.90751  1.0000
  H   H4381     1.0  0.74010  0.31979  0.90211  1.0000
  H   H4382     1.0  0.72020  0.32892  0.88583  1.0000
  H   H4383     1.0  0.70802  0.37378  0.89763  1.0000
  H   H4384     1.0  0.72807  0.36476  0.91367  1.0000
  Fe  Fe578     1.0  0.50757  0.38949  0.84289  1.0000
  H   H4385     1.0  0.79253  0.35708  0.79368  1.0000
  C   C2740     1.0  0.84214  0.40362  0.78216  1.0000
  C   C2741     1.0  0.84391  0.41455  0.78927  1.0000
  C   C2742     1.0  0.84361  0.42996  0.78099  1.0000
  C   C2743     1.0  0.55209  0.18752  0.81488  1.0000
  H   H4386     1.0  0.50987  0.01433  0.84240  1.0000
  H   H4387     1.0  0.84205  0.39176  0.78855  1.0000
  H   H4388     1.0  0.84470  0.43851  0.78653  1.0000
  H   H4389     1.0  0.53000  0.00405  0.83934  1.0000
  H   H4390     1.0  0.55816  0.41749  0.79210  1.0000
  C   C2744     1.0  0.53894  0.07575  0.80551  1.0000
  C   C2745     1.0  0.69158  0.41219  0.93183  1.0000
  C   C2746     1.0  0.70208  0.39774  0.93164  1.0000
  C   C2747     1.0  0.71567  0.39443  0.93735  1.0000
  C   C2748     1.0  0.71868  0.40551  0.94337  1.0000
  C   C2749     1.0  0.70807  0.41988  0.94378  1.0000
  C   C2750     1.0  0.69455  0.42325  0.93793  1.0000
  H   H4391     1.0  0.69979  0.38915  0.92697  1.0000
  H   H4392     1.0  0.72377  0.38326  0.93713  1.0000
  H   H4393     1.0  0.68639  0.43436  0.93823  1.0000
  Fe  Fe579     1.0  0.97239  0.37115  0.84259  1.0000
  H   H4394     1.0  0.62726  0.23846  0.86815  1.0000
  C   C2751     1.0  0.96382  0.42096  0.82425  1.0000
  H   H4395     1.0  0.56554  0.41369  0.88858  1.0000
  H   H4396     1.0  0.65498  0.24498  0.88749  1.0000
  H   H4397     1.0  0.63823  0.47290  0.87588  1.0000
  C   C2752     1.0  0.62060  0.26540  0.87736  1.0000
  C   C2753     1.0  0.65008  0.41369  0.84605  1.0000
  C   C2754     1.0  0.64221  0.41206  0.83568  1.0000
  C   C2755     1.0  0.64931  0.40127  0.82613  1.0000
  C   C2756     1.0  0.66398  0.39159  0.82746  1.0000
  C   C2757     1.0  0.67183  0.39311  0.83789  1.0000
  C   C2758     1.0  0.66506  0.40444  0.84688  1.0000
  H   H4398     1.0  0.63065  0.41905  0.83500  1.0000
  H   H4399     1.0  0.64322  0.40016  0.81806  1.0000
  H   H4400     1.0  0.68319  0.38564  0.83894  1.0000
  H   H4401     1.0  0.67135  0.40575  0.85465  1.0000
  C   C2759     1.0  0.57931  0.44088  0.91426  1.0000
  C   C2760     1.0  0.59554  0.43956  0.90965  1.0000
  C   C2761     1.0  0.60316  0.44545  0.91737  1.0000
  C   C2762     1.0  0.59457  0.45258  0.92976  1.0000
  C   C2763     1.0  0.57844  0.45333  0.93475  1.0000
  C   C2764     1.0  0.57081  0.44744  0.92703  1.0000
  H   H4402     1.0  0.60224  0.43399  0.90014  1.0000
  H   H4403     1.0  0.61561  0.44455  0.91366  1.0000
  H   H4404     1.0  0.68435  0.41082  0.97046  1.0000
  H   H4405     1.0  0.55828  0.44843  0.93067  1.0000
  N   N277      1.0  0.63580  0.25402  0.87584  1.0000
  H   H4406     1.0  0.53808  0.02708  0.82148  1.0000
  Fe  Fe580     1.0  0.50739  0.35569  0.85803  1.0000
  H   H4407     1.0  0.93903  0.44115  0.80016  1.0000
  C   C2765     1.0  0.69746  0.47160  0.96637  1.0000
  H   H4408     1.0  0.55703  0.16568  0.78859  1.0000
  H   H4409     1.0  0.61976  0.47725  0.84312  1.0000
  H   H4410     1.0  0.56451  0.33754  0.80185  1.0000
  C   C2766     1.0  0.96779  0.42241  0.79674  1.0000
  S   S1147     1.0  0.49932  0.38828  0.82238  1.0000
  C   C2767     1.0  0.53075  0.40826  0.88672  1.0000
  C   C2768     1.0  0.54323  0.39848  0.84575  1.0000
  C   C2769     1.0  0.55885  0.39897  0.84417  1.0000
  C   C2770     1.0  0.56313  0.41331  0.84080  1.0000
  C   C2771     1.0  0.55166  0.42717  0.83943  1.0000
  H   H4411     1.0  0.54000  0.38738  0.84873  1.0000
  H   H4412     1.0  0.56764  0.38822  0.84554  1.0000
  H   H4413     1.0  0.55492  0.43829  0.83681  1.0000
  C   C2772     1.0  0.63789  0.29578  0.83228  1.0000
  C   C2773     1.0  0.65272  0.29945  0.82740  1.0000
  C   C2774     1.0  0.65855  0.30487  0.83714  1.0000
  C   C2775     1.0  0.64952  0.30687  0.85183  1.0000
  C   C2776     1.0  0.63459  0.30335  0.85667  1.0000
  C   C2777     1.0  0.62876  0.29789  0.84692  1.0000
  H   H4414     1.0  0.65984  0.29791  0.81607  1.0000
  H   H4415     1.0  0.67010  0.30739  0.83328  1.0000
  H   H4416     1.0  0.62746  0.30504  0.86795  1.0000
  H   H4417     1.0  0.61719  0.29542  0.85064  1.0000
  H   H4418     1.0  0.70503  0.46307  0.97400  1.0000
  C   C2778     1.0  0.53416  0.20672  0.94867  1.0000
  C   C2779     1.0  0.52149  0.21799  0.95419  1.0000
  C   C2780     1.0  0.51911  0.23333  0.94550  1.0000
  C   C2781     1.0  0.52899  0.23729  0.93102  1.0000
  C   C2782     1.0  0.54245  0.22636  0.92609  1.0000
  C   C2783     1.0  0.54515  0.21104  0.93506  1.0000
  H   H4419     1.0  0.72197  0.35403  0.77756  1.0000
  N   N278      1.0  0.52176  0.01577  0.81838  1.0000
  H   H4420     1.0  0.55020  0.22943  0.91491  1.0000
  H   H4421     1.0  0.55513  0.20238  0.93088  1.0000
  C   C2784     1.0  0.60287  0.19819  0.90397  1.0000
  C   C2785     1.0  0.60879  0.20351  0.88806  1.0000
  C   C2786     1.0  0.60379  0.21913  0.88077  1.0000
  C   C2787     1.0  0.59336  0.22959  0.88955  1.0000
  C   C2788     1.0  0.58739  0.22425  0.90543  1.0000
  C   C2789     1.0  0.59192  0.20849  0.91259  1.0000
  H   H4422     1.0  0.61723  0.19555  0.88136  1.0000
  H   H4423     1.0  0.60827  0.22315  0.86846  1.0000
  H   H4424     1.0  0.57928  0.23232  0.91223  1.0000
  H   H4425     1.0  0.58732  0.20445  0.92487  1.0000
  H   H4426     1.0  0.64018  0.26022  0.85074  1.0000
  C   C2790     1.0  0.59445  0.20754  0.78599  1.0000
  C   C2791     1.0  0.54841  0.30578  0.81919  1.0000
  H   H4427     1.0  0.52914  0.30370  0.89141  1.0000
  H   H4428     1.0  0.69838  0.46664  0.95625  1.0000
  H   H4429     1.0  0.62206  0.27717  0.87702  1.0000
  H   H4430     1.0  0.51810  0.03782  0.82440  1.0000
  H   H4431     1.0  0.95527  0.42151  0.83556  1.0000
  H   H4432     1.0  0.56406  0.23859  0.79094  1.0000
  H   H4433     1.0  0.55674  0.18626  0.82528  1.0000
  H   H4434     1.0  0.53286  0.39546  0.89164  1.0000
  H   H4435     1.0  0.96226  0.42472  0.78668  1.0000
  C   C2792     1.0  0.56786  0.11949  0.80816  1.0000
  H   H4436     1.0  0.52364  0.28516  0.89768  1.0000
  H   H4437     1.0  0.55987  0.11378  0.81763  1.0000
  C   C2793     1.0  0.54957  0.11734  0.90491  1.0000
  C   C2794     1.0  0.56396  0.10672  0.90518  1.0000
  C   C2795     1.0  0.57363  0.10752  0.91438  1.0000
  C   C2796     1.0  0.56918  0.11917  0.92301  1.0000
  C   C2797     1.0  0.55492  0.12996  0.92252  1.0000
  C   C2798     1.0  0.54505  0.12890  0.91366  1.0000
  H   H4438     1.0  0.56751  0.09775  0.89851  1.0000
  H   H4439     1.0  0.58467  0.09915  0.91472  1.0000
  H   H4440     1.0  0.55139  0.13893  0.92920  1.0000
  H   H4441     1.0  0.53387  0.13706  0.91358  1.0000
  C   C2799     1.0  0.50762  0.09847  0.83044  1.0000
  H   H4442     1.0  0.75764  0.34134  0.79926  1.0000
  H   H4443     1.0  0.76471  0.35866  0.79590  1.0000
  H   H4444     1.0  0.52525  0.41844  0.91303  1.0000
  S   S1148     1.0  0.77699  0.37574  0.94397  1.0000
  C   C2800     1.0  0.51023  0.08332  0.83964  1.0000
  C   C2801     1.0  0.53188  0.41232  0.84353  1.0000
  H   H4445     1.0  0.51720  0.08037  0.84828  1.0000
  C   C2802     1.0  0.56336  0.01207  0.84403  1.0000
  C   C2803     1.0  0.56619  0.02712  0.83742  1.0000
  C   C2804     1.0  0.56271  0.03814  0.84667  1.0000
  C   C2805     1.0  0.55654  0.03413  0.86269  1.0000
  C   C2806     1.0  0.55354  0.01913  0.86927  1.0000
  C   C2807     1.0  0.55682  0.00817  0.85997  1.0000
  H   H4446     1.0  0.57133  0.03020  0.82512  1.0000
  H   H4447     1.0  0.56523  0.04958  0.84150  1.0000
  H   H4448     1.0  0.53040  0.99485  0.80942  1.0000
  C   C2808     1.0  0.59304  0.12647  0.79743  1.0000
  H   H4449     1.0  0.72643  0.47677  0.95971  1.0000
  H   H4450     1.0  0.53625  0.26531  0.88110  1.0000
  H   H4451     1.0  0.75809  0.28411  0.96626  1.0000
  H   H4452     1.0  0.97521  0.43106  0.79402  1.0000
  C   C2809     1.0  0.51133  0.21782  0.90942  1.0000
  C   C2810     1.0  0.49562  0.07546  0.82573  1.0000
  H   H4453     1.0  0.63278  0.46924  0.96462  1.0000
  H   H4454     1.0  0.52542  0.17880  0.92112  1.0000
  H   H4455     1.0  0.55863  0.40921  0.81214  1.0000
  C   C2811     1.0  0.63659  0.47131  0.97387  1.0000
  H   H4456     1.0  0.76305  0.30047  0.93931  1.0000
  C   C2812     1.0  0.64349  0.25348  0.88828  1.0000
  H   H4457     1.0  0.49755  0.02758  0.81991  1.0000
  C   C2813     1.0  0.58807  0.13502  0.78368  1.0000
  C   C2814     1.0  0.55995  0.31455  0.81265  1.0000
  S   S1149     1.0  0.53394  0.35839  0.80212  1.0000
  C   C2815     1.0  0.54466  0.27277  0.87405  1.0000
  N   N279      1.0  0.95593  0.42338  0.81142  1.0000
  H   H4458     1.0  0.52374  0.30630  0.82463  1.0000
  H   H4459     1.0  0.55125  0.12846  0.79335  1.0000
  H   H4460     1.0  0.61474  0.26656  0.86780  1.0000
  C   C2816     1.0  0.63309  0.23841  0.87734  1.0000
  H   H4461     1.0  0.51312  0.21478  0.96485  1.0000
  H   H4462     1.0  0.52807  0.10702  0.79905  1.0000
  H   H4463     1.0  0.63331  0.45725  0.87127  1.0000
  S   S1150     1.0  0.63705  0.48301  0.92244  1.0000
  H   H4464     1.0  0.63610  0.24996  0.90004  1.0000
  H   H4465     1.0  0.76908  0.34839  0.78056  1.0000
  H   H4466     1.0  0.53908  0.18977  0.81846  1.0000
  H   H4467     1.0  0.62529  0.23452  0.88875  1.0000
  H   H4468     1.0  0.54526  0.00252  0.81233  1.0000
  C   C2817     1.0  0.55792  0.09169  0.79279  1.0000
  C   C2818     1.0  0.55424  0.15967  0.81971  1.0000
  H   H4469     1.0  0.83376  0.30740  0.78963  1.0000
  C   C2819     1.0  0.56205  0.40648  0.80038  1.0000
  C   C2820     1.0  0.94525  0.43896  0.80970  1.0000
  H   H4470     1.0  0.53204  0.38944  0.80448  1.0000
  N   N280      1.0  0.66105  0.39547  0.89722  1.0000
  C   C2821     1.0  0.64737  0.40643  0.90430  1.0000
  C   C2822     1.0  0.66786  0.38352  0.90960  1.0000
  C   C2823     1.0  0.67296  0.40420  0.88712  1.0000
  C   C2824     1.0  0.65605  0.38773  0.88783  1.0000
  H   H4471     1.0  0.64202  0.41561  0.89520  1.0000
  H   H4472     1.0  0.65075  0.41250  0.91144  1.0000
  H   H4473     1.0  0.63811  0.40029  0.91201  1.0000
  H   H4474     1.0  0.67808  0.37500  0.90458  1.0000
  H   H4475     1.0  0.67201  0.38891  0.91677  1.0000
  H   H4476     1.0  0.65917  0.37682  0.91758  1.0000
  H   H4477     1.0  0.68326  0.39635  0.88122  1.0000
  H   H4478     1.0  0.67733  0.40978  0.89396  1.0000
  H   H4479     1.0  0.66805  0.41367  0.87798  1.0000
  H   H4480     1.0  0.66620  0.37992  0.88171  1.0000
  H   H4481     1.0  0.65025  0.39641  0.87881  1.0000
  H   H4482     1.0  0.64757  0.38049  0.89519  1.0000
  N   N281      1.0  0.78224  0.33722  0.79846  1.0000
  S   S1151     1.0  0.51250  0.41200  0.84415  1.0000
  H   H4483     1.0  0.53481  0.10973  0.77829  1.0000
  C   C2825     1.0  0.78631  0.32197  0.79404  1.0000
  C   C2826     1.0  0.79527  0.34535  0.79098  1.0000
  H   H4484     1.0  0.88182  0.40274  0.79629  1.0000
  C   C2827     1.0  0.53265  0.31308  0.81965  1.0000
  C   C2828     1.0  0.58008  0.21786  0.78459  1.0000
  H   H4485     1.0  0.50122  0.18414  0.91130  1.0000
  H   H4486     1.0  0.72000  0.48039  0.94186  1.0000
  C   C2829     1.0  0.94689  0.41119  0.81497  1.0000
  H   H4487     1.0  0.78715  0.32341  0.78138  1.0000
  H   H4488     1.0  0.97089  0.42986  0.82196  1.0000
  H   H4489     1.0  0.66660  0.41868  0.96338  1.0000
  H   H4490     1.0  0.65803  0.45375  0.85173  1.0000
  N   N282      1.0  0.54421  0.08709  0.79125  1.0000
  C   C2830     1.0  0.55563  0.33071  0.80670  1.0000
  H   H4491     1.0  0.52730  0.43743  0.83914  1.0000
  C   C2831     1.0  0.49860  0.10221  0.81929  1.0000
  H   H4492     1.0  0.51476  0.28810  0.87410  1.0000
  H   H4493     1.0  0.54514  0.41869  0.91191  1.0000
  H   H4494     1.0  0.54688  0.20417  0.97521  1.0000
  H   H4495     1.0  0.79794  0.34698  0.77809  1.0000
  C   C2832     1.0  0.52591  0.19130  0.91620  1.0000
  C   C2833     1.0  0.72958  0.34333  0.78222  1.0000
  H   H4496     1.0  0.58096  0.24319  0.80556  1.0000
  H   H4497     1.0  0.79109  0.31327  0.95318  1.0000
  H   H4498     1.0  0.95842  0.35800  0.82275  1.0000
  C   C2834     1.0  0.54855  0.07988  0.77763  1.0000
  H   H4499     1.0  0.56022  0.29503  0.87039  1.0000
  C   C2835     1.0  0.54954  0.29883  0.86549  1.0000
  C   C2836     1.0  0.76782  0.34684  0.79331  1.0000
  Fe  Fe581     1.0  0.65487  0.47006  0.93660  1.0000
  H   H4500     1.0  0.51812  0.41332  0.89089  1.0000
  H   H4501     1.0  0.95465  0.39929  0.81616  1.0000
  H   H4502     1.0  0.54033  0.43484  0.87115  1.0000
  H   H4503     1.0  0.56056  0.41056  0.87231  1.0000
  N   N283      1.0  0.77304  0.30053  0.95802  1.0000
  H   H4504     1.0  0.51849  0.30740  0.86770  1.0000
  N   N284      1.0  0.60665  0.14549  0.89110  1.0000
  C   C2837     1.0  0.61069  0.14121  0.90651  1.0000
  C   C2838     1.0  0.61988  0.13828  0.87989  1.0000
  C   C2839     1.0  0.60344  0.16266  0.88565  1.0000
  C   C2840     1.0  0.59257  0.13979  0.89242  1.0000
  H   H4505     1.0  0.60093  0.14644  0.91519  1.0000
  H   H4506     1.0  0.62114  0.14549  0.90611  1.0000
  H   H4507     1.0  0.61303  0.12835  0.91115  1.0000
  H   H4508     1.0  0.61722  0.14123  0.86812  1.0000
  H   H4509     1.0  0.63069  0.14234  0.87868  1.0000
  H   H4510     1.0  0.62259  0.12531  0.88372  1.0000
  H   H4511     1.0  0.60023  0.16639  0.87410  1.0000
  H   H4512     1.0  0.61383  0.16735  0.88457  1.0000
  H   H4513     1.0  0.59366  0.16848  0.89400  1.0000
  H   H4514     1.0  0.58903  0.14282  0.88108  1.0000
  H   H4515     1.0  0.58244  0.14483  0.90101  1.0000
  H   H4516     1.0  0.59464  0.12687  0.89652  1.0000
  H   H4517     1.0  0.89952  0.38862  0.79121  1.0000
  H   H4518     1.0  0.50857  0.02639  0.80051  1.0000
  C   C2841     1.0  0.64856  0.47936  0.97040  1.0000
  S   S1152     1.0  0.56862  0.99843  0.83203  1.0000
  C   C2842     1.0  0.57305  0.13559  0.78215  1.0000
  S   S1153     1.0  0.94594  0.37704  0.84606  1.0000
  H   H4519     1.0  0.50282  0.00938  0.81369  1.0000
  H   H4520     1.0  0.53622  0.08068  0.81603  1.0000
  S   S1154     1.0  0.49958  0.35122  0.83888  1.0000
  S   S1155     1.0  0.66013  0.48279  0.95154  1.0000
  H   H4521     1.0  0.55497  0.09698  0.80310  1.0000
  C   C2843     1.0  0.49595  0.31834  0.90197  1.0000
  H   H4522     1.0  0.79012  0.32725  0.81986  1.0000
  H   H4523     1.0  0.57507  0.40323  0.79728  1.0000
  H   H4524     1.0  0.61236  0.26176  0.88852  1.0000
  H   H4525     1.0  0.80625  0.33857  0.79485  1.0000
  H   H4526     1.0  0.77741  0.31494  0.80048  1.0000
  N   N285      1.0  0.89245  0.33563  0.86343  1.0000
  C   C2844     1.0  0.90818  0.33540  0.86517  1.0000
  C   C2845     1.0  0.89364  0.33337  0.84774  1.0000
  C   C2846     1.0  0.88186  0.35081  0.86547  1.0000
  C   C2847     1.0  0.88608  0.32295  0.87529  1.0000
  H   H4527     1.0  0.90776  0.33724  0.87681  1.0000
  H   H4528     1.0  0.91333  0.34477  0.85623  1.0000
  H   H4529     1.0  0.91648  0.32409  0.86376  1.0000
  H   H4530     1.0  0.89822  0.34281  0.83846  1.0000
  H   H4531     1.0  0.90168  0.32212  0.84569  1.0000
  H   H4532     1.0  0.88202  0.33330  0.84607  1.0000
  H   H4533     1.0  0.86990  0.35144  0.86408  1.0000
  H   H4534     1.0  0.88634  0.36069  0.85680  1.0000
  H   H4535     1.0  0.88053  0.35282  0.87726  1.0000
  H   H4536     1.0  0.87418  0.32295  0.87421  1.0000
  H   H4537     1.0  0.88500  0.32424  0.88730  1.0000
  H   H4538     1.0  0.89368  0.31129  0.87404  1.0000
  C   C2848     1.0  0.57521  0.23060  0.79185  1.0000
  N   N286      1.0  0.77319  0.36571  0.87282  1.0000
  C   C2849     1.0  0.78817  0.36258  0.86143  1.0000
  C   C2850     1.0  0.76970  0.38200  0.87462  1.0000
  C   C2851     1.0  0.77447  0.35493  0.88800  1.0000
  C   C2852     1.0  0.76040  0.36332  0.86734  1.0000
  H   H4539     1.0  0.79128  0.35036  0.85985  1.0000
  H   H4540     1.0  0.79800  0.36427  0.86533  1.0000
  H   H4541     1.0  0.78772  0.37057  0.84984  1.0000
  H   H4542     1.0  0.75845  0.38480  0.88310  1.0000
  H   H4543     1.0  0.77903  0.38415  0.87896  1.0000
  H   H4544     1.0  0.76882  0.39050  0.86337  1.0000
  H   H4545     1.0  0.76320  0.35665  0.89665  1.0000
  H   H4546     1.0  0.78355  0.35682  0.89284  1.0000
  H   H4547     1.0  0.77753  0.34249  0.88709  1.0000
  H   H4548     1.0  0.74894  0.36560  0.87574  1.0000
  H   H4549     1.0  0.76254  0.35108  0.86606  1.0000
  H   H4550     1.0  0.75903  0.37125  0.85590  1.0000
  C   C2853     1.0  0.50412  0.07184  0.83735  1.0000
  H   H4551     1.0  0.68308  0.43729  0.97422  1.0000
  N   N287      1.0  0.53610  0.06327  0.91700  1.0000
  C   C2854     1.0  0.52737  0.05555  0.91110  1.0000
  C   C2855     1.0  0.53774  0.05480  0.93296  1.0000
  C   C2856     1.0  0.52757  0.07960  0.91717  1.0000
  C   C2857     1.0  0.55181  0.06314  0.90671  1.0000
  H   H4552     1.0  0.52591  0.06171  0.89907  1.0000
  H   H4553     1.0  0.51549  0.05525  0.91861  1.0000
  H   H4554     1.0  0.53371  0.04333  0.91042  1.0000
  H   H4555     1.0  0.54434  0.06034  0.93767  1.0000
  H   H4556     1.0  0.52610  0.05466  0.94106  1.0000
  H   H4557     1.0  0.54417  0.04245  0.93319  1.0000
  H   H4558     1.0  0.53405  0.08595  0.92112  1.0000
  H   H4559     1.0  0.51573  0.08022  0.92496  1.0000
  H   H4560     1.0  0.52598  0.08629  0.90533  1.0000
  H   H4561     1.0  0.55085  0.06909  0.89459  1.0000
  H   H4562     1.0  0.55866  0.05102  0.90628  1.0000
  H   H4563     1.0  0.55869  0.06921  0.91046  1.0000
  H   H4564     1.0  0.57179  0.45874  0.94441  1.0000
  H   H4565     1.0  0.57381  0.37550  0.80757  1.0000
  N   N288      1.0  0.55856  0.17353  0.80808  1.0000
  C   C2858     1.0  0.67134  0.41333  0.97411  1.0000
  C   C2859     1.0  0.57580  0.17111  0.80342  1.0000
  H   H4566     1.0  0.55415  0.38146  0.78364  1.0000
  C   C2860     1.0  0.55216  0.17586  0.79424  1.0000
  H   H4567     1.0  0.57938  0.18137  0.79465  1.0000
  H   H4568     1.0  0.80008  0.35840  0.96444  1.0000
  C   C2861     1.0  0.58478  0.23323  0.80014  1.0000
  H   H4569     1.0  0.57215  0.38760  0.78004  1.0000
  H   H4570     1.0  0.50567  0.35037  0.78932  1.0000
  S   S1156     1.0  0.98234  0.38417  0.85373  1.0000
  C   C2862     1.0  0.50241  0.19647  0.90658  1.0000
  H   H4571     1.0  0.51663  0.22208  0.91657  1.0000
  H   H4572     1.0  0.56787  0.08147  0.79438  1.0000
  H   H4573     1.0  0.55779  0.38096  0.82303  1.0000
  H   H4574     1.0  0.76246  0.40008  0.96624  1.0000
  H   H4575     1.0  0.60473  0.12583  0.79856  1.0000
  C   C2863     1.0  0.63265  0.47006  0.86795  1.0000
  H   H4576     1.0  0.71044  0.42847  0.94838  1.0000
  S   S1157     1.0  0.73567  0.40143  0.95040  1.0000
  C   C2864     1.0  0.63238  0.47129  0.84132  1.0000
  S   S1158     1.0  0.55307  0.28577  0.82728  1.0000
  C   C2865     1.0  0.56297  0.12783  0.79439  1.0000
  S   S1159     1.0  0.74871  0.35635  0.95366  1.0000
  C   C2866     1.0  0.60402  0.21016  0.79428  1.0000
  C   C2867     1.0  0.59926  0.22306  0.80133  1.0000
  H   H4577     1.0  0.97198  0.40934  0.82583  1.0000
  H   H4578     1.0  0.66524  0.44469  0.96734  1.0000
  H   H4579     1.0  0.50920  0.19745  0.89432  1.0000
  H   H4580     1.0  0.55542  0.26833  0.87890  1.0000
  H   H4581     1.0  0.50106  0.36452  0.80097  1.0000
  C   C2868     1.0  0.77954  0.33467  0.81557  1.0000
  C   C2869     1.0  0.65694  0.46663  0.84890  1.0000
  C   C2870     1.0  0.58293  0.11866  0.80968  1.0000
  N   N289      1.0  0.63301  0.35626  0.83324  1.0000
  C   C2871     1.0  0.62083  0.34699  0.84000  1.0000
  C   C2872     1.0  0.64775  0.34625  0.82653  1.0000
  C   C2873     1.0  0.63554  0.36217  0.84561  1.0000
  C   C2874     1.0  0.62799  0.36958  0.82086  1.0000
  H   H4582     1.0  0.60949  0.35418  0.84509  1.0000
  H   H4583     1.0  0.62437  0.33696  0.84945  1.0000
  H   H4584     1.0  0.61879  0.34204  0.83109  1.0000
  H   H4585     1.0  0.65689  0.35305  0.82022  1.0000
  H   H4586     1.0  0.65265  0.33700  0.83576  1.0000
  H   H4587     1.0  0.64605  0.34042  0.81814  1.0000
  H   H4588     1.0  0.62480  0.37014  0.85064  1.0000
  H   H4589     1.0  0.64499  0.36883  0.84102  1.0000
  H   H4590     1.0  0.63908  0.35242  0.85528  1.0000
  H   H4591     1.0  0.63716  0.37659  0.81549  1.0000
  H   H4592     1.0  0.61705  0.37759  0.82553  1.0000
  H   H4593     1.0  0.62591  0.36553  0.81137  1.0000
  H   H4594     1.0  0.51535  0.99622  0.83615  1.0000
  C   C2875     1.0  0.53391  0.00582  0.80864  1.0000
  H   H4595     1.0  0.51876  0.21931  0.89742  1.0000
  C   C2876     1.0  0.77430  0.30112  0.94141  1.0000
  H   H4596     1.0  0.50633  0.06007  0.84431  1.0000
  H   H4597     1.0  0.93621  0.44017  0.82060  1.0000
  H   H4598     1.0  0.64891  0.27015  0.85925  1.0000
  H   H4599     1.0  0.54131  0.16096  0.82341  1.0000
  H   H4600     1.0  0.52813  0.07257  0.80514  1.0000
  C   C2877     1.0  0.53776  0.39851  0.80494  1.0000
  H   H4601     1.0  0.51614  0.33469  0.81446  1.0000
  H   H4602     1.0  0.55907  0.14895  0.81491  1.0000
  H   H4603     1.0  0.55572  0.36961  0.81097  1.0000
  H   H4604     1.0  0.93808  0.41128  0.82620  1.0000
  H   H4605     1.0  0.63777  0.47499  0.82878  1.0000
  H   H4606     1.0  0.56212  0.10045  0.78237  1.0000
  S   S1160     1.0  0.59981  0.27172  0.81044  1.0000
  H   H4607     1.0  0.55518  0.19817  0.80632  1.0000
  H   H4608     1.0  0.52696  0.29373  0.85521  1.0000
  C   C2878     1.0  0.53607  0.42667  0.84069  1.0000
  H   H4609     1.0  0.62010  0.47605  0.87037  1.0000
  C   C2879     1.0  0.53780  0.43258  0.88411  1.0000
  H   H4610     1.0  0.52535  0.43830  0.88814  1.0000
  H   H4611     1.0  0.54519  0.43855  0.88730  1.0000
  S   S1161     1.0  0.58893  0.10808  0.82698  1.0000
  N   N290      1.0  0.53785  0.28940  0.87447  1.0000
  S   S1162     1.0  0.52616  0.36754  0.84215  1.0000
  H   H4612     1.0  0.55503  0.18637  0.78534  1.0000
  H   H4613     1.0  0.54327  0.28612  0.89674  1.0000
  H   H4614     1.0  0.54800  0.27096  0.86191  1.0000
  H   H4615     1.0  0.63299  0.45855  0.84374  1.0000
  H   H4616     1.0  0.74785  0.37881  0.97587  1.0000
  C   C2880     1.0  0.53329  0.29118  0.89079  1.0000
  Fe  Fe582     1.0  0.77425  0.35106  0.95379  1.0000
  C   C2881     1.0  0.84242  0.32850  0.78423  1.0000
  C   C2882     1.0  0.76041  0.31354  0.96291  1.0000
  C   C2883     1.0  0.53978  0.33802  0.80756  1.0000
  H   H4617     1.0  0.61515  0.20217  0.79530  1.0000
  H   H4618     1.0  0.77655  0.34591  0.81932  1.0000
  C   C2884     1.0  0.52389  0.29488  0.86756  1.0000
  H   H4619     1.0  0.54467  0.31146  0.86551  1.0000
  H   H4620     1.0  0.78359  0.29139  0.93728  1.0000
  H   H4621     1.0  0.53292  0.40963  0.79736  1.0000
  H   H4622     1.0  0.53406  0.40026  0.81709  1.0000
  H   H4623     1.0  0.59819  0.19752  0.78073  1.0000
  H   H4624     1.0  0.49644  0.11395  0.81228  1.0000
  C   C2885     1.0  0.76936  0.28555  0.96761  1.0000
  C   C2886     1.0  0.78803  0.30201  0.96016  1.0000
  C   C2887     1.0  0.75268  0.32264  0.77843  1.0000
  C   C2888     1.0  0.89439  0.40136  0.79020  1.0000
  H   H4625     1.0  0.79782  0.31491  0.79652  1.0000
  N   N291      1.0  0.64033  0.47500  0.85145  1.0000
  C   C2889     1.0  0.83464  0.31846  0.78155  1.0000
  H   H4626     1.0  0.50597  0.20391  0.93966  1.0000
  H   H4627     1.0  0.53188  0.19457  0.92349  1.0000
  C   C2890     1.0  0.49591  0.32945  0.88800  1.0000
  H   H4628     1.0  0.90033  0.40568  0.79673  1.0000
  H   H4629     1.0  0.49962  0.22570  0.90881  1.0000
  C   C2891     1.0  0.49808  0.36190  0.79111  1.0000
  S   S1163     1.0  0.78065  0.33564  0.97604  1.0000
  H   H4630     1.0  0.75921  0.31369  0.97531  1.0000
  H   H4631     1.0  0.78739  0.30185  0.97254  1.0000
  H   H4632     1.0  0.76293  0.32490  0.95585  1.0000
  C   C2892     1.0  0.55923  0.39104  0.78414  1.0000
  H   H4633     1.0  0.79789  0.29242  0.95660  1.0000
  Fe  Fe583     1.0  0.49621  0.25905  0.92491  1.0000
  H   H4634     1.0  0.50147  0.37085  0.78052  1.0000
  C   C2893     1.0  0.79791  0.35555  0.97702  1.0000
  C   C2894     1.0  0.79855  0.58806  0.98052  1.0000
  Fe  Fe584     1.0  0.78277  0.63282  0.07073  1.0000
  S   S1164     1.0  0.79579  0.61089  0.08405  1.0000
  S   S1165     1.0  0.76216  0.64952  0.08156  1.0000
  Fe  Fe585     1.0  0.80170  0.62693  0.03917  1.0000
  S   S1166     1.0  0.81662  0.60452  0.04962  1.0000
  S   S1167     1.0  0.80493  0.63699  0.01321  1.0000
  Fe  Fe586     1.0  0.79402  0.59999  0.06565  1.0000
  S   S1168     1.0  0.78755  0.57675  0.07161  1.0000
  Fe  Fe587     1.0  0.81729  0.61739  0.06707  1.0000
  S   S1169     1.0  0.83990  0.61427  0.07442  1.0000
  S   S1170     1.0  0.77897  0.62138  0.05387  1.0000
  S   S1171     1.0  0.80441  0.64033  0.05518  1.0000
  Fe  Fe588     1.0  0.66839  0.65455  0.15290  1.0000
  Fe  Fe589     1.0  0.58398  0.85548  0.09214  1.0000
  S   S1172     1.0  0.56098  0.86357  0.10758  1.0000
  S   S1173     1.0  0.60262  0.84222  0.10554  1.0000
  Fe  Fe590     1.0  0.57101  0.86985  0.06287  1.0000
  S   S1174     1.0  0.54695  0.87861  0.07637  1.0000
  S   S1175     1.0  0.57462  0.87786  0.03675  1.0000
  Fe  Fe591     1.0  0.55969  0.88603  0.08990  1.0000
  S   S1176     1.0  0.55103  0.90952  0.09642  1.0000
  Fe  Fe592     1.0  0.55090  0.85523  0.09257  1.0000
  S   S1177     1.0  0.53307  0.84051  0.10413  1.0000
  S   S1178     1.0  0.58358  0.87871  0.07547  1.0000
  S   S1179     1.0  0.57399  0.84566  0.07810  1.0000
  Fe  Fe593     1.0  0.58749  0.95261  0.13377  1.0000
  S   S1180     1.0  0.60131  0.95077  0.15137  1.0000
  S   S1181     1.0  0.59743  0.93602  0.11735  1.0000
  C   C2895     1.0  0.73332  0.58289  0.98541  1.0000
  C   C2896     1.0  0.68290  0.53061  0.01774  1.0000
  C   C2897     1.0  0.49616  0.73722  0.16403  1.0000
  H   H4635     1.0  0.53805  0.85383  0.02104  1.0000
  H   H4636     1.0  0.65234  0.54430  0.02432  1.0000
  H   H4637     1.0  0.67148  0.55538  0.03065  1.0000
  H   H4638     1.0  0.87044  0.58043  0.12218  1.0000
  H   H4639     1.0  0.91582  0.64234  0.15779  1.0000
  S   S1182     1.0  0.56475  0.95188  0.15124  1.0000
  C   C2898     1.0  0.54694  0.81903  0.15604  1.0000
  Fe  Fe594     1.0  0.57812  0.95203  0.16833  1.0000
  Fe  Fe595     1.0  0.51226  0.78599  0.07118  1.0000
  H   H4640     1.0  0.57046  0.75433  0.98199  1.0000
  S   S1183     1.0  0.68931  0.48668  0.01699  1.0000
  H   H4641     1.0  0.70839  0.52378  0.10366  1.0000
  C   C2899     1.0  0.49399  0.61372  0.14013  1.0000
  H   H4642     1.0  0.66120  0.48992  0.97983  1.0000
  C   C2900     1.0  0.49558  0.68108  0.09554  1.0000
  H   H4643     1.0  0.69540  0.52891  0.01805  1.0000
  H   H4644     1.0  0.98002  0.62101  0.16747  1.0000
  H   H4645     1.0  0.73401  0.50906  0.01019  1.0000
  C   C2901     1.0  0.75040  0.60153  0.15004  1.0000
  N   N292      1.0  0.73818  0.60784  0.16258  1.0000
  H   H4646     1.0  0.57671  0.94466  0.03247  1.0000
  Fe  Fe596     1.0  0.89238  0.65499  0.13513  1.0000
  S   S1184     1.0  0.88545  0.63813  0.12581  1.0000
  S   S1185     1.0  0.91575  0.66225  0.12676  1.0000
  Fe  Fe597     1.0  0.86184  0.65460  0.12680  1.0000
  S   S1186     1.0  0.84433  0.66150  0.11144  1.0000
  H   H4647     1.0  0.90898  0.69891  0.16210  1.0000
  Fe  Fe598     1.0  0.61152  0.52743  0.13514  1.0000
  S   S1187     1.0  0.86974  0.67265  0.13333  1.0000
  H   H4648     1.0  0.59624  0.61122  0.11434  1.0000
  H   H4649     1.0  0.57968  0.69546  0.13402  1.0000
  Fe  Fe599     1.0  0.75648  0.54730  0.02295  1.0000
  S   S1188     1.0  0.73208  0.56144  0.02877  1.0000
  S   S1189     1.0  0.77528  0.56115  0.01374  1.0000
  Fe  Fe600     1.0  0.74565  0.51709  0.03149  1.0000
  S   S1190     1.0  0.72039  0.52876  0.03813  1.0000
  H   H4650     1.0  0.82924  0.56439  0.99569  1.0000
  Fe  Fe601     1.0  0.72572  0.54682  0.01654  1.0000
  S   S1191     1.0  0.70742  0.55783  0.00230  1.0000
  Fe  Fe602     1.0  0.72896  0.54217  0.04983  1.0000
  S   S1192     1.0  0.71552  0.54868  0.07255  1.0000
  S   S1193     1.0  0.75048  0.53426  0.00870  1.0000
  S   S1194     1.0  0.75387  0.52894  0.04519  1.0000
  C   C2902     1.0  0.69756  0.54332  0.07663  1.0000
  C   C2903     1.0  0.68360  0.55361  0.08157  1.0000
  C   C2904     1.0  0.68278  0.52468  0.07744  1.0000
  C   C2905     1.0  0.69715  0.52877  0.07478  1.0000
  H   H4651     1.0  0.68386  0.56489  0.08300  1.0000
  H   H4652     1.0  0.68255  0.51333  0.07621  1.0000
  H   H4653     1.0  0.70795  0.52057  0.07145  1.0000
  S   S1195     1.0  0.60351  0.50546  0.14943  1.0000
  H   H4654     1.0  0.53866  0.82576  0.02758  1.0000
  N   N293      1.0  0.81456  0.58385  0.98332  1.0000
  H   H4655     1.0  0.54200  0.78252  0.98322  1.0000
  N   N294      1.0  0.49614  0.69676  0.08547  1.0000
  H   H4656     1.0  0.51053  0.75216  0.13656  1.0000
  H   H4657     1.0  0.65461  0.52347  0.02827  1.0000
  H   H4658     1.0  0.52436  0.86733  0.01009  1.0000
  C   C2906     1.0  0.53608  0.70490  0.17620  1.0000
  C   C2907     1.0  0.72822  0.49963  0.01657  1.0000
  C   C2908     1.0  0.50883  0.74486  0.03673  1.0000
  H   H4659     1.0  0.73036  0.53226  0.99035  1.0000
  H   H4660     1.0  0.54793  0.92322  0.06140  1.0000
  H   H4661     1.0  0.68031  0.52223  0.11107  1.0000
  C   C2909     1.0  0.88865  0.68606  0.15607  1.0000
  H   H4662     1.0  0.54998  0.78389  0.00610  1.0000
  H   H4663     1.0  0.54463  0.79316  0.08565  1.0000
  H   H4664     1.0  0.50529  0.85783  0.00245  1.0000
  C   C2910     1.0  0.62166  0.60347  0.12616  1.0000
  C   C2911     1.0  0.65785  0.59007  0.15379  1.0000
  C   C2912     1.0  0.49918  0.70662  0.09414  1.0000
  H   H4665     1.0  0.62210  0.59564  0.11856  1.0000
  H   H4666     1.0  0.95312  0.49000  0.16421  1.0000
  C   C2913     1.0  0.92820  0.65816  0.13986  1.0000
  C   C2914     1.0  0.94103  0.66529  0.13565  1.0000
  C   C2915     1.0  0.95062  0.66286  0.14618  1.0000
  H   H4667     1.0  0.60593  0.78932  0.13768  1.0000
  H   H4668     1.0  0.89044  0.69725  0.14782  1.0000
  H   H4669     1.0  0.94348  0.67282  0.12424  1.0000
  H   H4670     1.0  0.96040  0.66851  0.14284  1.0000
  C   C2916     1.0  0.55395  0.78261  0.08840  1.0000
  H   H4671     1.0  0.50538  0.74252  0.16499  1.0000
  S   S1196     1.0  0.69401  0.64591  0.15297  1.0000
  C   C2917     1.0  0.56929  0.76661  0.10713  1.0000
  C   C2918     1.0  0.73109  0.62425  0.15637  1.0000
  S   S1197     1.0  0.53914  0.74891  0.15254  1.0000
  C   C2919     1.0  0.67720  0.51604  0.04423  1.0000
  H   H4672     1.0  0.57063  0.82244  0.16586  1.0000
  H   H4673     1.0  0.83858  0.61607  0.14432  1.0000
  H   H4674     1.0  0.57231  0.79658  0.09543  1.0000
  H   H4675     1.0  0.68096  0.53002  0.14860  1.0000
  C   C2920     1.0  0.58103  0.69670  0.17039  1.0000
  H   H4676     1.0  0.55232  0.80533  0.10293  1.0000
  C   C2921     1.0  0.56741  0.58280  0.13813  1.0000
  C   C2922     1.0  0.71479  0.49860  0.01269  1.0000
  S   S1198     1.0  0.49955  0.74118  0.05643  1.0000
  H   H4677     1.0  0.71693  0.52807  0.11701  1.0000
  H   H4678     1.0  0.55375  0.82820  0.12507  1.0000
  Fe  Fe603     1.0  0.50524  0.75615  0.06890  1.0000
  C   C2923     1.0  0.61602  0.70572  0.17426  1.0000
  S   S1199     1.0  0.88120  0.60283  0.15956  1.0000
  C   C2924     1.0  0.51502  0.73896  0.01119  1.0000
  C   C2925     1.0  0.60419  0.82209  0.10857  1.0000
  C   C2926     1.0  0.60597  0.81238  0.12307  1.0000
  C   C2927     1.0  0.60494  0.79671  0.12634  1.0000
  C   C2928     1.0  0.60302  0.79056  0.11478  1.0000
  C   C2929     1.0  0.60214  0.80004  0.10001  1.0000
  C   C2930     1.0  0.60241  0.81586  0.09701  1.0000
  H   H4679     1.0  0.60781  0.81705  0.13188  1.0000
  H   H4680     1.0  0.54017  0.85371  0.00102  1.0000
  H   H4681     1.0  0.60103  0.79521  0.09094  1.0000
  H   H4682     1.0  0.60155  0.82318  0.08563  1.0000
  C   C2931     1.0  0.56386  0.91624  0.10302  1.0000
  C   C2932     1.0  0.57980  0.90910  0.10111  1.0000
  C   C2933     1.0  0.59000  0.91539  0.10537  1.0000
  C   C2934     1.0  0.58427  0.92853  0.11205  1.0000
  C   C2935     1.0  0.56827  0.93540  0.11440  1.0000
  C   C2936     1.0  0.55813  0.92938  0.10970  1.0000
  H   H4683     1.0  0.58434  0.89892  0.09606  1.0000
  H   H4684     1.0  0.60238  0.91006  0.10344  1.0000
  H   H4685     1.0  0.56376  0.94559  0.11945  1.0000
  H   H4686     1.0  0.54582  0.93498  0.11119  1.0000
  C   C2937     1.0  0.52883  0.83241  0.09091  1.0000
  C   C2938     1.0  0.53716  0.83421  0.07539  1.0000
  C   C2939     1.0  0.53405  0.82707  0.06517  1.0000
  H   H4687     1.0  0.74534  0.60198  0.14010  1.0000
  C   C2940     1.0  0.70584  0.53013  0.11316  1.0000
  C   C2941     1.0  0.52253  0.81823  0.07041  1.0000
  H   H4688     1.0  0.54606  0.84101  0.07126  1.0000
  H   H4689     1.0  0.54079  0.82822  0.05330  1.0000
  H   H4690     1.0  0.56468  0.79315  0.11601  1.0000
  C   C2942     1.0  0.57147  0.84367  0.01001  1.0000
  C   C2943     1.0  0.57245  0.85903  0.00236  1.0000
  C   C2944     1.0  0.57335  0.86946  0.01068  1.0000
  C   C2945     1.0  0.57306  0.86465  0.02669  1.0000
  C   C2946     1.0  0.57169  0.84940  0.03438  1.0000
  C   C2947     1.0  0.57100  0.83891  0.02604  1.0000
  H   H4691     1.0  0.60722  0.69467  0.14810  1.0000
  H   H4692     1.0  0.57441  0.88124  0.00466  1.0000
  H   H4693     1.0  0.57141  0.84559  0.04670  1.0000
  H   H4694     1.0  0.57016  0.82707  0.03203  1.0000
  C   C2948     1.0  0.84119  0.62835  0.08352  1.0000
  C   C2949     1.0  0.82783  0.63892  0.08922  1.0000
  C   C2950     1.0  0.82900  0.64922  0.09753  1.0000
  C   C2951     1.0  0.84348  0.64894  0.10030  1.0000
  C   C2952     1.0  0.85691  0.63871  0.09418  1.0000
  C   C2953     1.0  0.85575  0.62839  0.08588  1.0000
  H   H4695     1.0  0.81657  0.63902  0.08739  1.0000
  H   H4696     1.0  0.81861  0.65732  0.10199  1.0000
  H   H4697     1.0  0.86820  0.63880  0.09581  1.0000
  H   H4698     1.0  0.86615  0.62039  0.08130  1.0000
  C   C2954     1.0  0.74817  0.63948  0.09453  1.0000
  C   C2955     1.0  0.75058  0.62331  0.09650  1.0000
  C   C2956     1.0  0.73937  0.61533  0.10681  1.0000
  C   C2957     1.0  0.72566  0.62346  0.11513  1.0000
  C   C2958     1.0  0.72321  0.63963  0.11323  1.0000
  C   C2959     1.0  0.73448  0.64763  0.10292  1.0000
  H   H4699     1.0  0.76110  0.61694  0.09007  1.0000
  H   H4700     1.0  0.74137  0.60280  0.10841  1.0000
  C   C2960     1.0  0.66018  0.57705  0.14745  1.0000
  H   H4701     1.0  0.73255  0.66015  0.10139  1.0000
  C   C2961     1.0  0.78586  0.57190  0.05502  1.0000
  C   C2962     1.0  0.78616  0.58292  0.04091  1.0000
  C   C2963     1.0  0.78313  0.57951  0.02817  1.0000
  C   C2964     1.0  0.78004  0.56500  0.02941  1.0000
  C   C2965     1.0  0.78026  0.55381  0.04337  1.0000
  C   C2966     1.0  0.78311  0.55727  0.05617  1.0000
  H   H4702     1.0  0.78845  0.59417  0.03990  1.0000
  H   H4703     1.0  0.78270  0.58833  0.01757  1.0000
  H   H4704     1.0  0.77840  0.54241  0.04428  1.0000
  H   H4705     1.0  0.78308  0.54863  0.06701  1.0000
  C   C2967     1.0  0.59335  0.91114  0.15770  1.0000
  C   C2968     1.0  0.77406  0.62108  0.00029  1.0000
  C   C2969     1.0  0.78267  0.62399  0.00934  1.0000
  C   C2970     1.0  0.79437  0.63246  0.00221  1.0000
  H   H4706     1.0  0.56058  0.79851  0.99421  1.0000
  H   H4707     1.0  0.68635  0.54247  0.04030  1.0000
  H   H4708     1.0  0.76493  0.61463  0.00589  1.0000
  H   H4709     1.0  0.78015  0.61979  0.02182  1.0000
  H   H4710     1.0  0.51442  0.73192  0.00371  1.0000
  Fe  Fe604     1.0  0.87574  0.62875  0.15101  1.0000
  C   C2971     1.0  0.94733  0.65340  0.16107  1.0000
  C   C2972     1.0  0.53247  0.69883  0.16547  1.0000
  H   H4711     1.0  0.61244  0.61281  0.15329  1.0000
  H   H4712     1.0  0.58095  0.91330  0.06790  1.0000
  H   H4713     1.0  0.57373  0.57098  0.14178  1.0000
  C   C2973     1.0  0.51023  0.84573  0.03164  1.0000
  C   C2974     1.0  0.56398  0.82419  0.13066  1.0000
  C   C2975     1.0  0.54228  0.77887  0.11592  1.0000
  H   H4714     1.0  0.54394  0.77769  0.12781  1.0000
  H   H4715     1.0  0.53860  0.76816  0.11610  1.0000
  C   C2976     1.0  0.77738  0.62625  0.98404  1.0000
  C   C2977     1.0  0.65618  0.53315  0.03246  1.0000
  H   H4716     1.0  0.50454  0.81067  0.08973  1.0000
  H   H4717     1.0  0.83751  0.61505  0.11773  1.0000
  S   S1200     1.0  0.65185  0.55221  0.14341  1.0000
  H   H4718     1.0  0.59918  0.58753  0.13653  1.0000
  H   H4719     1.0  0.78950  0.58812  0.99154  1.0000
  C   C2978     1.0  0.58790  0.50218  0.12901  1.0000
  C   C2979     1.0  0.93464  0.64613  0.16521  1.0000
  H   H4720     1.0  0.62913  0.59670  0.13461  1.0000
  C   C2980     1.0  0.72596  0.59859  0.16825  1.0000
  C   C2981     1.0  0.52284  0.75123  0.00498  1.0000
  H   H4721     1.0  0.66944  0.51581  0.05605  1.0000
  C   C2982     1.0  0.73413  0.48855  0.02870  1.0000
  H   H4722     1.0  0.63843  0.66921  0.17343  1.0000
  H   H4723     1.0  0.56370  0.85024  0.13950  1.0000
  H   H4724     1.0  0.85262  0.60173  0.15414  1.0000
  H   H4725     1.0  0.49617  0.62614  0.16273  1.0000
  N   N295      1.0  0.55965  0.82700  0.14661  1.0000
  H   H4726     1.0  0.53075  0.96521  0.15463  1.0000
  H   H4727     1.0  0.52894  0.77030  0.00974  1.0000
  N   N296      1.0  0.58438  0.68934  0.15701  1.0000
  C   C2983     1.0  0.58447  0.89279  0.14957  1.0000
  H   H4728     1.0  0.60875  0.90418  0.13005  1.0000
  H   H4729     1.0  0.58064  0.76776  0.09879  1.0000
  H   H4730     1.0  0.58445  0.51479  0.12616  1.0000
  Fe  Fe605     1.0  0.63350  0.53857  0.10482  1.0000
  H   H4731     1.0  0.60056  0.62881  0.11538  1.0000
  H   H4732     1.0  0.68787  0.49481  0.98192  1.0000
  C   C2984     1.0  0.92526  0.64834  0.15459  1.0000
  C   C2985     1.0  0.54661  0.72180  0.09880  1.0000
  H   H4733     1.0  0.50516  0.83737  0.00778  1.0000
  H   H4734     1.0  0.53876  0.70444  0.07430  1.0000
  C   C2986     1.0  0.54274  0.72020  0.08566  1.0000
  C   C2987     1.0  0.64829  0.56883  0.15102  1.0000
  H   H4735     1.0  0.56803  0.93200  0.06801  1.0000
  S   S1201     1.0  0.57041  0.83025  0.99997  1.0000
  H   H4736     1.0  0.52097  0.84430  0.99331  1.0000
  H   H4737     1.0  0.85061  0.59990  0.10859  1.0000
  H   H4738     1.0  0.58743  0.88125  0.14637  1.0000
  S   S1202     1.0  0.85166  0.64392  0.15149  1.0000
  H   H4739     1.0  0.51650  0.76472  0.03777  1.0000
  N   N297      1.0  0.69325  0.52502  0.12618  1.0000
  H   H4740     1.0  0.80928  0.67134  0.15998  1.0000
  H   H4741     1.0  0.52037  0.68975  0.07452  1.0000
  C   C2988     1.0  0.64198  0.68965  0.15547  1.0000
  Fe  Fe606     1.0  0.66101  0.62264  0.16561  1.0000
  C   C2989     1.0  0.67872  0.52835  0.12052  1.0000
  H   H4742     1.0  0.56072  0.90445  0.06169  1.0000
  H   H4743     1.0  0.52907  0.70329  0.14217  1.0000
  S   S1203     1.0  0.60716  0.54964  0.14355  1.0000
  C   C2990     1.0  0.53141  0.85515  0.01204  1.0000
  H   H4744     1.0  0.57951  0.91161  0.02832  1.0000
  C   C2991     1.0  0.81640  0.59525  0.99105  1.0000
  C   C2992     1.0  0.59787  0.49481  0.13936  1.0000
  H   H4745     1.0  0.91645  0.67836  0.16373  1.0000
  C   C2993     1.0  0.69048  0.53354  0.13860  1.0000
  Fe  Fe607     1.0  0.52243  0.67034  0.15414  1.0000
  H   H4746     1.0  0.53379  0.73014  0.13493  1.0000
  H   H4747     1.0  0.51056  0.82254  0.10799  1.0000
  C   C2994     1.0  0.55419  0.84393  0.14603  1.0000
  H   H4748     1.0  0.93205  0.63872  0.17666  1.0000
  S   S1204     1.0  0.68571  0.61102  0.16765  1.0000
  H   H4749     1.0  0.80881  0.56756  0.00491  1.0000
  H   H4750     1.0  0.58313  0.82697  0.14699  1.0000
  C   C2995     1.0  0.66920  0.54958  0.08407  1.0000
  H   H4751     1.0  0.67989  0.54172  0.00922  1.0000
  H   H4752     1.0  0.56622  0.75596  0.10629  1.0000
  H   H4753     1.0  0.60459  0.67911  0.14132  1.0000
  H   H4754     1.0  0.55066  0.80624  0.15687  1.0000
  H   H4755     1.0  0.69995  0.50131  0.12337  1.0000
  C   C2996     1.0  0.51377  0.96519  0.17636  1.0000
  N   N298      1.0  0.85444  0.59997  0.13076  1.0000
  H   H4756     1.0  0.87211  0.60877  0.11183  1.0000
  H   H4757     1.0  0.59067  0.77590  0.98201  1.0000
  H   H4758     1.0  0.68672  0.54637  0.13428  1.0000
  H   H4759     1.0  0.73989  0.63168  0.15202  1.0000
  H   H4760     1.0  0.50243  0.85758  0.03044  1.0000
  C   C2997     1.0  0.63440  0.68160  0.16964  1.0000
  S   S1205     1.0  0.57252  0.97805  0.16476  1.0000
  S   S1206     1.0  0.88411  0.64443  0.16031  1.0000
  H   H4761     1.0  0.55727  0.94666  0.04454  1.0000
  H   H4762     1.0  0.78251  0.67298  0.15682  1.0000
  H   H4763     1.0  0.85985  0.62269  0.12320  1.0000
  H   H4764     1.0  0.70883  0.50508  0.13683  1.0000
  H   H4765     1.0  0.57032  0.78137  0.00586  1.0000
  H   H4766     1.0  0.58926  0.92047  0.14805  1.0000
  C   C2998     1.0  0.51280  0.84587  0.00461  1.0000
  Fe  Fe608     1.0  0.63300  0.54822  0.13431  1.0000
  N   N299      1.0  0.76381  0.67122  0.02878  1.0000
  C   C2999     1.0  0.75941  0.68804  0.02183  1.0000
  C   C3000     1.0  0.78011  0.66730  0.03068  1.0000
  C   C3001     1.0  0.76254  0.66195  0.01846  1.0000
  C   C3002     1.0  0.75328  0.66749  0.04420  1.0000
  H   H4767     1.0  0.74713  0.69144  0.02027  1.0000
  H   H4768     1.0  0.76717  0.69117  0.01018  1.0000
  H   H4769     1.0  0.76039  0.69530  0.02933  1.0000
  H   H4770     1.0  0.78380  0.65462  0.03547  1.0000
  H   H4771     1.0  0.78849  0.67003  0.01935  1.0000
  H   H4772     1.0  0.78157  0.67360  0.03881  1.0000
  H   H4773     1.0  0.75050  0.66480  0.01638  1.0000
  H   H4774     1.0  0.76551  0.64921  0.02360  1.0000
  H   H4775     1.0  0.77082  0.66397  0.00693  1.0000
  H   H4776     1.0  0.74082  0.67035  0.04333  1.0000
  H   H4777     1.0  0.75418  0.67403  0.05242  1.0000
  H   H4778     1.0  0.75632  0.65487  0.04977  1.0000
  N   N300      1.0  0.73714  0.58526  0.07157  1.0000
  C   C3003     1.0  0.72005  0.58975  0.07756  1.0000
  C   C3004     1.0  0.74393  0.57167  0.08273  1.0000
  C   C3005     1.0  0.74437  0.59848  0.06966  1.0000
  C   C3006     1.0  0.74023  0.58109  0.05635  1.0000
  H   H4779     1.0  0.71730  0.59298  0.08906  1.0000
  H   H4780     1.0  0.71429  0.57999  0.07909  1.0000
  H   H4781     1.0  0.71451  0.59995  0.06944  1.0000
  H   H4782     1.0  0.75685  0.56809  0.07870  1.0000
  H   H4783     1.0  0.74174  0.57437  0.09438  1.0000
  H   H4784     1.0  0.73894  0.56140  0.08421  1.0000
  H   H4785     1.0  0.75729  0.59541  0.06526  1.0000
  H   H4786     1.0  0.74231  0.60193  0.08091  1.0000
  H   H4787     1.0  0.73960  0.60892  0.06127  1.0000
  H   H4788     1.0  0.73527  0.57091  0.05742  1.0000
  H   H4789     1.0  0.75299  0.57786  0.05142  1.0000
  H   H4790     1.0  0.73506  0.59093  0.04768  1.0000
  H   H4791     1.0  0.57132  0.76447  0.11906  1.0000
  H   H4792     1.0  0.72041  0.59896  0.15870  1.0000
  N   N301      1.0  0.59780  0.89561  0.15380  1.0000
  H   H4793     1.0  0.78449  0.65238  0.16487  1.0000
  H   H4794     1.0  0.49294  0.67339  0.08954  1.0000
  C   C3007     1.0  0.60195  0.88347  0.16742  1.0000
  C   C3008     1.0  0.61144  0.89511  0.14049  1.0000
  H   H4795     1.0  0.68198  0.52095  0.01309  1.0000
  H   H4796     1.0  0.67120  0.57343  0.13970  1.0000
  H   H4797     1.0  0.49450  0.60367  0.13525  1.0000
  H   H4798     1.0  0.71036  0.50721  0.00323  1.0000
  H   H4799     1.0  0.73083  0.58613  0.17307  1.0000
  H   H4800     1.0  0.59323  0.62363  0.15077  1.0000
  H   H4801     1.0  0.50009  0.71840  0.08673  1.0000
  C   C3009     1.0  0.55411  0.58943  0.14831  1.0000
  H   H4802     1.0  0.67467  0.54107  0.11591  1.0000
  H   H4803     1.0  0.50627  0.61393  0.13975  1.0000
  S   S1207     1.0  0.58287  0.97883  0.12700  1.0000
  H   H4804     1.0  0.58106  0.90185  0.13935  1.0000
  N   N302      1.0  0.52144  0.84361  0.01683  1.0000
  H   H4805     1.0  0.66900  0.52461  0.13008  1.0000
  C   C3010     1.0  0.56412  0.60679  0.11853  1.0000
  H   H4806     1.0  0.83638  0.59616  0.15142  1.0000
  H   H4807     1.0  0.75606  0.58915  0.15426  1.0000
  N   N303      1.0  0.56594  0.77767  0.98538  1.0000
  H   H4808     1.0  0.71258  0.64600  0.11952  1.0000
  C   C3011     1.0  0.62315  0.71370  0.15980  1.0000
  S   S1208     1.0  0.65083  0.53026  0.08429  1.0000
  N   N304      1.0  0.55681  0.78067  0.10402  1.0000
  H   H4809     1.0  0.55015  0.77236  0.08755  1.0000
  H   H4810     1.0  0.81128  0.65070  0.16781  1.0000
  H   H4811     1.0  0.87478  0.60750  0.13077  1.0000
  H   H4812     1.0  0.50340  0.59758  0.16639  1.0000
  Fe  Fe609     1.0  0.52805  0.66645  0.12127  1.0000
  H   H4813     1.0  0.57311  0.83055  0.12308  1.0000
  H   H4814     1.0  0.50983  0.70708  0.06374  1.0000
  C   C3012     1.0  0.66876  0.53515  0.08191  1.0000
  H   H4815     1.0  0.56470  0.78389  0.07914  1.0000
  C   C3013     1.0  0.56170  0.79457  0.10464  1.0000
  Fe  Fe610     1.0  0.68592  0.63154  0.17650  1.0000
  H   H4816     1.0  0.53246  0.78907  0.11371  1.0000
  N   N305      1.0  0.67263  0.53096  0.03334  1.0000
  H   H4817     1.0  0.61040  0.62953  0.13762  1.0000
  C   C3014     1.0  0.67421  0.54402  0.03895  1.0000
  H   H4818     1.0  0.58596  0.59959  0.14926  1.0000
  Fe  Fe611     1.0  0.58812  0.73853  0.17346  1.0000
  H   H4819     1.0  0.54414  0.84905  0.14016  1.0000
  C   C3015     1.0  0.70911  0.54913  0.98688  1.0000
  H   H4820     1.0  0.50239  0.72597  0.03194  1.0000
  S   S1209     1.0  0.51925  0.80860  0.05786  1.0000
  S   S1210     1.0  0.51121  0.77797  0.09690  1.0000
  H   H4821     1.0  0.65844  0.55784  0.08720  1.0000
  C   C3016     1.0  0.55021  0.70863  0.11045  1.0000
  S   S1211     1.0  0.52773  0.76371  0.06498  1.0000
  S   S1212     1.0  0.58328  0.73983  0.15041  1.0000
  H   H4822     1.0  0.55293  0.91430  0.04480  1.0000
  H   H4823     1.0  0.75429  0.61406  0.17183  1.0000
  H   H4824     1.0  0.60343  0.91416  0.15987  1.0000
  H   H4825     1.0  0.53635  0.82336  0.15094  1.0000
  C   C3017     1.0  0.53874  0.72009  0.17210  1.0000
  C   C3018     1.0  0.52345  0.76046  0.01460  1.0000
  S   S1213     1.0  0.60124  0.77119  0.11871  1.0000
  Fe  Fe612     1.0  0.98187  0.65769  0.16705  1.0000
  S   S1214     1.0  0.53107  0.75557  0.98506  1.0000
  C   C3019     1.0  0.51394  0.81682  0.08580  1.0000
  S   S1215     1.0  0.50555  0.65438  0.16326  1.0000
  H   H4826     1.0  0.58367  0.91173  0.16823  1.0000
  H   H4827     1.0  0.66703  0.59644  0.15088  1.0000
  H   H4828     1.0  0.52420  0.81864  0.02335  1.0000
  H   H4829     1.0  0.50274  0.83699  0.03579  1.0000
  H   H4830     1.0  0.60513  0.87156  0.16502  1.0000
  C   C3020     1.0  0.59854  0.59579  0.14373  1.0000
  C   C3021     1.0  0.64373  0.59472  0.16399  1.0000
  H   H4831     1.0  0.55034  0.84637  0.15793  1.0000
  H   H4832     1.0  0.59426  0.91833  0.03273  1.0000
  H   H4833     1.0  0.66619  0.54498  0.05047  1.0000
  H   H4834     1.0  0.72740  0.66948  0.17614  1.0000
  H   H4835     1.0  0.55049  0.68410  0.11904  1.0000
  C   C3022     1.0  0.57349  0.82090  0.15369  1.0000
  Fe  Fe613     1.0  0.86111  0.66083  0.15795  1.0000
  C   C3023     1.0  0.84395  0.60263  0.12008  1.0000
  S   S1216     1.0  0.54494  0.74045  0.10151  1.0000
  C   C3024     1.0  0.69789  0.50806  0.13246  1.0000
  H   H4836     1.0  0.62511  0.56690  0.16431  1.0000
  H   H4837     1.0  0.54012  0.73030  0.07654  1.0000
  S   S1217     1.0  0.63073  0.56166  0.11033  1.0000
  S   S1218     1.0  0.71198  0.61299  0.12796  1.0000
  C   C3025     1.0  0.51636  0.75732  0.03047  1.0000
  H   H4838     1.0  0.69457  0.68237  0.16903  1.0000
  Fe  Fe614     1.0  0.59455  0.97701  0.14624  1.0000
  H   H4839     1.0  0.70250  0.54282  0.10794  1.0000
  C   C3026     1.0  0.63190  0.58637  0.16772  1.0000
  H   H4840     1.0  0.87097  0.58116  0.14145  1.0000
  C   C3027     1.0  0.53426  0.72316  0.14651  1.0000
  H   H4841     1.0  0.82826  0.59231  0.99360  1.0000
  S   S1219     1.0  0.66766  0.63623  0.14122  1.0000
  Fe  Fe615     1.0  0.69244  0.62604  0.14400  1.0000
  C   C3028     1.0  0.55757  0.91608  0.05407  1.0000
  N   N306      1.0  0.57129  0.92329  0.04749  1.0000
  H   H4842     1.0  0.58351  0.62236  0.12811  1.0000
  S   S1220     1.0  0.60774  0.53920  0.11105  1.0000
  H   H4843     1.0  0.60481  0.58907  0.15317  1.0000
  S   S1221     1.0  0.63752  0.52502  0.12824  1.0000
  H   H4844     1.0  0.72082  0.58407  0.98546  1.0000
  S   S1222     1.0  0.54073  0.65408  0.14049  1.0000
  C   C3029     1.0  0.54197  0.70553  0.08439  1.0000
  C   C3030     1.0  0.60533  0.61926  0.14441  1.0000
  S   S1223     1.0  0.50411  0.74581  0.09420  1.0000
  H   H4845     1.0  0.56880  0.81158  0.13063  1.0000
  H   H4846     1.0  0.72172  0.62927  0.16551  1.0000
  C   C3031     1.0  0.84505  0.60364  0.14582  1.0000
  C   C3032     1.0  0.56148  0.78570  0.99847  1.0000
  C   C3033     1.0  0.60153  0.68451  0.15157  1.0000
  C   C3034     1.0  0.53766  0.72931  0.15729  1.0000
  H   H4847     1.0  0.57281  0.86279  0.99000  1.0000
  C   C3035     1.0  0.54433  0.69259  0.09662  1.0000
  C   C3036     1.0  0.57730  0.67555  0.16188  1.0000
  C   C3037     1.0  0.55102  0.61348  0.12877  1.0000
  C   C3038     1.0  0.63622  0.70569  0.15050  1.0000
  H   H4848     1.0  0.64197  0.71200  0.13951  1.0000
  C   C3039     1.0  0.54864  0.69409  0.10957  1.0000
  S   S1224     1.0  0.53976  0.67520  0.09671  1.0000
  H   H4849     1.0  0.55339  0.70982  0.12050  1.0000
  Fe  Fe616     1.0  0.60523  0.56127  0.11880  1.0000
  S   S1225     1.0  0.51192  0.65008  0.12730  1.0000
  C   C3040     1.0  0.57766  0.70067  0.14424  1.0000
  Fe  Fe617     1.0  0.58965  0.76307  0.14356  1.0000
  S   S1226     1.0  0.65917  0.68023  0.14423  1.0000
  H   H4850     1.0  0.80771  0.59569  0.00229  1.0000
  S   S1227     1.0  0.51111  0.68408  0.13419  1.0000
  Fe  Fe618     1.0  0.52513  0.75535  0.09071  1.0000
  C   C3041     1.0  0.86305  0.58348  0.13331  1.0000
  H   H4851     1.0  0.57951  0.66972  0.15207  1.0000
  H   H4852     1.0  0.58744  0.90141  0.04501  1.0000
  S   S1228     1.0  0.56524  0.77599  0.15132  1.0000
  H   H4853     1.0  0.78667  0.68998  0.17162  1.0000
  H   H4854     1.0  0.89671  0.67648  0.15064  1.0000
  C   C3042     1.0  0.86577  0.61017  0.12382  1.0000
  C   C3043     1.0  0.58174  0.49318  0.12295  1.0000
  C   C3044     1.0  0.50819  0.73564  0.02712  1.0000
  H   H4855     1.0  0.85491  0.57539  0.13844  1.0000
  N   N307      1.0  0.60539  0.60922  0.13421  1.0000
  S   S1229     1.0  0.58942  0.58409  0.11034  1.0000
  C   C3045     1.0  0.57242  0.59151  0.12321  1.0000
  H   H4856     1.0  0.56792  0.61354  0.10698  1.0000
  H   H4857     1.0  0.54478  0.62532  0.12506  1.0000
  H   H4858     1.0  0.72573  0.62527  0.14650  1.0000
  H   H4859     1.0  0.57369  0.49892  0.11530  1.0000
  C   C3046     1.0  0.50099  0.74698  0.13612  1.0000
  Fe  Fe619     1.0  0.52301  0.63920  0.14791  1.0000
  C   C3047     1.0  0.56662  0.93887  0.03765  1.0000
  C   C3048     1.0  0.57723  0.92488  0.06032  1.0000
  H   H4860     1.0  0.60700  0.67588  0.16088  1.0000
  H   H4861     1.0  0.57815  0.80818  0.15406  1.0000
  H   H4862     1.0  0.56202  0.93806  0.02790  1.0000
  C   C3049     1.0  0.53138  0.82766  0.01900  1.0000
  H   H4863     1.0  0.58566  0.70747  0.16698  1.0000
  C   C3050     1.0  0.54597  0.60481  0.14366  1.0000
  H   H4864     1.0  0.64814  0.53345  0.04410  1.0000
  C   C3051     1.0  0.81723  0.56805  0.99342  1.0000
  H   H4865     1.0  0.70116  0.53139  0.14317  1.0000
  H   H4866     1.0  0.68620  0.70279  0.16837  1.0000
  H   H4867     1.0  0.57912  0.48735  0.17195  1.0000
  Fe  Fe620     1.0  0.55923  0.75253  0.15993  1.0000
  H   H4868     1.0  0.55611  0.75802  0.99911  1.0000
  H   H4869     1.0  0.58749  0.93044  0.05588  1.0000
  C   C3052     1.0  0.58369  0.91330  0.03795  1.0000
  H   H4870     1.0  0.62716  0.61326  0.11872  1.0000
  C   C3053     1.0  0.59602  0.61834  0.12252  1.0000
  S   S1230     1.0  0.59690  0.76077  0.16575  1.0000
  H   H4871     1.0  0.68857  0.50389  0.14231  1.0000
  H   H4872     1.0  0.73664  0.57237  0.99445  1.0000
  C   C3054     1.0  0.70698  0.48666  0.02117  1.0000
  H   H4873     1.0  0.61509  0.88360  0.13715  1.0000
  H   H4874     1.0  0.76813  0.66603  0.17332  1.0000
  H   H4875     1.0  0.50645  0.73515  0.13367  1.0000
  H   H4876     1.0  0.61886  0.72612  0.15595  1.0000
  Fe  Fe621     1.0  0.49585  0.66663  0.14191  1.0000
  C   C3055     1.0  0.53167  0.70795  0.15057  1.0000
  H   H4877     1.0  0.51644  0.84417  0.04105  1.0000
  C   C3056     1.0  0.72162  0.53676  0.98341  1.0000
  C   C3057     1.0  0.51720  0.82374  0.09607  1.0000
  C   C3058     1.0  0.56736  0.76069  0.99157  1.0000
  H   H4878     1.0  0.54348  0.82076  0.16821  1.0000
  Fe  Fe622     1.0  0.56127  0.97795  0.14602  1.0000
  H   H4879     1.0  0.76407  0.57058  0.97929  1.0000
  H   H4880     1.0  0.57645  0.75571  0.99864  1.0000
  S   S1231     1.0  0.74988  0.49112  0.03446  1.0000
  C   C3059     1.0  0.74511  0.60710  0.17564  1.0000
  C   C3060     1.0  0.63414  0.57349  0.16117  1.0000
  H   H4881     1.0  0.57397  0.89312  0.15934  1.0000
  S   S1232     1.0  0.52951  0.61318  0.15646  1.0000
  H   H4882     1.0  0.62168  0.89734  0.14321  1.0000
  H   H4883     1.0  0.67638  0.50594  0.04019  1.0000
  H   H4884     1.0  0.53952  0.82542  0.00791  1.0000
  H   H4885     1.0  0.68950  0.51407  0.04534  1.0000
  H   H4886     1.0  0.50702  0.67524  0.09886  1.0000
  S   S1233     1.0  0.98659  0.68178  0.15800  1.0000
  C   C3061     1.0  0.52379  0.97196  0.16319  1.0000
  H   H4887     1.0  0.87651  0.68514  0.15699  1.0000
  H   H4888     1.0  0.67799  0.69188  0.16032  1.0000
  H   H4889     1.0  0.50682  0.68824  0.06441  1.0000
  H   H4890     1.0  0.55021  0.58268  0.15983  1.0000
  H   H4891     1.0  0.56480  0.70479  0.14806  1.0000
  H   H4892     1.0  0.49592  0.75422  0.12600  1.0000
  C   C3062     1.0  0.50882  0.69540  0.07140  1.0000
  H   H4893     1.0  0.83514  0.59524  0.12493  1.0000
  H   H4894     1.0  0.70778  0.48543  0.98287  1.0000
  H   H4895     1.0  0.50178  0.72502  0.16274  1.0000
  Fe  Fe623     1.0  0.57169  0.77189  0.17431  1.0000
  H   H4896     1.0  0.51040  0.70139  0.09808  1.0000
  C   C3063     1.0  0.79759  0.63774  0.98596  1.0000
  H   H4897     1.0  0.75971  0.60837  0.14532  1.0000
  C   C3064     1.0  0.78091  0.66404  0.16789  1.0000
  C   C3065     1.0  0.69776  0.55480  0.97787  1.0000
  H   H4898     1.0  0.58284  0.71117  0.14014  1.0000
  H   H4899     1.0  0.68795  0.56424  0.98061  1.0000
  H   H4900     1.0  0.70999  0.65379  0.17421  1.0000
  H   H4901     1.0  0.80664  0.64431  0.98036  1.0000
  S   S1234     1.0  0.52931  0.67976  0.17101  1.0000
  H   H4902     1.0  0.73417  0.59323  0.98903  1.0000
  C   C3066     1.0  0.80688  0.66235  0.17088  1.0000
  H   H4903     1.0  0.58202  0.66681  0.17158  1.0000
  S   S1235     1.0  0.84759  0.67681  0.17425  1.0000
  H   H4904     1.0  0.81562  0.55921  0.98809  1.0000
  S   S1236     1.0  0.95844  0.65076  0.17499  1.0000
  H   H4905     1.0  0.61216  0.88516  0.17070  1.0000
  C   C3067     1.0  0.68335  0.69127  0.17011  1.0000
  H   H4906     1.0  0.62106  0.58977  0.17583  1.0000
  S   S1237     1.0  0.64051  0.61105  0.17199  1.0000
  H   H4907     1.0  0.88044  0.70925  0.17121  1.0000
  N   N308      1.0  0.89147  0.68511  0.17146  1.0000
  H   H4908     1.0  0.56434  0.67887  0.16604  1.0000
  C   C3068     1.0  0.90745  0.68728  0.16950  1.0000
  H   H4909     1.0  0.81472  0.60724  0.98361  1.0000
  H   H4910     1.0  0.97131  0.59693  0.17036  1.0000
  H   H4911     1.0  0.56825  0.70007  0.17520  1.0000
  H   H4912     1.0  0.98964  0.58549  0.17507  1.0000
  H   H4913     1.0  0.65217  0.70058  0.17666  1.0000
  H   H4914     1.0  0.89866  0.66008  0.17660  1.0000
  S   S1238     1.0  0.66030  0.64155  0.17725  1.0000
  Fe  Fe624     1.0  0.60835  0.85570  0.22406  1.0000
  S   S1239     1.0  0.62165  0.83252  0.23514  1.0000
  S   S1240     1.0  0.62063  0.87272  0.20535  1.0000
  Fe  Fe625     1.0  0.57713  0.85096  0.24523  1.0000
  S   S1241     1.0  0.58786  0.82744  0.25800  1.0000
  S   S1242     1.0  0.55160  0.86248  0.25125  1.0000
  Fe  Fe626     1.0  0.60696  0.83863  0.25767  1.0000
  S   S1243     1.0  0.61291  0.83799  0.28016  1.0000
  Fe  Fe627     1.0  0.60121  0.82371  0.23421  1.0000
  S   S1244     1.0  0.60388  0.80056  0.22828  1.0000
  S   S1245     1.0  0.59521  0.86249  0.24660  1.0000
  S   S1246     1.0  0.58907  0.84654  0.22138  1.0000
  C   C3069     1.0  0.76201  0.98341  0.35170  1.0000
  C   C3070     1.0  0.82272  0.67709  0.19905  1.0000
  H   H4915     1.0  0.84913  0.64446  0.19008  1.0000
  Fe  Fe628     1.0  0.98223  0.83828  0.36444  1.0000
  H   H4916     1.0  0.50972  0.92211  0.32121  1.0000
  Fe  Fe629     1.0  0.49405  0.88457  0.35531  1.0000
  H   H4917     1.0  0.98813  0.82930  0.32914  1.0000
  H   H4918     1.0  0.52028  0.93068  0.32926  1.0000
  H   H4919     1.0  0.77556  0.96175  0.36239  1.0000
  H   H4920     1.0  0.88159  0.69716  0.19027  1.0000
  C   C3071     1.0  0.86900  0.50636  0.26538  1.0000
  H   H4921     1.0  0.94779  0.50458  0.25537  1.0000
  H   H4922     1.0  0.78914  0.50314  0.25315  1.0000
  H   H4923     1.0  0.99083  0.82797  0.30935  1.0000
  C   C3072     1.0  0.66916  0.67200  0.18701  1.0000
  C   C3073     1.0  0.80781  0.95398  0.33367  1.0000
  C   C3074     1.0  0.85718  0.60580  0.18520  1.0000
  C   C3075     1.0  0.53147  0.93136  0.21180  1.0000
  H   H4924     1.0  0.96110  0.61921  0.20150  1.0000
  S   S1247     1.0  0.69766  0.62774  0.19645  1.0000
  C   C3076     1.0  0.55811  0.86659  0.31834  1.0000
  H   H4925     1.0  0.71736  0.75062  0.31006  1.0000
  H   H4926     1.0  0.79812  0.49403  0.22831  1.0000
  H   H4927     1.0  0.82067  0.97859  0.31828  1.0000
  Fe  Fe630     1.0  0.77804  0.65688  0.23647  1.0000
  S   S1248     1.0  0.76588  0.67947  0.22318  1.0000
  S   S1249     1.0  0.80349  0.64481  0.23344  1.0000
  Fe  Fe631     1.0  0.74796  0.64911  0.25745  1.0000
  S   S1250     1.0  0.73281  0.67077  0.24600  1.0000
  S   S1251     1.0  0.74088  0.63147  0.27920  1.0000
  Fe  Fe632     1.0  0.74876  0.66560  0.22347  1.0000
  S   S1252     1.0  0.74176  0.66882  0.20060  1.0000
  Fe  Fe633     1.0  0.75089  0.68298  0.24660  1.0000
  S   S1253     1.0  0.74262  0.70441  0.25696  1.0000
  S   S1254     1.0  0.76223  0.64275  0.23496  1.0000
  S   S1255     1.0  0.76472  0.66176  0.25968  1.0000
  H   H4928     1.0  0.82916  0.50479  0.30737  1.0000
  N   N309      1.0  0.97773  0.60305  0.18839  1.0000
  H   H4929     1.0  0.79495  0.68322  0.27636  1.0000
  H   H4930     1.0  0.80686  0.49169  0.25904  1.0000
  S   S1256     1.0  0.52452  0.84512  0.32361  1.0000
  H   H4931     1.0  0.52184  0.86645  0.37109  1.0000
  C   C3077     1.0  0.87388  0.49123  0.26269  1.0000
  S   S1257     1.0  0.83963  0.48888  0.24371  1.0000
  Fe  Fe634     1.0  0.98796  0.57276  0.28107  1.0000
  C   C3078     1.0  0.77909  0.51435  0.33802  1.0000
  N   N310      1.0  0.68070  0.89156  0.36531  1.0000
  H   H4932     1.0  0.90992  0.59847  0.27529  1.0000
  C   C3079     1.0  0.80275  0.71683  0.36668  1.0000
  C   C3080     1.0  0.85160  0.49576  0.25112  1.0000
  H   H4933     1.0  0.91493  0.49989  0.27283  1.0000
  S   S1258     1.0  0.80883  0.57435  0.33268  1.0000
  H   H4934     1.0  0.98876  0.89211  0.36782  1.0000
  Fe  Fe635     1.0  0.79845  0.59965  0.33255  1.0000
  S   S1259     1.0  0.79880  0.61675  0.30960  1.0000
  H   H4935     1.0  0.88956  0.57615  0.18308  1.0000
  Fe  Fe636     1.0  0.98056  0.58225  0.24919  1.0000
  S   S1260     1.0  0.76395  0.94043  0.32717  1.0000
  H   H4936     1.0  0.79741  0.94875  0.33939  1.0000
  H   H4937     1.0  0.79067  0.98260  0.30690  1.0000
  C   C3081     1.0  0.80660  0.95301  0.30797  1.0000
  H   H4938     1.0  0.90648  0.56484  0.28769  1.0000
  H   H4939     1.0  0.72740  0.73747  0.29727  1.0000
  Fe  Fe637     1.0  0.50390  0.86273  0.33302  1.0000
  H   H4940     1.0  0.92772  0.59500  0.26081  1.0000
  C   C3082     1.0  0.80923  0.86181  0.36641  1.0000
  S   S1261     1.0  0.73681  0.93479  0.35868  1.0000
  C   C3083     1.0  0.72723  0.81267  0.34871  1.0000
  H   H4941     1.0  0.64940  0.69657  0.19741  1.0000
  S   S1262     1.0  0.57261  0.93698  0.19228  1.0000
  H   H4942     1.0  0.87809  0.66750  0.18305  1.0000
  H   H4943     1.0  0.96723  0.81830  0.34979  1.0000
  C   C3084     1.0  0.49965  0.94778  0.28137  1.0000
  S   S1263     1.0  0.60005  0.71553  0.18634  1.0000
  S   S1264     1.0  0.97601  0.85573  0.34326  1.0000
  N   N311      1.0  0.79005  0.66497  0.17851  1.0000
  Fe  Fe638     1.0  0.84684  0.83368  0.33527  1.0000
  S   S1265     1.0  0.86578  0.81262  0.33075  1.0000
  S   S1266     1.0  0.83506  0.85008  0.31660  1.0000
  Fe  Fe639     1.0  0.85030  0.79954  0.35069  1.0000
  S   S1267     1.0  0.84580  0.77663  0.34992  1.0000
  Fe  Fe640     1.0  0.87543  0.81711  0.34888  1.0000
  S   S1268     1.0  0.90109  0.81326  0.34910  1.0000
  S   S1269     1.0  0.83084  0.82038  0.35408  1.0000
  S   S1270     1.0  0.85763  0.83934  0.35169  1.0000
  Fe  Fe641     1.0  0.78388  0.73629  0.29969  1.0000
  S   S1271     1.0  0.77383  0.71891  0.31973  1.0000
  S   S1272     1.0  0.78989  0.73164  0.27553  1.0000
  Fe  Fe642     1.0  0.78376  0.75716  0.32065  1.0000
  S   S1273     1.0  0.77329  0.74147  0.34235  1.0000
  S   S1274     1.0  0.78775  0.77977  0.32280  1.0000
  Fe  Fe643     1.0  0.79045  0.72210  0.33198  1.0000
  S   S1275     1.0  0.80447  0.70052  0.34493  1.0000
  Fe  Fe644     1.0  0.75777  0.73988  0.32800  1.0000
  S   S1276     1.0  0.73255  0.73895  0.33786  1.0000
  S   S1277     1.0  0.80208  0.73787  0.31117  1.0000
  S   S1278     1.0  0.76654  0.75727  0.30702  1.0000
  Fe  Fe645     1.0  0.68454  0.84305  0.30398  1.0000
  S   S1279     1.0  0.66692  0.83769  0.32626  1.0000
  S   S1280     1.0  0.68135  0.84109  0.28094  1.0000
  Fe  Fe646     1.0  0.70639  0.84929  0.32060  1.0000
  S   S1281     1.0  0.69033  0.84448  0.34398  1.0000
  S   S1282     1.0  0.72964  0.85327  0.32096  1.0000
  Fe  Fe647     1.0  0.68777  0.82424  0.33634  1.0000
  S   S1283     1.0  0.68681  0.80140  0.35355  1.0000
  Fe  Fe648     1.0  0.67125  0.85841  0.33155  1.0000
  S   S1284     1.0  0.65188  0.87706  0.34089  1.0000
  S   S1285     1.0  0.70527  0.82790  0.31376  1.0000
  S   S1286     1.0  0.68747  0.86495  0.30851  1.0000
  Fe  Fe649     1.0  0.78024  0.92188  0.34066  1.0000
  S   S1287     1.0  0.80638  0.91630  0.33304  1.0000
  S   S1288     1.0  0.72927  0.92083  0.32719  1.0000
  S   S1289     1.0  0.76462  0.90471  0.34937  1.0000
  H   H4944     1.0  0.55665  0.87950  0.31521  1.0000
  C   C3085     1.0  0.67308  0.90369  0.37452  1.0000
  C   C3086     1.0  0.75457  0.81247  0.34494  1.0000
  C   C3087     1.0  0.87162  0.59694  0.17889  1.0000
  H   H4945     1.0  0.62508  0.87064  0.25881  1.0000
  H   H4946     1.0  0.56520  0.81936  0.19526  1.0000
  C   C3088     1.0  0.69792  0.88940  0.36212  1.0000
  H   H4947     1.0  0.67247  0.68339  0.20970  1.0000
  C   C3089     1.0  0.79497  0.53841  0.33164  1.0000
  H   H4948     1.0  0.90612  0.50582  0.24177  1.0000
  S   S1290     1.0  0.51073  0.96122  0.26935  1.0000
  C   C3090     1.0  0.64492  0.86399  0.23284  1.0000
  H   H4949     1.0  0.66258  0.89834  0.35237  1.0000
  H   H4950     1.0  0.94075  0.83375  0.35931  1.0000
  H   H4951     1.0  0.93034  0.55993  0.26663  1.0000
  H   H4952     1.0  0.84671  0.73886  0.36753  1.0000
  C   C3091     1.0  0.58100  0.90636  0.20609  1.0000
  H   H4953     1.0  0.77207  0.68299  0.18787  1.0000
  S   S1291     1.0  0.77222  0.93186  0.36202  1.0000
  Fe  Fe650     1.0  0.86632  0.56663  0.24181  1.0000
  S   S1292     1.0  0.88533  0.57845  0.24032  1.0000
  S   S1293     1.0  0.84735  0.58052  0.22917  1.0000
  Fe  Fe651     1.0  0.87907  0.53779  0.26429  1.0000
  S   S1294     1.0  0.89856  0.54758  0.26548  1.0000
  S   S1295     1.0  0.87916  0.51261  0.27531  1.0000
  Fe  Fe652     1.0  0.88056  0.56990  0.26616  1.0000
  S   S1296     1.0  0.87811  0.58748  0.27996  1.0000
  Fe  Fe653     1.0  0.90133  0.55506  0.23962  1.0000
  S   S1297     1.0  0.92597  0.54988  0.22607  1.0000
  S   S1298     1.0  0.86052  0.55938  0.26786  1.0000
  S   S1299     1.0  0.88286  0.54401  0.23827  1.0000
  H   H4954     1.0  0.68075  0.88734  0.34330  1.0000
  C   C3092     1.0  0.74885  0.58648  0.30348  1.0000
  H   H4955     1.0  0.98104  0.79630  0.31804  1.0000
  H   H4956     1.0  0.51311  0.95319  0.17800  1.0000
  C   C3093     1.0  0.73875  0.75895  0.27301  1.0000
  H   H4957     1.0  0.63358  0.89277  0.21746  1.0000
  C   C3094     1.0  0.77467  0.97415  0.35816  1.0000
  H   H4958     1.0  0.89175  0.66858  0.19338  1.0000
  H   H4959     1.0  0.80776  0.88947  0.37233  1.0000
  H   H4960     1.0  0.71847  0.80759  0.34659  1.0000
  S   S1300     1.0  0.96053  0.59495  0.23762  1.0000
  C   C3095     1.0  0.97891  0.59114  0.33823  1.0000
  C   C3096     1.0  0.65798  0.69939  0.18626  1.0000
  C   C3097     1.0  0.74642  0.78829  0.34956  1.0000
  S   S1301     1.0  0.97983  0.56050  0.26788  1.0000
  H   H4961     1.0  0.98565  0.58045  0.37086  1.0000
  C   C3098     1.0  0.62161  0.68965  0.17913  1.0000
  H   H4962     1.0  0.79630  0.72681  0.35980  1.0000
  H   H4963     1.0  0.70398  0.88027  0.35522  1.0000
  H   H4964     1.0  0.49733  0.93057  0.36070  1.0000
  H   H4965     1.0  0.76294  0.58805  0.32532  1.0000
  S   S1302     1.0  0.97622  0.56987  0.30630  1.0000
  H   H4966     1.0  0.96239  0.58033  0.33465  1.0000
  C   C3099     1.0  0.58627  0.86275  0.31008  1.0000
  H   H4967     1.0  0.79884  0.67014  0.37182  1.0000
  C   C3100     1.0  0.93600  0.56255  0.22833  1.0000
  C   C3101     1.0  0.95119  0.55689  0.23096  1.0000
  C   C3102     1.0  0.95894  0.56683  0.23365  1.0000
  C   C3103     1.0  0.95151  0.58248  0.23351  1.0000
  C   C3104     1.0  0.93647  0.58821  0.23053  1.0000
  C   C3105     1.0  0.92866  0.57821  0.22811  1.0000
  H   H4968     1.0  0.95674  0.54472  0.23131  1.0000
  H   H4969     1.0  0.97058  0.56236  0.23594  1.0000
  H   H4970     1.0  0.93075  0.60034  0.23029  1.0000
  H   H4971     1.0  0.91704  0.58267  0.22581  1.0000
  S   S1303     1.0  0.92956  0.86755  0.35350  1.0000
  C   C3106     1.0  0.63269  0.88317  0.36822  1.0000
  H   H4972     1.0  0.92939  0.81274  0.35721  1.0000
  H   H4973     1.0  0.94817  0.83015  0.32503  1.0000
  N   N312      1.0  0.67269  0.68727  0.18537  1.0000
  C   C3107     1.0  0.84679  0.51091  0.25379  1.0000
  C   C3108     1.0  0.85562  0.51630  0.26067  1.0000
  S   S1304     1.0  0.77514  0.55176  0.35576  1.0000
  H   H4974     1.0  0.73592  0.77610  0.29343  1.0000
  H   H4975     1.0  0.82086  0.86318  0.36684  1.0000
  H   H4976     1.0  0.83619  0.51850  0.25056  1.0000
  H   H4977     1.0  0.85180  0.52802  0.26273  1.0000
  C   C3109     1.0  0.98305  0.57963  0.31614  1.0000
  H   H4978     1.0  0.83153  0.96177  0.31038  1.0000
  C   C3110     1.0  0.92961  0.83663  0.35602  1.0000
  C   C3111     1.0  0.91314  0.56969  0.29303  1.0000
  C   C3112     1.0  0.88992  0.66965  0.18159  1.0000
  H   H4979     1.0  0.77286  0.50514  0.34051  1.0000
  C   C3113     1.0  0.71061  0.76304  0.28167  1.0000
  H   H4980     1.0  0.79641  0.94732  0.31277  1.0000
  H   H4981     1.0  0.82449  0.48545  0.29597  1.0000
  H   H4982     1.0  0.69132  0.67726  0.19777  1.0000
  H   H4983     1.0  0.66080  0.88685  0.22115  1.0000
  C   C3114     1.0  0.60215  0.91812  0.18900  1.0000
  C   C3115     1.0  0.97223  0.80744  0.31583  1.0000
  H   H4984     1.0  0.84603  0.50043  0.31558  1.0000
  S   S1305     1.0  0.49349  0.96481  0.20450  1.0000
  S   S1306     1.0  0.98657  0.59531  0.26330  1.0000
  H   H4985     1.0  0.97142  0.58220  0.18805  1.0000
  C   C3116     1.0  0.72928  0.87198  0.32304  1.0000
  C   C3117     1.0  0.71635  0.88433  0.32103  1.0000
  C   C3118     1.0  0.71652  0.89927  0.32227  1.0000
  C   C3119     1.0  0.72946  0.90189  0.32585  1.0000
  C   C3120     1.0  0.74225  0.88946  0.32814  1.0000
  C   C3121     1.0  0.74220  0.87458  0.32663  1.0000
  H   H4986     1.0  0.70639  0.88248  0.31813  1.0000
  H   H4987     1.0  0.70665  0.90887  0.32033  1.0000
  H   H4988     1.0  0.75236  0.89139  0.33068  1.0000
  H   H4989     1.0  0.75227  0.86509  0.32812  1.0000
  C   C3122     1.0  0.72008  0.75652  0.34181  1.0000
  C   C3123     1.0  0.72227  0.77091  0.33209  1.0000
  C   C3124     1.0  0.71164  0.78476  0.33514  1.0000
  C   C3125     1.0  0.69936  0.78428  0.34836  1.0000
  C   C3126     1.0  0.69730  0.76986  0.35807  1.0000
  C   C3127     1.0  0.70743  0.75601  0.35463  1.0000
  H   H4990     1.0  0.73201  0.77133  0.32217  1.0000
  H   H4991     1.0  0.71302  0.79579  0.32742  1.0000
  C   C3128     1.0  0.58624  0.91939  0.19603  1.0000
  H   H4992     1.0  0.55860  0.86254  0.33087  1.0000
  C   C3129     1.0  0.82699  0.86842  0.32127  1.0000
  C   C3130     1.0  0.81198  0.87646  0.31902  1.0000
  C   C3131     1.0  0.80540  0.89107  0.32294  1.0000
  C   C3132     1.0  0.81407  0.89785  0.32860  1.0000
  C   C3133     1.0  0.82908  0.88982  0.33080  1.0000
  C   C3134     1.0  0.83544  0.87502  0.32735  1.0000
  H   H4993     1.0  0.80541  0.87136  0.31434  1.0000
  H   H4994     1.0  0.79382  0.89727  0.32117  1.0000
  H   H4995     1.0  0.83580  0.89505  0.33518  1.0000
  H   H4996     1.0  0.84710  0.86893  0.32894  1.0000
  C   C3135     1.0  0.82906  0.77719  0.34343  1.0000
  C   C3136     1.0  0.81724  0.79074  0.34189  1.0000
  C   C3137     1.0  0.80445  0.79124  0.33591  1.0000
  C   C3138     1.0  0.80332  0.77819  0.33145  1.0000
  C   C3139     1.0  0.81486  0.76445  0.33342  1.0000
  C   C3140     1.0  0.82772  0.76397  0.33936  1.0000
  H   H4997     1.0  0.81794  0.80088  0.34522  1.0000
  H   H4998     1.0  0.79550  0.80185  0.33460  1.0000
  H   H4999     1.0  0.81407  0.75427  0.33010  1.0000
  H   H5000     1.0  0.83679  0.75341  0.34050  1.0000
  C   C3141     1.0  0.90861  0.82845  0.35073  1.0000
  C   C3142     1.0  0.90043  0.84400  0.34799  1.0000
  C   C3143     1.0  0.76938  0.57970  0.31766  1.0000
  S   S1307     1.0  0.79674  0.50332  0.31174  1.0000
  C   C3144     1.0  0.92318  0.82480  0.35480  1.0000
  H   H5001     1.0  0.88926  0.84699  0.34474  1.0000
  H   H5002     1.0  0.80117  0.54761  0.32903  1.0000
  C   C3145     1.0  0.77591  0.68267  0.30429  1.0000
  Fe  Fe654     1.0  0.49513  0.97711  0.25362  1.0000
  H   H5003     1.0  0.80592  0.95957  0.29588  1.0000
  C   C3146     1.0  0.83904  0.65164  0.19624  1.0000
  C   C3147     1.0  0.93750  0.51199  0.25058  1.0000
  H   H5004     1.0  0.66012  0.71106  0.18535  1.0000
  H   H5005     1.0  0.79163  0.64095  0.19075  1.0000
  H   H5006     1.0  0.98559  0.62430  0.18330  1.0000
  H   H5007     1.0  0.66525  0.87608  0.23964  1.0000
  C   C3148     1.0  0.74551  0.80704  0.32510  1.0000
  C   C3149     1.0  0.78232  0.53736  0.34443  1.0000
  N   N313      1.0  0.64149  0.87873  0.23809  1.0000
  N   N314      1.0  0.75851  0.57353  0.31286  1.0000
  Fe  Fe655     1.0  0.95312  0.86276  0.35959  1.0000
  H   H5008     1.0  0.58105  0.85830  0.28407  1.0000
  H   H5009     1.0  0.93076  0.52021  0.25829  1.0000
  Fe  Fe656     1.0  0.78887  0.56999  0.35291  1.0000
  H   H5010     1.0  0.74519  0.78641  0.36234  1.0000
  H   H5011     1.0  0.74299  0.81961  0.31918  1.0000
  C   C3150     1.0  0.64415  0.87207  0.36095  1.0000
  C   C3151     1.0  0.97375  0.58328  0.33017  1.0000
  H   H5012     1.0  0.80864  0.96121  0.34124  1.0000
  H   H5013     1.0  0.82288  0.67950  0.36607  1.0000
  H   H5014     1.0  0.57527  0.83715  0.32524  1.0000
  H   H5015     1.0  0.67634  0.91505  0.36834  1.0000
  S   S1308     1.0  0.84588  0.56320  0.34973  1.0000
  H   H5016     1.0  0.77160  0.68228  0.37080  1.0000
  Fe  Fe657     1.0  0.75482  0.94930  0.34928  1.0000
  H   H5017     1.0  0.75512  0.55615  0.33412  1.0000
  Fe  Fe658     1.0  0.98487  0.87198  0.35151  1.0000
  C   C3152     1.0  0.82032  0.97070  0.31108  1.0000
  H   H5018     1.0  0.58400  0.83557  0.30539  1.0000
  H   H5019     1.0  0.54731  0.86399  0.31716  1.0000
  H   H5020     1.0  0.66067  0.66879  0.19810  1.0000
  S   S1309     1.0  0.80163  0.56911  0.37100  1.0000
  H   H5021     1.0  0.97519  0.81286  0.30319  1.0000
  C   C3153     1.0  0.78596  0.67619  0.27900  1.0000
  H   H5022     1.0  0.63432  0.85903  0.23607  1.0000
  C   C3154     1.0  0.98767  0.82176  0.32171  1.0000
  H   H5023     1.0  0.59708  0.85714  0.30259  1.0000
  H   H5024     1.0  0.81408  0.66287  0.17864  1.0000
  H   H5025     1.0  0.80947  0.84908  0.36984  1.0000
  H   H5026     1.0  0.73809  0.76883  0.26269  1.0000
  H   H5027     1.0  0.71648  0.60313  0.17767  1.0000
  C   C3155     1.0  0.87979  0.69743  0.17866  1.0000
  H   H5028     1.0  0.67899  0.90742  0.34324  1.0000
  C   C3156     1.0  0.91398  0.51266  0.24288  1.0000
  Fe  Fe659     1.0  0.82076  0.57533  0.35056  1.0000
  C   C3157     1.0  0.79143  0.51574  0.32497  1.0000
  C   C3158     1.0  0.57087  0.86433  0.29189  1.0000
  C   C3159     1.0  0.85576  0.56979  0.33067  1.0000
  C   C3160     1.0  0.86440  0.55913  0.32133  1.0000
  C   C3161     1.0  0.87119  0.56454  0.30565  1.0000
  C   C3162     1.0  0.86974  0.58058  0.29950  1.0000
  C   C3163     1.0  0.86148  0.59121  0.30895  1.0000
  C   C3164     1.0  0.85425  0.58582  0.32446  1.0000
  H   H5029     1.0  0.86536  0.54673  0.32606  1.0000
  H   H5030     1.0  0.87749  0.55629  0.29834  1.0000
  H   H5031     1.0  0.86031  0.60362  0.30420  1.0000
  H   H5032     1.0  0.84751  0.59409  0.33162  1.0000
  S   S1310     1.0  0.49490  0.85916  0.35888  1.0000
  H   H5033     1.0  0.71057  0.75209  0.27857  1.0000
  N   N315      1.0  0.92567  0.57635  0.28115  1.0000
  H   H5034     1.0  0.70884  0.77278  0.27141  1.0000
  Fe  Fe660     1.0  0.75510  0.91648  0.36947  1.0000
  H   H5035     1.0  0.61599  0.68342  0.19024  1.0000
  C   C3165     1.0  0.79936  0.52778  0.32184  1.0000
  Fe  Fe661     1.0  0.79225  0.59507  0.36758  1.0000
  H   H5036     1.0  0.80885  0.52902  0.31171  1.0000
  H   H5037     1.0  0.91237  0.58516  0.26325  1.0000
  H   H5038     1.0  0.76545  0.69111  0.30064  1.0000
  C   C3166     1.0  0.96826  0.81032  0.34216  1.0000
  H   H5039     1.0  0.54251  0.93152  0.20276  1.0000
  H   H5040     1.0  0.71627  0.97256  0.36339  1.0000
  C   C3167     1.0  0.50690  0.93243  0.28736  1.0000
  H   H5041     1.0  0.71504  0.77893  0.30032  1.0000
  H   H5042     1.0  0.62657  0.90169  0.23401  1.0000
  C   C3168     1.0  0.72486  0.77655  0.29023  1.0000
  H   H5043     1.0  0.51954  0.92885  0.28485  1.0000
  H   H5044     1.0  0.79624  0.97369  0.36388  1.0000
  H   H5045     1.0  0.79081  0.66675  0.27235  1.0000
  C   C3169     1.0  0.93641  0.56412  0.27318  1.0000
  S   S1311     1.0  0.49929  0.89613  0.37157  1.0000
  C   C3170     1.0  0.87094  0.57804  0.20344  1.0000
  C   C3171     1.0  0.85643  0.58672  0.20973  1.0000
  C   C3172     1.0  0.84944  0.60053  0.20058  1.0000
  C   C3173     1.0  0.86530  0.48599  0.25538  1.0000
  H   H5046     1.0  0.87637  0.56736  0.21043  1.0000
  H   H5047     1.0  0.83821  0.60723  0.20545  1.0000
  S   S1312     1.0  0.81248  0.60114  0.34839  1.0000
  H   H5048     1.0  0.65419  0.85501  0.23810  1.0000
  H   H5049     1.0  0.61847  0.88620  0.23314  1.0000
  S   S1313     1.0  0.74780  0.97506  0.34941  1.0000
  H   H5050     1.0  0.98600  0.52943  0.31022  1.0000
  H   H5051     1.0  0.51499  0.92596  0.24162  1.0000
  H   H5052     1.0  0.85189  0.61657  0.17823  1.0000
  C   C3174     1.0  0.75633  0.71089  0.26244  1.0000
  C   C3175     1.0  0.77107  0.71178  0.25274  1.0000
  C   C3176     1.0  0.78137  0.71802  0.25694  1.0000
  C   C3177     1.0  0.77709  0.72316  0.27094  1.0000
  C   C3178     1.0  0.76255  0.72179  0.28086  1.0000
  C   C3179     1.0  0.75213  0.71582  0.27653  1.0000
  H   H5053     1.0  0.77434  0.70808  0.24181  1.0000
  H   H5054     1.0  0.79262  0.71907  0.24922  1.0000
  H   H5055     1.0  0.75923  0.72561  0.29171  1.0000
  H   H5056     1.0  0.74078  0.71500  0.28409  1.0000
  C   C3180     1.0  0.75690  0.62557  0.28810  1.0000
  C   C3181     1.0  0.77196  0.62521  0.27877  1.0000
  C   C3182     1.0  0.78472  0.62238  0.28556  1.0000
  C   C3183     1.0  0.78264  0.61922  0.30172  1.0000
  C   C3184     1.0  0.76766  0.61902  0.31118  1.0000
  C   C3185     1.0  0.75474  0.62229  0.30435  1.0000
  H   H5057     1.0  0.77375  0.62754  0.26623  1.0000
  H   H5058     1.0  0.79615  0.62294  0.27822  1.0000
  H   H5059     1.0  0.76593  0.61698  0.32369  1.0000
  H   H5060     1.0  0.74305  0.62284  0.31158  1.0000
  C   C3186     1.0  0.81595  0.65385  0.21732  1.0000
  C   C3187     1.0  0.82923  0.64466  0.20953  1.0000
  C   C3188     1.0  0.81264  0.67006  0.21205  1.0000
  H   H5061     1.0  0.83180  0.63211  0.21360  1.0000
  H   H5062     1.0  0.80247  0.67719  0.21813  1.0000
  C   C3189     1.0  0.70960  0.63960  0.19738  1.0000
  C   C3190     1.0  0.71500  0.63679  0.21106  1.0000
  C   C3191     1.0  0.72472  0.64577  0.21224  1.0000
  C   C3192     1.0  0.72927  0.65756  0.19966  1.0000
  C   C3193     1.0  0.72392  0.66037  0.18592  1.0000
  Fe  Fe662     1.0  0.84347  0.82377  0.37011  1.0000
  H   H5063     1.0  0.71159  0.62765  0.22086  1.0000
  H   H5064     1.0  0.72874  0.64352  0.22288  1.0000
  H   H5065     1.0  0.54123  0.72480  0.18054  1.0000
  H   H5066     1.0  0.51147  0.91476  0.34113  1.0000
  H   H5067     1.0  0.90448  0.57872  0.29894  1.0000
  C   C3194     1.0  0.76758  0.56184  0.30347  1.0000
  H   H5068     1.0  0.65852  0.84877  0.36431  1.0000
  H   H5069     1.0  0.95485  0.60184  0.20285  1.0000
  H   H5070     1.0  0.98271  0.53229  0.22250  1.0000
  N   N316      1.0  0.92762  0.50241  0.24896  1.0000
  H   H5071     1.0  0.94024  0.57280  0.29733  1.0000
  H   H5072     1.0  0.95941  0.84077  0.32967  1.0000
  S   S1314     1.0  0.56363  0.79262  0.18576  1.0000
  S   S1315     1.0  0.97799  0.50153  0.22698  1.0000
  S   S1316     1.0  0.50508  0.88768  0.32980  1.0000
  C   C3195     1.0  0.87840  0.58300  0.18795  1.0000
  C   C3196     1.0  0.50501  0.97381  0.18757  1.0000
  H   H5073     1.0  0.75977  0.55705  0.29950  1.0000
  C   C3197     1.0  0.92160  0.85225  0.35288  1.0000
  H   H5074     1.0  0.77494  0.65445  0.19895  1.0000
  H   H5075     1.0  0.69668  0.97957  0.36022  1.0000
  H   H5076     1.0  0.74171  0.59544  0.31026  1.0000
  N   N317      1.0  0.74342  0.80510  0.34209  1.0000
  H   H5077     1.0  0.53032  0.91901  0.21623  1.0000
  C   C3198     1.0  0.61277  0.90375  0.19192  1.0000
  H   H5078     1.0  0.65385  0.89576  0.23774  1.0000
  H   H5079     1.0  0.94399  0.58752  0.27999  1.0000
  H   H5080     1.0  0.86764  0.69594  0.18036  1.0000
  N   N318      1.0  0.79634  0.87051  0.37676  1.0000
  C   C3199     1.0  0.59403  0.79903  0.21483  1.0000
  C   C3200     1.0  0.59614  0.78443  0.21141  1.0000
  C   C3201     1.0  0.58725  0.78244  0.20206  1.0000
  C   C3202     1.0  0.57594  0.79498  0.19636  1.0000
  C   C3203     1.0  0.57393  0.80962  0.19963  1.0000
  C   C3204     1.0  0.58316  0.81171  0.20856  1.0000
  H   H5081     1.0  0.60453  0.77456  0.21619  1.0000
  H   H5082     1.0  0.58885  0.77109  0.19964  1.0000
  C   C3205     1.0  0.93690  0.49236  0.23799  1.0000
  H   H5083     1.0  0.58160  0.82307  0.21083  1.0000
  C   C3206     1.0  0.63209  0.83851  0.28011  1.0000
  C   C3207     1.0  0.64479  0.83459  0.26807  1.0000
  C   C3208     1.0  0.65993  0.83532  0.26842  1.0000
  C   C3209     1.0  0.66238  0.84005  0.28073  1.0000
  C   C3210     1.0  0.64959  0.84420  0.29256  1.0000
  C   C3211     1.0  0.63456  0.84325  0.29235  1.0000
  H   H5084     1.0  0.64300  0.83075  0.25867  1.0000
  H   H5085     1.0  0.66978  0.83207  0.25923  1.0000
  H   H5086     1.0  0.65123  0.84832  0.30182  1.0000
  H   H5087     1.0  0.62485  0.84628  0.30172  1.0000
  C   C3212     1.0  0.54286  0.85712  0.27107  1.0000
  C   C3213     1.0  0.53068  0.86780  0.27828  1.0000
  C   C3214     1.0  0.52455  0.86403  0.29441  1.0000
  C   C3215     1.0  0.53046  0.84948  0.30326  1.0000
  C   C3216     1.0  0.54209  0.83856  0.29591  1.0000
  C   C3217     1.0  0.54835  0.84241  0.27989  1.0000
  H   H5088     1.0  0.52627  0.87915  0.27148  1.0000
  H   H5089     1.0  0.51543  0.87247  0.30000  1.0000
  H   H5090     1.0  0.54650  0.82721  0.30270  1.0000
  H   H5091     1.0  0.55745  0.83401  0.27445  1.0000
  H   H5092     1.0  0.58298  0.48417  0.19090  1.0000
  H   H5093     1.0  0.75845  0.78212  0.34469  1.0000
  N   N319      1.0  0.80670  0.96332  0.31784  1.0000
  C   C3218     1.0  0.96145  0.61057  0.19482  1.0000
  H   H5094     1.0  0.72320  0.78674  0.28033  1.0000
  C   C3219     1.0  0.98604  0.59524  0.20120  1.0000
  C   C3220     1.0  0.98879  0.50870  0.23541  1.0000
  C   C3221     1.0  0.60746  0.89071  0.20189  1.0000
  C   C3222     1.0  0.70482  0.96930  0.36570  1.0000
  C   C3223     1.0  0.59158  0.89203  0.20898  1.0000
  H   H5095     1.0  0.50362  0.95656  0.32103  1.0000
  H   H5096     1.0  0.58736  0.88197  0.21655  1.0000
  H   H5097     1.0  0.79400  0.65351  0.20146  1.0000
  H   H5098     1.0  0.91464  0.48524  0.26342  1.0000
  H   H5099     1.0  0.76688  0.80693  0.34012  1.0000
  H   H5100     1.0  0.77268  0.49014  0.24469  1.0000
  S   S1317     1.0  0.96125  0.88102  0.36567  1.0000
  H   H5101     1.0  0.50590  0.94664  0.34890  1.0000
  H   H5102     1.0  0.73819  0.74739  0.30348  1.0000
  H   H5103     1.0  0.75791  0.66985  0.29501  1.0000
  C   C3224     1.0  0.72714  0.74877  0.29980  1.0000
  H   H5104     1.0  0.80808  0.86594  0.35406  1.0000
  H   H5105     1.0  0.91764  0.52016  0.23125  1.0000
  H   H5106     1.0  0.68319  0.69767  0.19713  1.0000
  H   H5107     1.0  0.70027  0.76521  0.29137  1.0000
  N   N320      1.0  0.72534  0.76183  0.28617  1.0000
  H   H5108     1.0  0.94226  0.51913  0.23908  1.0000
  H   H5109     1.0  0.94633  0.56864  0.26466  1.0000
  H   H5110     1.0  0.77701  0.58586  0.30743  1.0000
  C   C3225     1.0  0.91864  0.58932  0.26962  1.0000
  H   H5111     1.0  0.75772  0.80175  0.31971  1.0000
  H   H5112     1.0  0.97753  0.79982  0.34520  1.0000
  H   H5113     1.0  0.75015  0.75728  0.27620  1.0000
  C   C3226     1.0  0.79473  0.49134  0.25904  1.0000
  Fe  Fe663     1.0  0.74737  0.92408  0.33786  1.0000
  H   H5114     1.0  0.98330  0.55340  0.37317  1.0000
  C   C3227     1.0  0.78635  0.98093  0.35906  1.0000
  H   H5115     1.0  0.73973  0.56143  0.32374  1.0000
  H   H5116     1.0  0.60627  0.92823  0.18140  1.0000
  H   H5117     1.0  0.72462  0.82539  0.34347  1.0000
  H   H5118     1.0  0.58649  0.68878  0.18004  1.0000
  H   H5119     1.0  0.59209  0.88374  0.17783  1.0000
  H   H5120     1.0  0.76464  0.52433  0.35748  1.0000
  H   H5121     1.0  0.77718  0.57019  0.32433  1.0000
  H   H5122     1.0  0.52169  0.93786  0.20582  1.0000
  C   C3228     1.0  0.96007  0.83257  0.32238  1.0000
  H   H5123     1.0  0.50329  0.90958  0.30025  1.0000
  C   C3229     1.0  0.65599  0.88463  0.23396  1.0000
  H   H5124     1.0  0.94150  0.55387  0.28157  1.0000
  H   H5125     1.0  0.91793  0.56012  0.30215  1.0000
  H   H5126     1.0  0.72517  0.81130  0.36153  1.0000
  H   H5127     1.0  0.57019  0.87710  0.28776  1.0000
  H   H5128     1.0  0.94171  0.49938  0.22646  1.0000
  H   H5129     1.0  0.74060  0.58227  0.29949  1.0000
  C   C3230     1.0  0.50983  0.92560  0.33188  1.0000
  H   H5130     1.0  0.81730  0.94342  0.30735  1.0000
  H   H5131     1.0  0.96264  0.83887  0.30999  1.0000
  C   C3231     1.0  0.79210  0.97556  0.31867  1.0000
  H   H5132     1.0  0.74145  0.57447  0.33444  1.0000
  H   H5133     1.0  0.82022  0.68965  0.19503  1.0000
  H   H5134     1.0  0.70564  0.74489  0.36211  1.0000
  H   H5135     1.0  0.90687  0.52045  0.25086  1.0000
  C   C3232     1.0  0.67554  0.89640  0.35041  1.0000
  C   C3233     1.0  0.74822  0.56609  0.32687  1.0000
  H   H5136     1.0  0.90069  0.86791  0.34656  1.0000
  H   H5137     1.0  0.73911  0.74825  0.26922  1.0000
  H   H5138     1.0  0.70677  0.95976  0.35954  1.0000
  H   H5139     1.0  0.78157  0.97043  0.32415  1.0000
  H   H5140     1.0  0.62507  0.90277  0.18643  1.0000
  N   N321      1.0  0.78131  0.66979  0.29590  1.0000
  C   C3234     1.0  0.76845  0.66171  0.29883  1.0000
  C   C3235     1.0  0.79489  0.65861  0.30140  1.0000
  H   H5141     1.0  0.78515  0.68937  0.30196  1.0000
  H   H5142     1.0  0.77267  0.67824  0.31711  1.0000
  H   H5143     1.0  0.77201  0.65221  0.29234  1.0000
  H   H5144     1.0  0.76489  0.65632  0.31140  1.0000
  H   H5145     1.0  0.79947  0.64896  0.29500  1.0000
  H   H5146     1.0  0.79171  0.65308  0.31400  1.0000
  H   H5147     1.0  0.80465  0.66441  0.29974  1.0000
  H   H5148     1.0  0.77574  0.68390  0.27434  1.0000
  N   N322      1.0  0.83579  0.81370  0.29750  1.0000
  C   C3236     1.0  0.83045  0.81359  0.28370  1.0000
  C   C3237     1.0  0.82249  0.82130  0.30839  1.0000
  C   C3238     1.0  0.84837  0.82247  0.29259  1.0000
  C   C3239     1.0  0.84180  0.79747  0.30534  1.0000
  H   H5149     1.0  0.84020  0.80801  0.27519  1.0000
  H   H5150     1.0  0.82571  0.82566  0.27761  1.0000
  H   H5151     1.0  0.82100  0.80697  0.28705  1.0000
  H   H5152     1.0  0.82587  0.82084  0.31932  1.0000
  H   H5153     1.0  0.81828  0.83386  0.30322  1.0000
  H   H5154     1.0  0.81241  0.81558  0.31162  1.0000
  H   H5155     1.0  0.84418  0.83486  0.28688  1.0000
  H   H5156     1.0  0.85862  0.81715  0.28432  1.0000
  H   H5157     1.0  0.85260  0.82277  0.30276  1.0000
  H   H5158     1.0  0.85196  0.79141  0.29756  1.0000
  H   H5159     1.0  0.83263  0.79047  0.30908  1.0000
  H   H5160     1.0  0.84574  0.79709  0.31595  1.0000
  C   C3240     1.0  0.93452  0.58229  0.28871  1.0000
  H   H5161     1.0  0.64894  0.86580  0.21993  1.0000
  H   H5162     1.0  0.84825  0.50394  0.29490  1.0000
  H   H5163     1.0  0.63230  0.88683  0.25949  1.0000
  H   H5164     1.0  0.77476  0.55177  0.31032  1.0000
  C   C3241     1.0  0.77445  0.52524  0.34761  1.0000
  S   S1318     1.0  0.77734  0.59549  0.35146  1.0000
  H   H5165     1.0  0.81991  0.97784  0.29911  1.0000
  H   H5166     1.0  0.49260  0.94809  0.31348  1.0000
  C   C3242     1.0  0.78480  0.68060  0.18226  1.0000
  H   H5167     1.0  0.68095  0.86746  0.36736  1.0000
  H   H5168     1.0  0.66402  0.67217  0.17728  1.0000
  H   H5169     1.0  0.92676  0.59147  0.29493  1.0000
  H   H5170     1.0  0.56312  0.83846  0.31240  1.0000
  H   H5171     1.0  0.77572  0.56696  0.29297  1.0000
  N   N323      1.0  0.57224  0.85887  0.30835  1.0000
  S   S1319     1.0  0.86185  0.80176  0.36842  1.0000
  N   N324      1.0  0.83490  0.61107  0.25922  1.0000
  C   C3243     1.0  0.82397  0.60684  0.25262  1.0000
  C   C3244     1.0  0.83145  0.62819  0.25734  1.0000
  C   C3245     1.0  0.85110  0.60575  0.25086  1.0000
  C   C3246     1.0  0.83325  0.60342  0.27593  1.0000
  H   H5172     1.0  0.81155  0.61130  0.25800  1.0000
  H   H5173     1.0  0.82590  0.59395  0.25434  1.0000
  H   H5174     1.0  0.82551  0.61179  0.23985  1.0000
  H   H5175     1.0  0.83935  0.63174  0.26239  1.0000
  H   H5176     1.0  0.83290  0.63421  0.24481  1.0000
  H   H5177     1.0  0.81916  0.63270  0.26315  1.0000
  H   H5178     1.0  0.85978  0.60865  0.25547  1.0000
  H   H5179     1.0  0.85281  0.61098  0.23814  1.0000
  H   H5180     1.0  0.85395  0.59290  0.25215  1.0000
  H   H5181     1.0  0.82119  0.60710  0.28269  1.0000
  H   H5182     1.0  0.84146  0.60624  0.28123  1.0000
  H   H5183     1.0  0.83588  0.59048  0.27770  1.0000
  N   N325      1.0  0.55375  0.80562  0.25272  1.0000
  C   C3247     1.0  0.55657  0.79441  0.24276  1.0000
  C   C3248     1.0  0.56318  0.79870  0.26475  1.0000
  C   C3249     1.0  0.53694  0.80916  0.26028  1.0000
  C   C3250     1.0  0.55835  0.82020  0.24308  1.0000
  H   H5184     1.0  0.55261  0.78351  0.24950  1.0000
  H   H5185     1.0  0.56926  0.79091  0.23753  1.0000
  H   H5186     1.0  0.55040  0.79946  0.23295  1.0000
  H   H5187     1.0  0.56015  0.78758  0.27214  1.0000
  H   H5188     1.0  0.57596  0.79606  0.25935  1.0000
  H   H5189     1.0  0.56131  0.80677  0.27254  1.0000
  H   H5190     1.0  0.53302  0.79845  0.26772  1.0000
  H   H5191     1.0  0.52955  0.81440  0.25148  1.0000
  H   H5192     1.0  0.53443  0.81764  0.26785  1.0000
  H   H5193     1.0  0.57118  0.81815  0.23816  1.0000
  H   H5194     1.0  0.55543  0.82931  0.24998  1.0000
  H   H5195     1.0  0.55235  0.82521  0.23317  1.0000
  H   H5196     1.0  0.58557  0.87556  0.30667  1.0000
  H   H5197     1.0  0.75332  0.81137  0.35761  1.0000
  C   C3251     1.0  0.63558  0.87586  0.25517  1.0000
  H   H5198     1.0  0.95499  0.61696  0.18542  1.0000
  H   H5199     1.0  0.95697  0.80658  0.34528  1.0000
  H   H5200     1.0  0.73807  0.78240  0.34782  1.0000
  H   H5201     1.0  0.56016  0.86203  0.29027  1.0000
  C   C3252     1.0  0.49772  0.92155  0.29609  1.0000
  H   H5202     1.0  0.58781  0.85865  0.32231  1.0000
  C   C3253     1.0  0.98892  0.52460  0.23122  1.0000
  H   H5203     1.0  0.75622  0.59254  0.29291  1.0000
  C   C3254     1.0  0.57374  0.84176  0.31304  1.0000
  H   H5204     1.0  0.81830  0.94414  0.33341  1.0000
  H   H5205     1.0  0.79508  0.89204  0.35961  1.0000
  C   C3255     1.0  0.62951  0.89039  0.23038  1.0000
  C   C3256     1.0  0.92210  0.49262  0.26430  1.0000
  H   H5206     1.0  0.62848  0.89458  0.36139  1.0000
  C   C3257     1.0  0.71406  0.65148  0.18481  1.0000
  C   C3258     1.0  0.84161  0.49841  0.30631  1.0000
  H   H5207     1.0  0.96060  0.80446  0.31833  1.0000
  N   N326      1.0  0.97206  0.81804  0.32551  1.0000
  C   C3259     1.0  0.83582  0.66787  0.19106  1.0000
  H   H5208     1.0  0.73761  0.80134  0.32242  1.0000
  C   C3260     1.0  0.80897  0.70291  0.36142  1.0000
  H   H5209     1.0  0.83186  0.58533  0.37162  1.0000
  H   H5210     1.0  0.85227  0.57936  0.37161  1.0000
  H   H5211     1.0  0.97149  0.59424  0.34890  1.0000
  H   H5212     1.0  0.68778  0.76940  0.36826  1.0000
  H   H5213     1.0  0.75264  0.82516  0.33930  1.0000
  H   H5214     1.0  0.64461  0.86764  0.26136  1.0000
  C   C3261     1.0  0.90695  0.85585  0.34899  1.0000
  C   C3262     1.0  0.81770  0.69017  0.37026  1.0000
  N   N327      1.0  0.53131  0.93848  0.22451  1.0000
  C   C3263     1.0  0.53293  0.95483  0.21802  1.0000
  C   C3264     1.0  0.51635  0.93813  0.23608  1.0000
  C   C3265     1.0  0.54443  0.92965  0.23216  1.0000
  H   H5215     1.0  0.54409  0.95550  0.20917  1.0000
  H   H5216     1.0  0.53281  0.96060  0.22729  1.0000
  H   H5217     1.0  0.52325  0.96185  0.21214  1.0000
  H   H5218     1.0  0.56869  0.90723  0.21143  1.0000
  H   H5219     1.0  0.51549  0.94397  0.24555  1.0000
  H   H5220     1.0  0.50621  0.94419  0.23056  1.0000
  H   H5221     1.0  0.54423  0.93452  0.24212  1.0000
  H   H5222     1.0  0.55593  0.93019  0.22391  1.0000
  H   H5223     1.0  0.54394  0.91712  0.23670  1.0000
  H   H5224     1.0  0.98557  0.60353  0.20831  1.0000
  H   H5225     1.0  0.53669  0.69788  0.18777  1.0000
  C   C3266     1.0  0.97754  0.59139  0.18008  1.0000
  C   C3267     1.0  0.64970  0.85742  0.36985  1.0000
  S   S1320     1.0  0.56331  0.74943  0.18377  1.0000
  H   H5226     1.0  0.75053  0.59487  0.18070  1.0000
  C   C3268     1.0  0.68024  0.68638  0.19804  1.0000
  H   H5227     1.0  0.73603  0.61184  0.18521  1.0000
  H   H5228     1.0  0.92979  0.48519  0.23618  1.0000
  H   H5229     1.0  0.70174  0.90038  0.35532  1.0000
  H   H5230     1.0  0.91020  0.68623  0.18090  1.0000
  H   H5231     1.0  0.72839  0.90440  0.37502  1.0000
  H   H5232     1.0  0.70225  0.88583  0.37310  1.0000
  H   H5233     1.0  0.77946  0.87217  0.36369  1.0000
  C   C3269     1.0  0.49587  0.94107  0.35102  1.0000
  H   H5234     1.0  0.93207  0.48455  0.26921  1.0000
  C   C3270     1.0  0.78756  0.65293  0.19303  1.0000
  H   H5235     1.0  0.98069  0.58559  0.20926  1.0000
  H   H5236     1.0  0.79130  0.68166  0.19043  1.0000
  C   C3271     1.0  0.67620  0.87671  0.37424  1.0000
  H   H5237     1.0  0.67988  0.66245  0.18689  1.0000
  C   C3272     1.0  0.49346  0.95094  0.32421  1.0000
  H   H5238     1.0  0.78825  0.48915  0.27144  1.0000
  H   H5239     1.0  0.81291  0.61513  0.37205  1.0000
  C   C3273     1.0  0.79650  0.88731  0.37182  1.0000
  H   H5240     1.0  0.84341  0.48469  0.28336  1.0000
  N   N328      1.0  0.49521  0.93680  0.33682  1.0000
  H   H5241     1.0  0.60171  0.82941  0.37499  1.0000
  H   H5242     1.0  0.94581  0.48586  0.19294  1.0000
  H   H5243     1.0  0.82951  0.75311  0.37330  1.0000
  C   C3274     1.0  0.78120  0.86827  0.37586  1.0000
  H   H5244     1.0  0.94696  0.48426  0.24258  1.0000
  H   H5245     1.0  0.66008  0.90573  0.37697  1.0000
  C   C3275     1.0  0.98583  0.61506  0.17745  1.0000
  C   C3276     1.0  0.83632  0.74111  0.37713  1.0000
  H   H5246     1.0  0.62101  0.82821  0.37724  1.0000
  H   H5247     1.0  0.78429  0.69324  0.38424  1.0000
  H   H5248     1.0  0.94188  0.73270  0.43341  1.0000
  H   H5249     1.0  0.96894  0.75493  0.43599  1.0000
  N   N329      1.0  0.84099  0.73942  0.39183  1.0000
  H   H5250     1.0  0.95570  0.75388  0.42517  1.0000
  C   C3277     1.0  0.80444  0.71769  0.38116  1.0000
  H   H5251     1.0  0.77116  0.87505  0.38320  1.0000
  Fe  Fe664     1.0  0.96927  0.78734  0.46156  1.0000
  H   H5252     1.0  0.70772  0.98224  0.44056  1.0000
  C   C3278     1.0  0.81924  0.69096  0.38480  1.0000
  H   H5253     1.0  0.83943  0.77401  0.56836  1.0000
  H   H5254     1.0  0.94056  0.73530  0.46684  1.0000
  Fe  Fe665     1.0  0.82627  0.64677  0.42554  1.0000
  S   S1321     1.0  0.80406  0.66448  0.43151  1.0000
  S   S1322     1.0  0.83119  0.62972  0.41003  1.0000
  Fe  Fe666     1.0  0.84476  0.65920  0.44073  1.0000
  S   S1323     1.0  0.82447  0.67832  0.44719  1.0000
  S   S1324     1.0  0.86610  0.65785  0.44921  1.0000
  Fe  Fe667     1.0  0.81043  0.65998  0.45474  1.0000
  S   S1325     1.0  0.79502  0.65723  0.47899  1.0000
  Fe  Fe668     1.0  0.81999  0.68134  0.42362  1.0000
  S   S1326     1.0  0.81302  0.70533  0.40910  1.0000
  S   S1327     1.0  0.83113  0.64043  0.44956  1.0000
  S   S1328     1.0  0.84184  0.66405  0.41623  1.0000
  Fe  Fe669     1.0  0.81670  0.68692  0.53634  1.0000
  S   S1329     1.0  0.84047  0.67278  0.52843  1.0000
  S   S1330     1.0  0.80550  0.70098  0.51635  1.0000
  Fe  Fe670     1.0  0.84783  0.68175  0.54489  1.0000
  S   S1331     1.0  0.87015  0.69008  0.53683  1.0000
  C   C3279     1.0  0.96438  0.84815  0.54170  1.0000
  S   S1332     1.0  0.82467  0.69781  0.55111  1.0000
  Fe  Fe671     1.0  0.88192  0.73669  0.42921  1.0000
  S   S1333     1.0  0.86429  0.73634  0.45189  1.0000
  S   S1334     1.0  0.88240  0.72266  0.41255  1.0000
  Fe  Fe672     1.0  0.89702  0.75990  0.43422  1.0000
  S   S1335     1.0  0.88087  0.76159  0.45739  1.0000
  S   S1336     1.0  0.91628  0.77296  0.42251  1.0000
  Fe  Fe673     1.0  0.88468  0.73569  0.46127  1.0000
  S   S1337     1.0  0.88730  0.72089  0.48461  1.0000
  S   S1338     1.0  0.90265  0.73372  0.43918  1.0000
  Fe  Fe674     1.0  0.87404  0.78171  0.55487  1.0000
  H   H5255     1.0  0.89757  0.78498  0.39915  1.0000
  H   H5256     1.0  0.93985  0.83941  0.45313  1.0000
  Fe  Fe675     1.0  0.90164  0.76122  0.53789  1.0000
  S   S1339     1.0  0.90856  0.74584  0.55973  1.0000
  S   S1340     1.0  0.91589  0.75812  0.51424  1.0000
  S   S1341     1.0  0.95882  0.84419  0.38032  1.0000
  H   H5257     1.0  0.84216  0.71466  0.39814  1.0000
  C   C3280     1.0  0.86740  0.81580  0.56691  1.0000
  H   H5258     1.0  0.94973  0.75170  0.46040  1.0000
  S   S1342     1.0  0.87621  0.76046  0.54611  1.0000
  S   S1343     1.0  0.89899  0.78365  0.54490  1.0000
  Fe  Fe676     1.0  0.86202  0.76216  0.44591  1.0000
  H   H5259     1.0  0.76686  0.66344  0.37923  1.0000
  Fe  Fe677     1.0  0.58992  0.89387  0.53694  1.0000
  S   S1344     1.0  0.57445  0.91784  0.53420  1.0000
  S   S1345     1.0  0.60193  0.88192  0.51688  1.0000
  Fe  Fe678     1.0  0.59078  0.92367  0.54490  1.0000
  S   S1346     1.0  0.60076  0.94499  0.53462  1.0000
  S   S1347     1.0  0.60731  0.90041  0.54569  1.0000
  C   C3281     1.0  0.60933  0.82562  0.38357  1.0000
  Fe  Fe679     1.0  0.56658  0.87636  0.41640  1.0000
  S   S1348     1.0  0.58086  0.86017  0.43335  1.0000
  S   S1349     1.0  0.55706  0.86393  0.40395  1.0000
  Fe  Fe680     1.0  0.57617  0.90463  0.41952  1.0000
  S   S1350     1.0  0.59162  0.89052  0.43603  1.0000
  S   S1351     1.0  0.57224  0.93078  0.41348  1.0000
  Fe  Fe681     1.0  0.59932  0.87374  0.42015  1.0000
  S   S1352     1.0  0.62386  0.85991  0.41321  1.0000
  Fe  Fe682     1.0  0.57174  0.87849  0.44763  1.0000
  S   S1353     1.0  0.56176  0.87492  0.47363  1.0000
  S   S1354     1.0  0.58560  0.88899  0.40247  1.0000
  S   S1355     1.0  0.55563  0.89357  0.43192  1.0000
  C   C3282     1.0  0.68109  0.97127  0.47842  1.0000
  S   S1356     1.0  0.96598  0.86649  0.40843  1.0000
  S   S1357     1.0  0.64651  0.95839  0.41736  1.0000
  H   H5260     1.0  0.71180  0.97872  0.48602  1.0000
  Fe  Fe683     1.0  0.83355  0.65427  0.54910  1.0000
  H   H5261     1.0  0.68681  0.98009  0.47019  1.0000
  C   C3283     1.0  0.82680  0.63489  0.50829  1.0000
  C   C3284     1.0  0.74718  0.96017  0.55992  1.0000
  H   H5262     1.0  0.98825  0.57505  0.39058  1.0000
  S   S1358     1.0  0.68696  0.95758  0.53626  1.0000
  Fe  Fe684     1.0  0.63398  0.95023  0.44184  1.0000
  S   S1359     1.0  0.65124  0.92747  0.44590  1.0000
  S   S1360     1.0  0.60799  0.95291  0.45028  1.0000
  S   S1361     1.0  0.67886  0.94785  0.43115  1.0000
  Fe  Fe685     1.0  0.66326  0.94076  0.45442  1.0000
  S   S1362     1.0  0.66933  0.93189  0.47786  1.0000
  S   S1363     1.0  0.64502  0.96294  0.45199  1.0000
  H   H5263     1.0  0.87857  0.79038  0.39460  1.0000
  S   S1364     1.0  0.67935  0.96853  0.56923  1.0000
  C   C3285     1.0  0.67892  0.95904  0.47333  1.0000
  C   C3286     1.0  0.67224  0.94716  0.48409  1.0000
  C   C3287     1.0  0.66759  0.94765  0.49990  1.0000
  C   C3288     1.0  0.66929  0.96015  0.50488  1.0000
  C   C3289     1.0  0.60036  0.85069  0.39060  1.0000
  H   H5264     1.0  0.68273  0.95859  0.46114  1.0000
  H   H5265     1.0  0.66234  0.93854  0.50826  1.0000
  H   H5266     1.0  0.66518  0.96073  0.51699  1.0000
  C   C3290     1.0  0.84937  0.72316  0.39683  1.0000
  H   H5267     1.0  0.94784  0.83597  0.57014  1.0000
  C   C3291     1.0  0.58354  0.93776  0.42164  1.0000
  C   C3292     1.0  0.57714  0.95176  0.42672  1.0000
  C   C3293     1.0  0.58496  0.95656  0.43513  1.0000
  C   C3294     1.0  0.59944  0.94764  0.43809  1.0000
  C   C3295     1.0  0.60634  0.93410  0.43224  1.0000
  C   C3296     1.0  0.59830  0.92907  0.42414  1.0000
  H   H5268     1.0  0.56585  0.95862  0.42463  1.0000
  C   C3297     1.0  0.85141  0.75012  0.38938  1.0000
  H   H5269     1.0  0.61760  0.92721  0.43440  1.0000
  H   H5270     1.0  0.60352  0.91848  0.41984  1.0000
  C   C3298     1.0  0.61559  0.94379  0.54392  1.0000
  C   C3299     1.0  0.61734  0.93261  0.55765  1.0000
  H   H5271     1.0  0.94661  0.82008  0.42055  1.0000
  C   C3300     1.0  0.76807  0.67409  0.38205  1.0000
  C   C3301     1.0  0.63773  0.95300  0.54489  1.0000
  C   C3302     1.0  0.62585  0.95393  0.53748  1.0000
  H   H5272     1.0  0.83145  0.62424  0.38088  1.0000
  H   H5273     1.0  0.95602  0.78988  0.43583  1.0000
  H   H5274     1.0  0.64561  0.96079  0.53983  1.0000
  H   H5275     1.0  0.62464  0.96249  0.52678  1.0000
  C   C3303     1.0  0.59058  0.88012  0.50498  1.0000
  C   C3304     1.0  0.59795  0.87736  0.49005  1.0000
  C   C3305     1.0  0.58925  0.87565  0.48038  1.0000
  C   C3306     1.0  0.57317  0.87637  0.48571  1.0000
  C   C3307     1.0  0.56585  0.87889  0.50074  1.0000
  C   C3308     1.0  0.57447  0.88103  0.51027  1.0000
  H   H5276     1.0  0.61043  0.87654  0.48593  1.0000
  H   H5277     1.0  0.59505  0.87354  0.46888  1.0000
  H   H5278     1.0  0.55342  0.87934  0.50498  1.0000
  H   H5279     1.0  0.56871  0.88301  0.52182  1.0000
  H   H5280     1.0  0.72861  0.96982  0.49461  1.0000
  C   C3309     1.0  0.82100  0.57830  0.40235  1.0000
  H   H5281     1.0  0.86050  0.72010  0.38830  1.0000
  Fe  Fe686     1.0  0.88289  0.74716  0.56873  1.0000
  H   H5282     1.0  0.57870  0.83377  0.39699  1.0000
  H   H5283     1.0  0.98019  0.71900  0.44545  1.0000
  H   H5284     1.0  0.96858  0.82871  0.56850  1.0000
  H   H5285     1.0  0.92720  0.84329  0.41038  1.0000
  H   H5286     1.0  0.87967  0.66551  0.52129  1.0000
  H   H5287     1.0  0.85114  0.69305  0.56741  1.0000
  C   C3310     1.0  0.92307  0.78012  0.43469  1.0000
  C   C3311     1.0  0.93546  0.78965  0.45445  1.0000
  C   C3312     1.0  0.92026  0.78702  0.45924  1.0000
  C   C3313     1.0  0.91415  0.78203  0.44945  1.0000
  H   H5288     1.0  0.91335  0.78844  0.47069  1.0000
  H   H5289     1.0  0.90255  0.77972  0.45337  1.0000
  C   C3314     1.0  0.89567  0.73079  0.49288  1.0000
  C   C3315     1.0  0.89186  0.72948  0.50899  1.0000
  C   C3316     1.0  0.89805  0.73786  0.51563  1.0000
  C   C3317     1.0  0.90815  0.74748  0.50614  1.0000
  C   C3318     1.0  0.91210  0.74866  0.49001  1.0000
  C   C3319     1.0  0.90577  0.74041  0.48336  1.0000
  H   H5290     1.0  0.88388  0.72223  0.51629  1.0000
  H   H5291     1.0  0.89510  0.73679  0.52809  1.0000
  H   H5292     1.0  0.91978  0.75623  0.48266  1.0000
  H   H5293     1.0  0.90869  0.74151  0.47088  1.0000
  C   C3320     1.0  0.87197  0.69865  0.55094  1.0000
  C   C3321     1.0  0.88445  0.70589  0.54797  1.0000
  C   C3322     1.0  0.88510  0.71421  0.55841  1.0000
  S   S1365     1.0  0.57758  0.91748  0.56948  1.0000
  H   H5294     1.0  0.61492  0.81563  0.41247  1.0000
  S   S1366     1.0  0.74891  0.90339  0.39406  1.0000
  H   H5295     1.0  0.89348  0.70531  0.53746  1.0000
  H   H5296     1.0  0.89448  0.72026  0.55577  1.0000
  C   C3323     1.0  0.64385  0.85395  0.38602  1.0000
  Fe  Fe687     1.0  0.59286  0.89357  0.56957  1.0000
  H   H5297     1.0  0.89521  0.65138  0.51280  1.0000
  H   H5298     1.0  0.82553  0.68088  0.39176  1.0000
  C   C3324     1.0  0.87255  0.67496  0.43883  1.0000
  C   C3325     1.0  0.87331  0.67977  0.42281  1.0000
  C   C3326     1.0  0.87715  0.69410  0.41464  1.0000
  C   C3327     1.0  0.87976  0.70387  0.42256  1.0000
  C   C3328     1.0  0.87944  0.69886  0.43854  1.0000
  C   C3329     1.0  0.87589  0.68437  0.44667  1.0000
  H   H5299     1.0  0.87095  0.67244  0.41667  1.0000
  H   H5300     1.0  0.87775  0.69773  0.40224  1.0000
  H   H5301     1.0  0.88172  0.70624  0.44466  1.0000
  H   H5302     1.0  0.87505  0.68077  0.45909  1.0000
  C   C3330     1.0  0.79601  0.67022  0.48965  1.0000
  C   C3331     1.0  0.79517  0.66521  0.50573  1.0000
  C   C3332     1.0  0.79816  0.67454  0.51400  1.0000
  C   C3333     1.0  0.80127  0.68926  0.50635  1.0000
  C   C3334     1.0  0.80126  0.69463  0.49046  1.0000
  C   C3335     1.0  0.79878  0.68508  0.48211  1.0000
  H   H5303     1.0  0.79260  0.65392  0.51174  1.0000
  H   H5304     1.0  0.79784  0.67043  0.52633  1.0000
  H   H5305     1.0  0.80339  0.70610  0.48451  1.0000
  H   H5306     1.0  0.79876  0.68935  0.46987  1.0000
  C   C3336     1.0  0.79570  0.61484  0.39361  1.0000
  H   H5307     1.0  0.59617  0.85698  0.40027  1.0000
  C   C3337     1.0  0.82033  0.62264  0.38859  1.0000
  C   C3338     1.0  0.81664  0.62559  0.40356  1.0000
  C   C3339     1.0  0.80220  0.62366  0.41341  1.0000
  C   C3340     1.0  0.79178  0.61823  0.40845  1.0000
  H   H5308     1.0  0.79824  0.85203  0.39714  1.0000
  C   C3341     1.0  0.86165  0.70671  0.57563  1.0000
  H   H5309     1.0  0.79938  0.62568  0.42508  1.0000
  H   H5310     1.0  0.78085  0.61622  0.41630  1.0000
  C   C3342     1.0  0.87493  0.82144  0.39085  1.0000
  H   H5311     1.0  0.93549  0.75067  0.45082  1.0000
  H   H5312     1.0  0.51267  0.90651  0.39076  1.0000
  C   C3343     1.0  0.87423  0.68494  0.49428  1.0000
  S   S1367     1.0  0.80897  0.66772  0.55604  1.0000
  H   H5313     1.0  0.90627  0.81634  0.38518  1.0000
  H   H5314     1.0  0.64267  0.91858  0.50528  1.0000
  H   H5315     1.0  0.57970  0.96715  0.43947  1.0000
  C   C3344     1.0  0.63214  0.86496  0.39325  1.0000
  C   C3345     1.0  0.54126  0.87334  0.39467  1.0000
  H   H5316     1.0  0.68743  0.97480  0.43269  1.0000
  C   C3346     1.0  0.94541  0.74359  0.45634  1.0000
  H   H5317     1.0  0.91821  0.85840  0.42125  1.0000
  H   H5318     1.0  0.53529  0.89426  0.40347  1.0000
  H   H5319     1.0  0.60341  0.91433  0.50478  1.0000
  S   S1368     1.0  0.97896  0.76169  0.46451  1.0000
  C   C3347     1.0  0.81238  0.70463  0.39038  1.0000
  H   H5320     1.0  0.97559  0.73238  0.45796  1.0000
  H   H5321     1.0  0.87678  0.69420  0.48367  1.0000
  H   H5322     1.0  0.62486  0.92438  0.51877  1.0000
  S   S1369     1.0  0.98530  0.79356  0.43847  1.0000
  H   H5323     1.0  0.61153  0.85395  0.38358  1.0000
  S   S1370     1.0  0.87775  0.76277  0.42218  1.0000
  H   H5324     1.0  0.82239  0.64303  0.51642  1.0000
  H   H5325     1.0  0.61854  0.94937  0.50006  1.0000
  C   C3348     1.0  0.88467  0.66065  0.51063  1.0000
  Fe  Fe688     1.0  0.66655  0.96058  0.55632  1.0000
  H   H5326     1.0  0.95016  0.75523  0.54272  1.0000
  H   H5327     1.0  0.82997  0.74190  0.41531  1.0000
  Fe  Fe689     1.0  0.65934  0.96895  0.42791  1.0000
  H   H5328     1.0  0.61832  0.94934  0.48046  1.0000
  S   S1371     1.0  0.83916  0.77865  0.45200  1.0000
  C   C3349     1.0  0.70293  0.91374  0.41440  1.0000
  H   H5329     1.0  0.93885  0.77481  0.54257  1.0000
  C   C3350     1.0  0.93799  0.78343  0.42967  1.0000
  S   S1372     1.0  0.67571  0.92289  0.40365  1.0000
  H   H5330     1.0  0.93341  0.78144  0.50932  1.0000
  Fe  Fe690     1.0  0.69876  0.96797  0.54796  1.0000
  C   C3351     1.0  0.98210  0.85524  0.43171  1.0000
  H   H5331     1.0  0.93841  0.85607  0.41150  1.0000
  S   S1373     1.0  0.78305  0.60680  0.38818  1.0000
  C   C3352     1.0  0.82687  0.74325  0.40400  1.0000
  H   H5332     1.0  0.91926  0.82275  0.43432  1.0000
  H   H5333     1.0  0.87586  0.65502  0.50941  1.0000
  H   H5334     1.0  0.97469  0.74094  0.42399  1.0000
  H   H5335     1.0  0.90630  0.65693  0.48428  1.0000
  H   H5336     1.0  0.94605  0.86970  0.56912  1.0000
  H   H5337     1.0  0.95910  0.72790  0.57319  1.0000
  C   C3353     1.0  0.68350  0.95993  0.38500  1.0000
  H   H5338     1.0  0.90845  0.80454  0.40402  1.0000
  N   N330      1.0  0.55714  0.92444  0.46953  1.0000
  C   C3354     1.0  0.57323  0.91517  0.46547  1.0000
  C   C3355     1.0  0.54832  0.91571  0.48380  1.0000
  C   C3356     1.0  0.54923  0.92741  0.45658  1.0000
  C   C3357     1.0  0.55780  0.93942  0.47225  1.0000
  H   H5339     1.0  0.57315  0.90410  0.46272  1.0000
  H   H5340     1.0  0.57942  0.91205  0.47518  1.0000
  H   H5341     1.0  0.58036  0.92160  0.45503  1.0000
  H   H5342     1.0  0.53625  0.92253  0.48745  1.0000
  H   H5343     1.0  0.54721  0.90456  0.48196  1.0000
  H   H5344     1.0  0.55425  0.91271  0.49369  1.0000
  H   H5345     1.0  0.53703  0.93434  0.45917  1.0000
  H   H5346     1.0  0.54874  0.91628  0.45417  1.0000
  H   H5347     1.0  0.55557  0.93393  0.44559  1.0000
  H   H5348     1.0  0.54587  0.94678  0.47530  1.0000
  H   H5349     1.0  0.56439  0.94627  0.46170  1.0000
  H   H5350     1.0  0.56380  0.93751  0.48189  1.0000
  H   H5351     1.0  0.97584  0.86580  0.43580  1.0000
  H   H5352     1.0  0.65216  0.89689  0.56593  1.0000
  C   C3358     1.0  0.67599  0.97201  0.49416  1.0000
  C   C3359     1.0  0.51571  0.88731  0.38005  1.0000
  Fe  Fe691     1.0  0.90343  0.76819  0.56768  1.0000
  C   C3360     1.0  0.79839  0.86467  0.39299  1.0000
  C   C3361     1.0  0.82850  0.60406  0.55688  1.0000
  H   H5353     1.0  0.80433  0.66015  0.39006  1.0000
  C   C3362     1.0  0.70503  0.91149  0.38814  1.0000
  N   N331      1.0  0.62494  0.84792  0.55971  1.0000
  H   H5354     1.0  0.97830  0.86767  0.54800  1.0000
  C   C3363     1.0  0.84054  0.58365  0.37872  1.0000
  H   H5355     1.0  0.59923  0.93224  0.49073  1.0000
  H   H5356     1.0  0.98541  0.83694  0.40289  1.0000
  C   C3364     1.0  0.70978  0.95085  0.38938  1.0000
  H   H5357     1.0  0.63853  0.85630  0.57021  1.0000
  H   H5358     1.0  0.64216  0.91791  0.47903  1.0000
  H   H5359     1.0  0.72484  0.90847  0.42157  1.0000
  H   H5360     1.0  0.60817  0.83432  0.41771  1.0000
  H   H5361     1.0  0.67860  0.95583  0.39757  1.0000
  H   H5362     1.0  0.58152  0.83594  0.41473  1.0000
  H   H5363     1.0  0.64197  0.86223  0.54929  1.0000
  H   H5364     1.0  0.86513  0.67981  0.49283  1.0000
  C   C3365     1.0  0.92912  0.84955  0.41829  1.0000
  H   H5365     1.0  0.85015  0.55257  0.38415  1.0000
  C   C3366     1.0  0.97957  0.85276  0.41829  1.0000
  H   H5366     1.0  0.59936  0.93277  0.51011  1.0000
  C   C3367     1.0  0.71930  0.90910  0.41232  1.0000
  N   N332      1.0  0.96185  0.85263  0.55668  1.0000
  S   S1374     1.0  0.57669  0.88476  0.56108  1.0000
  C   C3368     1.0  0.85686  0.81796  0.55751  1.0000
  H   H5367     1.0  0.61801  0.88834  0.38988  1.0000
  H   H5368     1.0  0.90960  0.83860  0.44412  1.0000
  C   C3369     1.0  0.84818  0.83293  0.55252  1.0000
  H   H5369     1.0  0.87418  0.80426  0.57076  1.0000
  C   C3370     1.0  0.72133  0.90687  0.38607  1.0000
  C   C3371     1.0  0.63930  0.94206  0.55880  1.0000
  C   C3372     1.0  0.86042  0.84359  0.56641  1.0000
  H   H5370     1.0  0.92555  0.85612  0.44616  1.0000
  H   H5371     1.0  0.69584  0.91634  0.42538  1.0000
  H   H5372     1.0  0.81214  0.58021  0.39533  1.0000
  H   H5373     1.0  0.96285  0.78524  0.52842  1.0000
  H   H5374     1.0  0.70561  0.94703  0.40218  1.0000
  C   C3373     1.0  0.71808  0.97957  0.49450  1.0000
  H   H5375     1.0  0.93726  0.86269  0.55805  1.0000
  H   H5376     1.0  0.86909  0.69078  0.50431  1.0000
  C   C3374     1.0  0.96458  0.74676  0.43205  1.0000
  H   H5377     1.0  0.62475  0.89676  0.56752  1.0000
  C   C3375     1.0  0.94336  0.76552  0.53572  1.0000
  S   S1375     1.0  0.83042  0.83179  0.39218  1.0000
  H   H5378     1.0  0.97379  0.76548  0.52929  1.0000
  H   H5379     1.0  0.91074  0.67154  0.50176  1.0000
  N   N333      1.0  0.88859  0.67296  0.49673  1.0000
  H   H5380     1.0  0.62404  0.92444  0.47238  1.0000
  H   H5381     1.0  0.82889  0.73281  0.37844  1.0000
  S   S1376     1.0  0.98410  0.79087  0.47548  1.0000
  H   H5382     1.0  0.79000  0.68226  0.40209  1.0000
  N   N334      1.0  0.70459  0.91337  0.56317  1.0000
  C   C3376     1.0  0.95890  0.83920  0.56964  1.0000
  H   H5383     1.0  0.62876  0.90619  0.51293  1.0000
  H   H5384     1.0  0.86215  0.74758  0.38022  1.0000
  H   H5385     1.0  0.90377  0.68920  0.48862  1.0000
  H   H5386     1.0  0.85112  0.74086  0.56394  1.0000
  H   H5387     1.0  0.87473  0.81577  0.42132  1.0000
  N   N335      1.0  0.95794  0.73529  0.44537  1.0000
  C   C3377     1.0  0.90005  0.68029  0.49912  1.0000
  C   C3378     1.0  0.92094  0.83031  0.44111  1.0000
  H   H5388     1.0  0.85531  0.74898  0.40022  1.0000
  C   C3379     1.0  0.51958  0.89510  0.38920  1.0000
  C   C3380     1.0  0.89542  0.66600  0.48288  1.0000
  H   H5389     1.0  0.86353  0.64152  0.49411  1.0000
  S   S1377     1.0  0.83927  0.63063  0.54369  1.0000
  N   N336      1.0  0.88555  0.80881  0.39947  1.0000
  C   C3381     1.0  0.98756  0.83907  0.41305  1.0000
  H   H5390     1.0  0.85665  0.62699  0.51057  1.0000
  C   C3382     1.0  0.94357  0.78454  0.51132  1.0000
  Fe  Fe692     1.0  0.56253  0.90947  0.55902  1.0000
  H   H5391     1.0  0.84450  0.77737  0.41980  1.0000
  H   H5392     1.0  0.87186  0.83236  0.39521  1.0000
  C   C3383     1.0  0.83979  0.78938  0.42085  1.0000
  S   S1378     1.0  0.94323  0.79561  0.46674  1.0000
  C   C3384     1.0  0.79504  0.66263  0.38340  1.0000
  H   H5393     1.0  0.63651  0.94353  0.48673  1.0000
  C   C3385     1.0  0.95132  0.72548  0.43962  1.0000
  C   C3386     1.0  0.83903  0.74696  0.56259  1.0000
  N   N337      1.0  0.83848  0.73290  0.50163  1.0000
  C   C3387     1.0  0.82171  0.73791  0.50869  1.0000
  C   C3388     1.0  0.84475  0.74671  0.49218  1.0000
  C   C3389     1.0  0.84022  0.72211  0.49155  1.0000
  C   C3390     1.0  0.84722  0.72481  0.51408  1.0000
  H   H5394     1.0  0.81665  0.72778  0.51603  1.0000
  H   H5395     1.0  0.81472  0.74379  0.49961  1.0000
  H   H5396     1.0  0.81989  0.74621  0.51624  1.0000
  H   H5397     1.0  0.84356  0.75517  0.49935  1.0000
  H   H5398     1.0  0.85742  0.74336  0.48679  1.0000
  H   H5399     1.0  0.83855  0.75303  0.48254  1.0000
  H   H5400     1.0  0.85274  0.71809  0.48606  1.0000
  H   H5401     1.0  0.83380  0.72785  0.48200  1.0000
  H   H5402     1.0  0.83545  0.71163  0.49829  1.0000
  H   H5403     1.0  0.84624  0.73255  0.52192  1.0000
  H   H5404     1.0  0.85991  0.72080  0.50919  1.0000
  H   H5405     1.0  0.84286  0.71428  0.52137  1.0000
  C   C3391     1.0  0.62918  0.93176  0.56509  1.0000
  C   C3392     1.0  0.95869  0.75821  0.51168  1.0000
  C   C3393     1.0  0.82890  0.80857  0.43687  1.0000
  H   H5406     1.0  0.96573  0.76204  0.49983  1.0000
  H   H5407     1.0  0.82228  0.83239  0.42461  1.0000
  H   H5408     1.0  0.96625  0.74789  0.51782  1.0000
  H   H5409     1.0  0.95057  0.78897  0.49962  1.0000
  H   H5410     1.0  0.68017  0.91289  0.57163  1.0000
  C   C3394     1.0  0.96662  0.77542  0.52230  1.0000
  H   H5411     1.0  0.95785  0.83315  0.42098  1.0000
  H   H5412     1.0  0.89497  0.68642  0.50897  1.0000
  C   C3395     1.0  0.94819  0.82720  0.42784  1.0000
  C   C3396     1.0  0.93628  0.84739  0.44244  1.0000
  H   H5413     1.0  0.94485  0.78219  0.41817  1.0000
  H   H5414     1.0  0.78341  0.65589  0.41402  1.0000
  C   C3397     1.0  0.83555  0.79311  0.43549  1.0000
  C   C3398     1.0  0.62394  0.94295  0.49047  1.0000
  C   C3399     1.0  0.97596  0.85725  0.55728  1.0000
  C   C3400     1.0  0.82705  0.82039  0.42353  1.0000
  N   N338      1.0  0.95305  0.77094  0.52026  1.0000
  C   C3401     1.0  0.69583  0.91522  0.40218  1.0000
  H   H5415     1.0  0.59156  0.85528  0.38317  1.0000
  C   C3402     1.0  0.73384  0.96754  0.55380  1.0000
  H   H5416     1.0  0.82986  0.55771  0.38385  1.0000
  H   H5417     1.0  0.94879  0.75430  0.51018  1.0000
  C   C3403     1.0  0.97043  0.72532  0.45343  1.0000
  H   H5418     1.0  0.82555  0.81145  0.44821  1.0000
  H   H5419     1.0  0.81688  0.63522  0.50323  1.0000
  C   C3404     1.0  0.90017  0.81381  0.39765  1.0000
  H   H5420     1.0  0.97452  0.77905  0.51090  1.0000
  C   C3405     1.0  0.61300  0.82844  0.40768  1.0000
  H   H5421     1.0  0.83004  0.62296  0.51548  1.0000
  H   H5422     1.0  0.62771  0.90621  0.48612  1.0000
  H   H5423     1.0  0.93307  0.76201  0.53458  1.0000
  C   C3406     1.0  0.94433  0.78779  0.43967  1.0000
  H   H5424     1.0  0.84046  0.79814  0.39639  1.0000
  C   C3407     1.0  0.62933  0.91844  0.48269  1.0000
  Fe  Fe693     1.0  0.66499  0.93666  0.42233  1.0000
  H   H5425     1.0  0.81875  0.73540  0.40606  1.0000
  H   H5426     1.0  0.84035  0.59529  0.38040  1.0000
  N   N339      1.0  0.84026  0.63920  0.49596  1.0000
  C   C3408     1.0  0.83540  0.65515  0.48684  1.0000
  H   H5427     1.0  0.94988  0.87617  0.54834  1.0000
  C   C3409     1.0  0.85306  0.63873  0.50314  1.0000
  C   C3410     1.0  0.84576  0.62805  0.48557  1.0000
  H   H5428     1.0  0.82671  0.65559  0.48021  1.0000
  N   N340      1.0  0.77967  0.67019  0.39182  1.0000
  H   H5429     1.0  0.82998  0.66373  0.49444  1.0000
  H   H5430     1.0  0.84545  0.65927  0.47815  1.0000
  H   H5431     1.0  0.68466  0.92551  0.55298  1.0000
  H   H5432     1.0  0.68494  0.95019  0.37926  1.0000
  H   H5433     1.0  0.68945  0.90472  0.55482  1.0000
  N   N341      1.0  0.69853  0.96437  0.38258  1.0000
  H   H5434     1.0  0.71200  0.92808  0.54097  1.0000
  H   H5435     1.0  0.85036  0.61605  0.49187  1.0000
  C   C3411     1.0  0.85016  0.84574  0.55674  1.0000
  H   H5436     1.0  0.82029  0.75547  0.40066  1.0000
  N   N342      1.0  0.83705  0.57258  0.39377  1.0000
  H   H5437     1.0  0.71148  0.88837  0.56625  1.0000
  C   C3412     1.0  0.84839  0.57130  0.40311  1.0000
  C   C3413     1.0  0.63660  0.83314  0.55842  1.0000
  C   C3414     1.0  0.83828  0.55710  0.39088  1.0000
  C   C3415     1.0  0.62668  0.87962  0.38434  1.0000
  H   H5438     1.0  0.61104  0.81272  0.38770  1.0000
  S   S1379     1.0  0.65358  0.94148  0.56861  1.0000
  C   C3416     1.0  0.78097  0.68465  0.39517  1.0000
  H   H5439     1.0  0.86062  0.56706  0.39695  1.0000
  C   C3417     1.0  0.61748  0.85332  0.54617  1.0000
  H   H5440     1.0  0.71144  0.94064  0.38432  1.0000
  H   H5441     1.0  0.84773  0.58284  0.40546  1.0000
  H   H5442     1.0  0.97476  0.86011  0.56868  1.0000
  H   H5443     1.0  0.96047  0.71903  0.43132  1.0000
  S   S1380     1.0  0.84331  0.66184  0.56496  1.0000
  C   C3418     1.0  0.71581  0.91625  0.54808  1.0000
  C   C3419     1.0  0.83764  0.80116  0.40756  1.0000
  H   H5444     1.0  0.82769  0.60432  0.54525  1.0000
  H   H5445     1.0  0.89851  0.67501  0.47219  1.0000
  H   H5446     1.0  0.78891  0.87109  0.40109  1.0000
  C   C3420     1.0  0.83379  0.61582  0.55957  1.0000
  H   H5447     1.0  0.94611  0.71674  0.44936  1.0000
  C   C3421     1.0  0.63016  0.89016  0.57710  1.0000
  H   H5448     1.0  0.84006  0.83465  0.54523  1.0000
  C   C3422     1.0  0.86068  0.69885  0.56489  1.0000
  H   H5449     1.0  0.84610  0.56306  0.41458  1.0000
  H   H5450     1.0  0.85520  0.63157  0.47548  1.0000
  C   C3423     1.0  0.87784  0.80534  0.41617  1.0000
  H   H5451     1.0  0.96671  0.85799  0.53163  1.0000
  H   H5452     1.0  0.94576  0.85381  0.43625  1.0000
  H   H5453     1.0  0.60852  0.86439  0.54688  1.0000
  H   H5454     1.0  0.83604  0.62744  0.48077  1.0000
  C   C3424     1.0  0.95548  0.73885  0.57694  1.0000
  H   H5455     1.0  0.64591  0.83467  0.54760  1.0000
  H   H5456     1.0  0.93884  0.79430  0.51753  1.0000
  C   C3425     1.0  0.63283  0.85987  0.56008  1.0000
  C   C3426     1.0  0.60527  0.92646  0.50055  1.0000
  C   C3427     1.0  0.82396  0.59207  0.56925  1.0000
  H   H5457     1.0  0.84008  0.75638  0.55186  1.0000
  C   C3428     1.0  0.70319  0.92531  0.57183  1.0000
  C   C3429     1.0  0.69602  0.97736  0.39027  1.0000
  S   S1381     1.0  0.72353  0.95615  0.54961  1.0000
  N   N343      1.0  0.93362  0.83861  0.43241  1.0000
  H   H5458     1.0  0.95217  0.81903  0.43824  1.0000
  S   S1382     1.0  0.85373  0.80202  0.55259  1.0000
  H   H5459     1.0  0.88707  0.66043  0.48065  1.0000
  H   H5460     1.0  0.84928  0.64722  0.51084  1.0000
  H   H5461     1.0  0.84356  0.85733  0.55268  1.0000
  H   H5462     1.0  0.98656  0.84768  0.55574  1.0000
  H   H5463     1.0  0.62465  0.83129  0.40196  1.0000
  H   H5464     1.0  0.92359  0.82262  0.45227  1.0000
  H   H5465     1.0  0.58811  0.81714  0.40972  1.0000
  H   H5466     1.0  0.88555  0.79584  0.42302  1.0000
  C   C3430     1.0  0.83162  0.81672  0.40884  1.0000
  H   H5467     1.0  0.63105  0.82385  0.55807  1.0000
  H   H5468     1.0  0.60945  0.92475  0.56268  1.0000
  H   H5469     1.0  0.98625  0.54795  0.39274  1.0000
  H   H5470     1.0  0.84548  0.76252  0.38555  1.0000
  H   H5471     1.0  0.89488  0.79687  0.38055  1.0000
  C   C3431     1.0  0.80987  0.61739  0.38358  1.0000
  H   H5472     1.0  0.69863  0.93721  0.56537  1.0000
  H   H5473     1.0  0.60359  0.85628  0.57527  1.0000
  N   N344      1.0  0.62211  0.92661  0.49563  1.0000
  C   C3432     1.0  0.62993  0.91855  0.50875  1.0000
  H   H5474     1.0  0.96593  0.71641  0.46348  1.0000
  H   H5475     1.0  0.72761  0.91566  0.54980  1.0000
  C   C3433     1.0  0.81407  0.76169  0.57398  1.0000
  H   H5476     1.0  0.64825  0.84265  0.39289  1.0000
  C   C3434     1.0  0.53239  0.88819  0.39642  1.0000
  H   H5477     1.0  0.86681  0.80146  0.41794  1.0000
  H   H5478     1.0  0.71014  0.97762  0.50623  1.0000
  H   H5479     1.0  0.69152  0.97383  0.40305  1.0000
  C   C3435     1.0  0.94819  0.86589  0.55805  1.0000
  H   H5480     1.0  0.78681  0.89427  0.37929  1.0000
  H   H5481     1.0  0.97460  0.83814  0.54030  1.0000
  H   H5482     1.0  0.83582  0.54836  0.40193  1.0000
  C   C3436     1.0  0.72851  0.90604  0.39800  1.0000
  C   C3437     1.0  0.53736  0.86556  0.38552  1.0000
  H   H5483     1.0  0.95396  0.84459  0.54087  1.0000
  H   H5484     1.0  0.54417  0.85406  0.38415  1.0000
  Fe  Fe694     1.0  0.96902  0.86168  0.38496  1.0000
  H   H5485     1.0  0.88034  0.82424  0.37817  1.0000
  H   H5486     1.0  0.62615  0.85565  0.53498  1.0000
  H   H5487     1.0  0.75630  0.67981  0.38801  1.0000
  H   H5488     1.0  0.86377  0.81807  0.39205  1.0000
  N   N345      1.0  0.60244  0.83364  0.39668  1.0000
  H   H5489     1.0  0.79917  0.72832  0.38541  1.0000
  C   C3438     1.0  0.68909  0.91417  0.56048  1.0000
  H   H5490     1.0  0.76326  0.66484  0.41350  1.0000
  C   C3439     1.0  0.58705  0.82988  0.40488  1.0000
  H   H5491     1.0  0.72149  0.95352  0.38725  1.0000
  S   S1383     1.0  0.53658  0.91779  0.56682  1.0000
  C   C3440     1.0  0.77462  0.65940  0.40662  1.0000
  H   H5492     1.0  0.79463  0.65132  0.38133  1.0000
  C   C3441     1.0  0.52470  0.87255  0.37814  1.0000
  H   H5493     1.0  0.71706  0.90755  0.54115  1.0000
  H   H5494     1.0  0.85234  0.72128  0.40829  1.0000
  H   H5495     1.0  0.81987  0.58960  0.40537  1.0000
  H   H5496     1.0  0.76970  0.69045  0.40187  1.0000
  H   H5497     1.0  0.89781  0.82456  0.40212  1.0000
  N   N346      1.0  0.82992  0.75334  0.57640  1.0000
  C   C3442     1.0  0.88929  0.79465  0.39318  1.0000
  H   H5498     1.0  0.81767  0.56989  0.41343  1.0000
  H   H5499     1.0  0.61145  0.84461  0.54539  1.0000
  Fe  Fe695     1.0  0.67682  0.98229  0.52583  1.0000
  H   H5500     1.0  0.80983  0.86593  0.39407  1.0000
  H   H5501     1.0  0.67646  0.90026  0.38600  1.0000
  H   H5502     1.0  0.81964  0.58316  0.56709  1.0000
  H   H5503     1.0  0.68050  0.87235  0.38525  1.0000
  H   H5504     1.0  0.77310  0.64855  0.40450  1.0000
  H   H5505     1.0  0.62430  0.87109  0.56115  1.0000
  H   H5506     1.0  0.63039  0.92317  0.57573  1.0000
  H   H5507     1.0  0.78051  0.85577  0.37991  1.0000
  H   H5508     1.0  0.75130  0.94763  0.56156  1.0000
  C   C3443     1.0  0.75504  0.96891  0.56427  1.0000
  H   H5509     1.0  0.93184  0.74325  0.57433  1.0000
  H   H5510     1.0  0.64243  0.82877  0.56848  1.0000
  H   H5511     1.0  0.83357  0.73834  0.56073  1.0000
  C   C3444     1.0  0.71027  0.89773  0.57236  1.0000
  S   S1384     1.0  0.86198  0.85988  0.57197  1.0000
  H   H5512     1.0  0.81455  0.77135  0.56344  1.0000
  C   C3445     1.0  0.86898  0.82858  0.57159  1.0000
  C   C3446     1.0  0.64574  0.89025  0.57623  1.0000
  C   C3447     1.0  0.87367  0.71469  0.57219  1.0000
  Fe  Fe696     1.0  0.81929  0.67722  0.57024  1.0000
  H   H5513     1.0  0.49433  0.86160  0.39031  1.0000
  H   H5514     1.0  0.76530  0.96311  0.56895  1.0000
  H   H5515     1.0  0.67456  0.96991  0.38035  1.0000
  H   H5516     1.0  0.70710  0.98114  0.38848  1.0000
  H   H5517     1.0  0.79670  0.70777  0.57659  1.0000
  H   H5518     1.0  0.71476  0.92528  0.57374  1.0000
  H   H5519     1.0  0.80754  0.75364  0.57272  1.0000
  H   H5520     1.0  0.49464  0.85227  0.41026  1.0000
  H   H5521     1.0  0.72182  0.89672  0.57490  1.0000
  H   H5522     1.0  0.66325  0.87820  0.37753  1.0000
  H   H5523     1.0  0.69969  0.91296  0.37855  1.0000
  C   C3448     1.0  0.61282  0.84543  0.57420  1.0000
  C   C3449     1.0  0.83493  0.61536  0.57466  1.0000
  H   H5524     1.0  0.60688  0.83618  0.57457  1.0000
  H   H5525     1.0  0.83937  0.62427  0.57667  1.0000
  H   H5526     1.0  0.90179  0.87570  0.64298  1.0000
  C   C3450     1.0  0.94669  0.55413  0.72723  1.0000
  S   S1385     1.0  0.97174  0.50393  0.70823  1.0000
  Fe  Fe697     1.0  0.79885  0.96180  0.60009  1.0000
  S   S1386     1.0  0.78762  0.96109  0.62537  1.0000
  H   H5527     1.0  0.61680  0.92751  0.63719  1.0000
  Fe  Fe698     1.0  0.76634  0.95864  0.61914  1.0000
  S   S1387     1.0  0.75063  0.94247  0.63456  1.0000
  H   H5528     1.0  0.53428  0.97936  0.72472  1.0000
  S   S1388     1.0  0.77841  0.95706  0.59460  1.0000
  H   H5529     1.0  0.92133  0.78709  0.60843  1.0000
  Fe  Fe699     1.0  0.70506  0.89162  0.61701  1.0000
  S   S1389     1.0  0.69774  0.88198  0.64267  1.0000
  S   S1390     1.0  0.72323  0.90552  0.60306  1.0000
  Fe  Fe700     1.0  0.68065  0.88013  0.60882  1.0000
  S   S1391     1.0  0.67106  0.86935  0.63360  1.0000
  C   C3451     1.0  0.80470  0.50035  0.65504  1.0000
  Fe  Fe701     1.0  0.67312  0.89102  0.63906  1.0000
  S   S1392     1.0  0.65439  0.90508  0.65478  1.0000
  Fe  Fe702     1.0  0.69635  0.86095  0.63536  1.0000
  S   S1393     1.0  0.70434  0.83647  0.64849  1.0000
  S   S1394     1.0  0.68058  0.90262  0.61407  1.0000
  S   S1395     1.0  0.70579  0.86972  0.60999  1.0000
  Fe  Fe703     1.0  0.58114  0.90804  0.74388  1.0000
  S   S1396     1.0  0.59240  0.88313  0.75284  1.0000
  H   H5530     1.0  0.87968  0.65438  0.75101  1.0000
  Fe  Fe704     1.0  0.56237  0.89929  0.72580  1.0000
  S   S1397     1.0  0.57172  0.87362  0.73348  1.0000
  S   S1398     1.0  0.54461  0.91172  0.71102  1.0000
  Fe  Fe705     1.0  0.56840  0.87866  0.75697  1.0000
  Fe  Fe706     1.0  0.59489  0.88041  0.72845  1.0000
  S   S1399     1.0  0.61611  0.86660  0.71463  1.0000
  S   S1400     1.0  0.55698  0.90379  0.74967  1.0000
  S   S1401     1.0  0.58567  0.90580  0.71913  1.0000
  Fe  Fe707     1.0  0.77676  0.65613  0.75169  1.0000
  N   N347      1.0  0.71076  0.97581  0.60349  1.0000
  Fe  Fe708     1.0  0.80336  0.65570  0.72323  1.0000
  S   S1402     1.0  0.81415  0.63059  0.73169  1.0000
  S   S1403     1.0  0.81333  0.66693  0.69854  1.0000
  Fe  Fe709     1.0  0.78977  0.62696  0.73827  1.0000
  S   S1404     1.0  0.78782  0.60466  0.73386  1.0000
  Fe  Fe710     1.0  0.80892  0.63630  0.75506  1.0000
  S   S1405     1.0  0.82226  0.94807  0.58987  1.0000
  S   S1406     1.0  0.77912  0.65168  0.72811  1.0000
  S   S1407     1.0  0.80043  0.66205  0.74608  1.0000
  Fe  Fe711     1.0  0.78795  0.78514  0.63632  1.0000
  S   S1408     1.0  0.80234  0.77755  0.61453  1.0000
  S   S1409     1.0  0.77788  0.81110  0.63290  1.0000
  Fe  Fe712     1.0  0.79851  0.75308  0.65611  1.0000
  S   S1410     1.0  0.81418  0.74311  0.63571  1.0000
  S   S1411     1.0  0.79595  0.74064  0.68141  1.0000
  Fe  Fe713     1.0  0.82125  0.76621  0.62774  1.0000
  S   S1412     1.0  0.84481  0.77070  0.61393  1.0000
  Fe  Fe714     1.0  0.79387  0.75533  0.62425  1.0000
  S   S1413     1.0  0.78665  0.74768  0.60636  1.0000
  S   S1414     1.0  0.80753  0.77515  0.64901  1.0000
  S   S1415     1.0  0.77756  0.76387  0.64514  1.0000
  H   H5531     1.0  0.49214  0.90339  0.74458  1.0000
  Fe  Fe715     1.0  0.86787  0.86838  0.62058  1.0000
  S   S1416     1.0  0.88722  0.85003  0.62992  1.0000
  S   S1417     1.0  0.85375  0.88743  0.63331  1.0000
  C   C3452     1.0  0.87461  0.73800  0.61840  1.0000
  S   S1418     1.0  0.89259  0.83556  0.59891  1.0000
  H   H5532     1.0  0.93862  0.56449  0.73138  1.0000
  Fe  Fe716     1.0  0.87772  0.83331  0.62311  1.0000
  S   S1419     1.0  0.87619  0.80980  0.63883  1.0000
  Fe  Fe717     1.0  0.90077  0.85355  0.60521  1.0000
  S   S1420     1.0  0.92635  0.85451  0.59778  1.0000
  S   S1421     1.0  0.85689  0.85127  0.61637  1.0000
  S   S1422     1.0  0.88230  0.87335  0.59627  1.0000
  Fe  Fe718     1.0  0.90125  0.55010  0.73318  1.0000
  S   S1423     1.0  0.90140  0.57247  0.71534  1.0000
  N   N348      1.0  0.79242  0.90483  0.62358  1.0000
  C   C3453     1.0  0.57840  0.94163  0.77517  1.0000
  S   S1424     1.0  0.87915  0.59010  0.74367  1.0000
  Fe  Fe719     1.0  0.87586  0.57882  0.72622  1.0000
  S   S1425     1.0  0.85651  0.58904  0.71310  1.0000
  Fe  Fe720     1.0  0.90472  0.58151  0.73431  1.0000
  S   S1426     1.0  0.92172  0.59695  0.72782  1.0000
  S   S1427     1.0  0.87541  0.55570  0.74274  1.0000
  S   S1428     1.0  0.90701  0.55839  0.75129  1.0000
  S   S1429     1.0  0.50413  0.87559  0.62745  1.0000
  Fe  Fe721     1.0  0.80769  0.58406  0.65432  1.0000
  S   S1430     1.0  0.82867  0.58833  0.63523  1.0000
  S   S1431     1.0  0.79419  0.60603  0.66280  1.0000
  Fe  Fe722     1.0  0.81444  0.54929  0.65320  1.0000
  S   S1432     1.0  0.83606  0.55131  0.63445  1.0000
  S   S1433     1.0  0.80734  0.52598  0.66351  1.0000
  Fe  Fe723     1.0  0.84078  0.56560  0.64824  1.0000
  S   S1434     1.0  0.86389  0.56152  0.65460  1.0000
  Fe  Fe724     1.0  0.82140  0.57364  0.62371  1.0000
  S   S1435     1.0  0.81882  0.57641  0.59937  1.0000
  S   S1436     1.0  0.82020  0.56199  0.66790  1.0000
  S   S1437     1.0  0.79935  0.57108  0.64178  1.0000
  H   H5533     1.0  0.85313  0.53866  0.68194  1.0000
  C   C3454     1.0  0.86894  0.50903  0.68067  1.0000
  H   H5534     1.0  0.69516  0.92330  0.58347  1.0000
  S   S1438     1.0  0.80977  0.67854  0.59551  1.0000
  C   C3455     1.0  0.90102  0.51374  0.76645  1.0000
  N   N349      1.0  0.95833  0.54633  0.73701  1.0000
  C   C3456     1.0  0.52777  0.90596  0.58368  1.0000
  H   H5535     1.0  0.98183  0.53599  0.77581  1.0000
  H   H5536     1.0  0.77705  0.54125  0.59530  1.0000
  H   H5537     1.0  0.87697  0.82684  0.57900  1.0000
  H   H5538     1.0  0.51565  0.89286  0.77494  1.0000
  H   H5539     1.0  0.91299  0.65786  0.74386  1.0000
  H   H5540     1.0  0.83117  0.76949  0.58892  1.0000
  H   H5541     1.0  0.85579  0.51190  0.65690  1.0000
  H   H5542     1.0  0.54364  0.97381  0.69800  1.0000
  H   H5543     1.0  0.89201  0.88974  0.65485  1.0000
  H   H5544     1.0  0.88443  0.89216  0.61630  1.0000
  H   H5545     1.0  0.90677  0.72935  0.63365  1.0000
  H   H5546     1.0  0.78157  0.92921  0.62004  1.0000
  S   S1439     1.0  0.82503  0.62237  0.77116  1.0000
  H   H5547     1.0  0.90247  0.64954  0.76264  1.0000
  C   C3457     1.0  0.51319  0.88738  0.61072  1.0000
  C   C3458     1.0  0.50886  0.90364  0.60843  1.0000
  H   H5548     1.0  0.94391  0.81778  0.60161  1.0000
  H   H5549     1.0  0.84017  0.55891  0.76186  1.0000
  C   C3459     1.0  0.62285  0.91825  0.63047  1.0000
  C   C3460     1.0  0.52487  0.88040  0.59954  1.0000
  C   C3461     1.0  0.88560  0.49731  0.73032  1.0000
  C   C3462     1.0  0.80781  0.49043  0.64469  1.0000
  H   H5550     1.0  0.51882  0.90688  0.75693  1.0000
  H   H5551     1.0  0.83841  0.83145  0.59698  1.0000
  H   H5552     1.0  0.77428  0.90956  0.61104  1.0000
  H   H5553     1.0  0.97261  0.51117  0.67561  1.0000
  Fe  Fe725     1.0  0.50171  0.94821  0.75763  1.0000
  H   H5554     1.0  0.81536  0.80215  0.62113  1.0000
  H   H5555     1.0  0.82457  0.79797  0.59484  1.0000
  C   C3463     1.0  0.82510  0.59151  0.58431  1.0000
  H   H5556     1.0  0.87644  0.51769  0.67492  1.0000
  H   H5557     1.0  0.88648  0.73237  0.64358  1.0000
  S   S1440     1.0  0.52380  0.94116  0.76661  1.0000
  H   H5558     1.0  0.62702  0.94165  0.59416  1.0000
  H   H5559     1.0  0.94218  0.55086  0.75822  1.0000
  C   C3464     1.0  0.93844  0.58325  0.76731  1.0000
  H   H5560     1.0  0.98575  0.85091  0.60376  1.0000
  C   C3465     1.0  0.89825  0.50300  0.73071  1.0000
  H   H5561     1.0  0.55318  0.93817  0.73779  1.0000
  C   C3466     1.0  0.81281  0.51234  0.65149  1.0000
  C   C3467     1.0  0.82471  0.51368  0.63805  1.0000
  C   C3468     1.0  0.82774  0.50389  0.62768  1.0000
  H   H5562     1.0  0.91390  0.73451  0.60473  1.0000
  H   H5563     1.0  0.56884  0.94564  0.72360  1.0000
  H   H5564     1.0  0.95400  0.86623  0.59188  1.0000
  H   H5565     1.0  0.83139  0.52247  0.63538  1.0000
  H   H5566     1.0  0.83660  0.50541  0.61702  1.0000
  H   H5567     1.0  0.93784  0.78381  0.63449  1.0000
  C   C3469     1.0  0.94008  0.74763  0.57741  1.0000
  C   C3470     1.0  0.85842  0.58004  0.69781  1.0000
  C   C3471     1.0  0.87278  0.57104  0.69156  1.0000
  C   C3472     1.0  0.87441  0.56528  0.67835  1.0000
  C   C3473     1.0  0.86171  0.56859  0.67129  1.0000
  C   C3474     1.0  0.84731  0.57739  0.67770  1.0000
  C   C3475     1.0  0.84558  0.58281  0.69110  1.0000
  H   H5568     1.0  0.88274  0.56878  0.69667  1.0000
  H   H5569     1.0  0.88557  0.55843  0.67349  1.0000
  H   H5570     1.0  0.83752  0.58031  0.67221  1.0000
  H   H5571     1.0  0.83434  0.58940  0.69611  1.0000
  C   C3476     1.0  0.93279  0.59425  0.74156  1.0000
  C   C3477     1.0  0.94583  0.60095  0.73705  1.0000
  C   C3478     1.0  0.95518  0.59877  0.74756  1.0000
  C   C3479     1.0  0.95177  0.58962  0.76256  1.0000
  H   H5572     1.0  0.96226  0.52458  0.73036  1.0000
  C   C3480     1.0  0.92891  0.58558  0.75678  1.0000
  H   H5573     1.0  0.94887  0.60770  0.72531  1.0000
  S   S1441     1.0  0.98582  0.73446  0.57925  1.0000
  H   H5574     1.0  0.58027  0.84400  0.76601  1.0000
  S   S1442     1.0  0.96513  0.58507  0.77454  1.0000
  C   C3481     1.0  0.89777  0.51903  0.72607  1.0000
  C   C3482     1.0  0.88482  0.52926  0.72074  1.0000
  Fe  Fe726     1.0  0.98396  0.87376  0.63082  1.0000
  N   N350      1.0  0.89045  0.73904  0.61863  1.0000
  H   H5575     1.0  0.81545  0.62793  0.62704  1.0000
  H   H5576     1.0  0.88226  0.91737  0.64249  1.0000
  H   H5577     1.0  0.56327  0.96699  0.70128  1.0000
  H   H5578     1.0  0.81216  0.59345  0.77534  1.0000
  H   H5579     1.0  0.50311  0.90564  0.69044  1.0000
  C   C3483     1.0  0.79504  0.61836  0.61771  1.0000
  H   H5580     1.0  0.83916  0.52694  0.66209  1.0000
  H   H5581     1.0  0.70976  0.95797  0.62459  1.0000
  H   H5582     1.0  0.64721  0.91606  0.59510  1.0000
  C   C3484     1.0  0.94971  0.86691  0.62972  1.0000
  C   C3485     1.0  0.93600  0.86113  0.63606  1.0000
  C   C3486     1.0  0.92870  0.85723  0.62641  1.0000
  C   C3487     1.0  0.93510  0.85911  0.61039  1.0000
  C   C3488     1.0  0.94884  0.86477  0.60416  1.0000
  C   C3489     1.0  0.95601  0.86878  0.61374  1.0000
  H   H5583     1.0  0.93112  0.85956  0.64846  1.0000
  H   H5584     1.0  0.91829  0.85257  0.63141  1.0000
  H   H5585     1.0  0.80146  0.52079  0.59142  1.0000
  H   H5586     1.0  0.95992  0.56762  0.74152  1.0000
  C   C3490     1.0  0.79327  0.72834  0.60373  1.0000
  C   C3491     1.0  0.79230  0.72523  0.58992  1.0000
  C   C3492     1.0  0.79770  0.71005  0.58720  1.0000
  C   C3493     1.0  0.80377  0.69779  0.59846  1.0000
  C   C3494     1.0  0.80469  0.70086  0.61234  1.0000
  C   C3495     1.0  0.79966  0.71616  0.61489  1.0000
  H   H5587     1.0  0.83611  0.60161  0.74602  1.0000
  H   H5588     1.0  0.80936  0.69141  0.62110  1.0000
  H   H5589     1.0  0.80044  0.71847  0.62558  1.0000
  C   C3496     1.0  0.85311  0.78172  0.62109  1.0000
  C   C3497     1.0  0.86303  0.79109  0.61062  1.0000
  C   C3498     1.0  0.86975  0.80008  0.61598  1.0000
  C   C3499     1.0  0.86710  0.79925  0.63194  1.0000
  C   C3500     1.0  0.85748  0.78959  0.64249  1.0000
  C   C3501     1.0  0.85026  0.78105  0.63706  1.0000
  H   H5590     1.0  0.86548  0.79151  0.59829  1.0000
  H   H5591     1.0  0.87726  0.80738  0.60775  1.0000
  H   H5592     1.0  0.85542  0.78890  0.65486  1.0000
  H   H5593     1.0  0.84273  0.77374  0.64525  1.0000
  C   C3502     1.0  0.80960  0.68740  0.69368  1.0000
  C   C3503     1.0  0.80928  0.69522  0.67822  1.0000
  C   C3504     1.0  0.80543  0.71161  0.67422  1.0000
  C   C3505     1.0  0.80215  0.72021  0.68565  1.0000
  C   C3506     1.0  0.80299  0.71237  0.70101  1.0000
  C   C3507     1.0  0.80659  0.69598  0.70506  1.0000
  H   H5594     1.0  0.81162  0.68862  0.66936  1.0000
  H   H5595     1.0  0.80469  0.71756  0.66238  1.0000
  H   H5596     1.0  0.80068  0.71903  0.70982  1.0000
  H   H5597     1.0  0.80709  0.69001  0.71696  1.0000
  C   C3508     1.0  0.78994  0.60514  0.71405  1.0000
  C   C3509     1.0  0.78646  0.61930  0.70348  1.0000
  C   C3510     1.0  0.78760  0.61943  0.68783  1.0000
  C   C3511     1.0  0.79265  0.60545  0.68257  1.0000
  C   C3512     1.0  0.79641  0.59133  0.69308  1.0000
  C   C3513     1.0  0.79492  0.59116  0.70881  1.0000
  H   H5598     1.0  0.78245  0.63011  0.70746  1.0000
  H   H5599     1.0  0.78450  0.63039  0.67981  1.0000
  H   H5600     1.0  0.80006  0.58047  0.68924  1.0000
  H   H5601     1.0  0.79756  0.58017  0.71695  1.0000
  H   H5602     1.0  0.50376  0.87080  0.77668  1.0000
  H   H5603     1.0  0.96518  0.60409  0.74392  1.0000
  C   C3514     1.0  0.82917  0.56634  0.76725  1.0000
  C   C3515     1.0  0.53412  0.90054  0.70669  1.0000
  C   C3516     1.0  0.52193  0.90819  0.69887  1.0000
  C   C3517     1.0  0.51262  0.89965  0.69629  1.0000
  C   C3518     1.0  0.51531  0.88344  0.70170  1.0000
  C   C3519     1.0  0.52763  0.87576  0.70932  1.0000
  C   C3520     1.0  0.53713  0.88428  0.71166  1.0000
  H   H5604     1.0  0.51950  0.92078  0.69502  1.0000
  H   H5605     1.0  0.93942  0.54610  0.72730  1.0000
  H   H5606     1.0  0.52984  0.86320  0.71338  1.0000
  H   H5607     1.0  0.54667  0.87825  0.71743  1.0000
  C   C3521     1.0  0.72475  0.82936  0.64394  1.0000
  C   C3522     1.0  0.73472  0.83953  0.63577  1.0000
  C   C3523     1.0  0.75100  0.83376  0.63248  1.0000
  C   C3524     1.0  0.75739  0.81780  0.63715  1.0000
  C   C3525     1.0  0.74742  0.80760  0.64525  1.0000
  C   C3526     1.0  0.73112  0.81341  0.64875  1.0000
  H   H5608     1.0  0.72991  0.85185  0.63207  1.0000
  H   H5609     1.0  0.75866  0.84170  0.62624  1.0000
  H   H5610     1.0  0.75227  0.79528  0.64893  1.0000
  H   H5611     1.0  0.72345  0.80550  0.65506  1.0000
  C   C3527     1.0  0.64297  0.89461  0.67092  1.0000
  C   C3528     1.0  0.64240  0.87930  0.67157  1.0000
  C   C3529     1.0  0.63377  0.87092  0.68489  1.0000
  C   C3530     1.0  0.62566  0.87781  0.69760  1.0000
  C   C3531     1.0  0.62596  0.89323  0.69681  1.0000
  C   C3532     1.0  0.63454  0.90163  0.68347  1.0000
  H   H5612     1.0  0.64859  0.87388  0.66187  1.0000
  H   H5613     1.0  0.63331  0.85909  0.68538  1.0000
  H   H5614     1.0  0.61994  0.89855  0.70665  1.0000
  H   H5615     1.0  0.63492  0.91347  0.68304  1.0000
  H   H5616     1.0  0.52201  0.96264  0.71679  1.0000
  C   C3533     1.0  0.64443  0.87382  0.60210  1.0000
  C   C3534     1.0  0.62892  0.87340  0.60279  1.0000
  S   S1443     1.0  0.95582  0.49625  0.75270  1.0000
  H   H5617     1.0  0.80230  0.83050  0.58640  1.0000
  C   C3535     1.0  0.53230  0.88969  0.58610  1.0000
  H   H5618     1.0  0.64993  0.86746  0.61177  1.0000
  H   H5619     1.0  0.62252  0.86666  0.61302  1.0000
  H   H5620     1.0  0.59151  0.81627  0.77697  1.0000
  C   C3536     1.0  0.79736  0.64087  0.59653  1.0000
  C   C3537     1.0  0.83091  0.93143  0.60219  1.0000
  C   C3538     1.0  0.82847  0.93054  0.61817  1.0000
  C   C3539     1.0  0.83558  0.91701  0.62769  1.0000
  C   C3540     1.0  0.84494  0.90430  0.62130  1.0000
  C   C3541     1.0  0.84713  0.90515  0.60539  1.0000
  C   C3542     1.0  0.84030  0.91874  0.59584  1.0000
  H   H5621     1.0  0.82133  0.94037  0.62311  1.0000
  H   H5622     1.0  0.83380  0.91641  0.64002  1.0000
  H   H5623     1.0  0.85396  0.89532  0.60039  1.0000
  C   C3543     1.0  0.89819  0.62523  0.75469  1.0000
  H   H5624     1.0  0.78726  0.73459  0.58130  1.0000
  N   N351      1.0  0.82555  0.58179  0.75679  1.0000
  H   H5625     1.0  0.94306  0.53253  0.75392  1.0000
  H   H5626     1.0  0.79384  0.90508  0.59967  1.0000
  H   H5627     1.0  0.97359  0.56212  0.72462  1.0000
  H   H5628     1.0  0.78308  0.61867  0.61664  1.0000
  C   C3544     1.0  0.78184  0.90111  0.63895  1.0000
  H   H5629     1.0  0.88113  0.88346  0.64502  1.0000
  C   C3545     1.0  0.74271  0.93254  0.62571  1.0000
  C   C3546     1.0  0.73230  0.92309  0.63498  1.0000
  C   C3547     1.0  0.72606  0.91483  0.62819  1.0000
  C   C3548     1.0  0.73032  0.91594  0.61208  1.0000
  C   C3549     1.0  0.74061  0.92550  0.60281  1.0000
  C   C3550     1.0  0.74676  0.93377  0.60960  1.0000
  H   H5630     1.0  0.72909  0.92210  0.64747  1.0000
  H   H5631     1.0  0.71811  0.90750  0.63541  1.0000
  H   H5632     1.0  0.74388  0.92646  0.59032  1.0000
  H   H5633     1.0  0.75468  0.94102  0.60230  1.0000
  C   C3551     1.0  0.98263  0.49384  0.69363  1.0000
  H   H5634     1.0  0.89879  0.74152  0.59395  1.0000
  C   C3552     1.0  0.87201  0.52361  0.72077  1.0000
  H   H5635     1.0  0.82169  0.59125  0.73354  1.0000
  N   N352      1.0  0.89552  0.89928  0.63015  1.0000
  C   C3553     1.0  0.89249  0.88649  0.64385  1.0000
  C   C3554     1.0  0.88287  0.91333  0.63189  1.0000
  H   H5636     1.0  0.53278  0.94372  0.71366  1.0000
  C   C3555     1.0  0.91003  0.64679  0.75146  1.0000
  C   C3556     1.0  0.80233  0.54248  0.61584  1.0000
  H   H5637     1.0  0.88460  0.92317  0.62165  1.0000
  S   S1444     1.0  0.60266  0.88013  0.59083  1.0000
  H   H5638     1.0  0.69238  0.98269  0.59081  1.0000
  H   H5639     1.0  0.89843  0.90372  0.60527  1.0000
  H   H5640     1.0  0.91330  0.91257  0.61892  1.0000
  N   N353      1.0  0.75821  0.70198  0.71865  1.0000
  C   C3557     1.0  0.75025  0.71861  0.71487  1.0000
  C   C3558     1.0  0.76772  0.69709  0.70414  1.0000
  C   C3559     1.0  0.74644  0.69232  0.72622  1.0000
  C   C3560     1.0  0.76846  0.69994  0.72938  1.0000
  H   H5641     1.0  0.75889  0.72618  0.70911  1.0000
  H   H5642     1.0  0.74303  0.72272  0.72556  1.0000
  H   H5643     1.0  0.74242  0.72061  0.70677  1.0000
  H   H5644     1.0  0.77477  0.68492  0.70656  1.0000
  H   H5645     1.0  0.76028  0.69764  0.69614  1.0000
  H   H5646     1.0  0.77605  0.70477  0.69765  1.0000
  H   H5647     1.0  0.75213  0.67972  0.72920  1.0000
  H   H5648     1.0  0.73838  0.69360  0.71858  1.0000
  H   H5649     1.0  0.73924  0.69551  0.73736  1.0000
  H   H5650     1.0  0.76158  0.70275  0.74076  1.0000
  H   H5651     1.0  0.77699  0.70762  0.72444  1.0000
  H   H5652     1.0  0.77522  0.68768  0.73194  1.0000
  N   N354      1.0  0.55036  0.89530  0.62806  1.0000
  C   C3561     1.0  0.55703  0.89501  0.61142  1.0000
  C   C3562     1.0  0.56290  0.89495  0.63557  1.0000
  C   C3563     1.0  0.54342  0.88154  0.63588  1.0000
  C   C3564     1.0  0.53809  0.90972  0.62937  1.0000
  H   H5653     1.0  0.54789  0.89528  0.60542  1.0000
  H   H5654     1.0  0.56637  0.88432  0.60992  1.0000
  H   H5655     1.0  0.56232  0.90526  0.60512  1.0000
  H   H5656     1.0  0.55828  0.89505  0.64818  1.0000
  H   H5657     1.0  0.57239  0.88426  0.63468  1.0000
  H   H5658     1.0  0.56833  0.90522  0.63000  1.0000
  H   H5659     1.0  0.53837  0.88130  0.64849  1.0000
  H   H5660     1.0  0.55225  0.87043  0.63494  1.0000
  H   H5661     1.0  0.53377  0.88151  0.63065  1.0000
  H   H5662     1.0  0.53300  0.91051  0.64176  1.0000
  H   H5663     1.0  0.52828  0.91019  0.62412  1.0000
  H   H5664     1.0  0.54279  0.92037  0.62328  1.0000
  C   C3565     1.0  0.96752  0.55746  0.73668  1.0000
  H   H5665     1.0  0.91719  0.80746  0.63972  1.0000
  H   H5666     1.0  0.81695  0.64503  0.61157  1.0000
  C   C3566     1.0  0.99174  0.53136  0.76735  1.0000
  H   H5667     1.0  0.59718  0.90440  0.77237  1.0000
  H   H5668     1.0  0.80350  0.61042  0.61040  1.0000
  H   H5669     1.0  0.94748  0.78246  0.61473  1.0000
  H   H5670     1.0  0.79982  0.65278  0.59258  1.0000
  H   H5671     1.0  0.84069  0.59107  0.76446  1.0000
  H   H5672     1.0  0.50365  0.88808  0.73480  1.0000
  S   S1445     1.0  0.97805  0.80318  0.59595  1.0000
  H   H5673     1.0  0.95242  0.55831  0.71489  1.0000
  H   H5674     1.0  0.49992  0.90910  0.61706  1.0000
  H   H5675     1.0  0.79549  0.49921  0.66545  1.0000
  Fe  Fe727     1.0  0.98787  0.58842  0.75813  1.0000
  H   H5676     1.0  0.92059  0.89251  0.62727  1.0000
  H   H5677     1.0  0.86564  0.74201  0.62838  1.0000
  S   S1446     1.0  0.78505  0.63094  0.76239  1.0000
  H   H5678     1.0  0.92384  0.62801  0.73155  1.0000
  H   H5679     1.0  0.88101  0.64549  0.73546  1.0000
  C   C3567     1.0  0.50418  0.89621  0.74163  1.0000
  H   H5680     1.0  0.80099  0.92474  0.60844  1.0000
  H   H5681     1.0  0.88462  0.54159  0.71660  1.0000
  H   H5682     1.0  0.86188  0.53166  0.71697  1.0000
  H   H5683     1.0  0.63735  0.94244  0.62218  1.0000
  C   C3568     1.0  0.89048  0.75535  0.61811  1.0000
  H   H5684     1.0  0.78550  0.64186  0.59475  1.0000
  C   C3569     1.0  0.80825  0.89480  0.62380  1.0000
  C   C3570     1.0  0.84917  0.65414  0.76958  1.0000
  H   H5685     1.0  0.78612  0.90312  0.64834  1.0000
  H   H5686     1.0  0.55912  0.93348  0.71891  1.0000
  C   C3571     1.0  0.89489  0.72884  0.63307  1.0000
  S   S1447     1.0  0.87347  0.72668  0.58420  1.0000
  H   H5687     1.0  0.92554  0.82075  0.59654  1.0000
  H   H5688     1.0  0.63080  0.90930  0.63749  1.0000
  Fe  Fe728     1.0  0.88104  0.56620  0.75922  1.0000
  N   N355      1.0  0.63163  0.92468  0.61486  1.0000
  S   S1448     1.0  0.49506  0.97198  0.74309  1.0000
  H   H5689     1.0  0.89253  0.61931  0.74936  1.0000
  C   C3572     1.0  0.89590  0.89448  0.61589  1.0000
  H   H5690     1.0  0.52638  0.94699  0.73305  1.0000
  C   C3573     1.0  0.81423  0.63323  0.61479  1.0000
  H   H5691     1.0  0.78903  0.65627  0.61975  1.0000
  H   H5692     1.0  0.91174  0.78878  0.62812  1.0000
  C   C3574     1.0  0.78677  0.64426  0.62297  1.0000
  C   C3575     1.0  0.84652  0.52927  0.68766  1.0000
  H   H5693     1.0  0.90232  0.75666  0.61789  1.0000
  H   H5694     1.0  0.53806  0.96399  0.74125  1.0000
  S   S1449     1.0  0.49417  0.97205  0.70296  1.0000
  H   H5695     1.0  0.63146  0.90623  0.60463  1.0000
  N   N356      1.0  0.54584  0.95688  0.71933  1.0000
  C   C3576     1.0  0.54289  0.96864  0.72871  1.0000
  C   C3577     1.0  0.55212  0.96341  0.70279  1.0000
  C   C3578     1.0  0.53107  0.95240  0.72077  1.0000
  C   C3579     1.0  0.55726  0.94294  0.72512  1.0000
  H   H5696     1.0  0.57267  0.95237  0.76845  1.0000
  C   C3580     1.0  0.70578  0.96148  0.61341  1.0000
  C   C3581     1.0  0.82869  0.74043  0.59031  1.0000
  H   H5697     1.0  0.80810  0.88220  0.62638  1.0000
  H   H5698     1.0  0.81959  0.56003  0.76999  1.0000
  H   H5699     1.0  0.55457  0.95464  0.69556  1.0000
  H   H5700     1.0  0.83090  0.65362  0.75907  1.0000
  H   H5701     1.0  0.77559  0.53552  0.61600  1.0000
  H   H5702     1.0  0.51177  0.90418  0.73380  1.0000
  H   H5703     1.0  0.91859  0.58074  0.76048  1.0000
  H   H5704     1.0  0.87012  0.50484  0.69299  1.0000
  H   H5705     1.0  0.91108  0.90605  0.63969  1.0000
  H   H5706     1.0  0.85279  0.70702  0.58631  1.0000
  C   C3582     1.0  0.78075  0.54318  0.60509  1.0000
  C   C3583     1.0  0.87237  0.50762  0.72564  1.0000
  H   H5707     1.0  0.79983  0.51517  0.61206  1.0000
  C   C3584     1.0  0.98976  0.84227  0.59676  1.0000
  H   H5708     1.0  0.89001  0.62767  0.76573  1.0000
  C   C3585     1.0  0.62178  0.88150  0.59022  1.0000
  C   C3586     1.0  0.83185  0.64737  0.66838  1.0000
  H   H5709     1.0  0.81652  0.89745  0.61238  1.0000
  H   H5710     1.0  0.82357  0.73146  0.58864  1.0000
  C   C3587     1.0  0.98800  0.49138  0.66686  1.0000
  H   H5711     1.0  0.97653  0.55191  0.74378  1.0000
  C   C3588     1.0  0.62066  0.93622  0.60580  1.0000
  H   H5712     1.0  0.88697  0.76340  0.60747  1.0000
  H   H5713     1.0  0.78080  0.88872  0.64201  1.0000
  C   C3589     1.0  0.78623  0.90217  0.61145  1.0000
  H   H5714     1.0  0.79779  0.81430  0.60193  1.0000
  H   H5715     1.0  0.94617  0.50353  0.69441  1.0000
  H   H5716     1.0  0.94069  0.80389  0.59297  1.0000
  H   H5717     1.0  0.77549  0.55551  0.60614  1.0000
  H   H5718     1.0  0.79957  0.56269  0.58848  1.0000
  H   H5719     1.0  0.81528  0.54030  0.61420  1.0000
  H   H5720     1.0  0.81741  0.54823  0.58609  1.0000
  H   H5721     1.0  0.81380  0.63358  0.69417  1.0000
  C   C3590     1.0  0.98701  0.81903  0.59098  1.0000
  H   H5722     1.0  0.81915  0.65307  0.66993  1.0000
  H   H5723     1.0  0.80596  0.63357  0.58865  1.0000
  H   H5724     1.0  0.83221  0.60224  0.59856  1.0000
  H   H5725     1.0  0.77463  0.64538  0.62187  1.0000
  H   H5726     1.0  0.87372  0.49889  0.67494  1.0000
  C   C3591     1.0  0.63986  0.91185  0.60667  1.0000
  H   H5727     1.0  0.78716  0.63944  0.63550  1.0000
  H   H5728     1.0  0.95781  0.84184  0.58110  1.0000
  C   C3592     1.0  0.94194  0.79073  0.62266  1.0000
  H   H5729     1.0  0.70194  0.89527  0.58371  1.0000
  H   H5730     1.0  0.85852  0.53062  0.65703  1.0000
  H   H5731     1.0  0.61215  0.93072  0.60375  1.0000
  C   C3593     1.0  0.58462  0.92841  0.76870  1.0000
  S   S1450     1.0  0.91275  0.52642  0.72807  1.0000
  H   H5732     1.0  0.87410  0.72587  0.61876  1.0000
  H   H5733     1.0  0.84966  0.75820  0.58110  1.0000
  S   S1451     1.0  0.87818  0.76838  0.57825  1.0000
  C   C3594     1.0  0.94622  0.76725  0.58639  1.0000
  C   C3595     1.0  0.79332  0.92137  0.62007  1.0000
  H   H5734     1.0  0.51248  0.92552  0.59291  1.0000
  C   C3596     1.0  0.51598  0.91292  0.59479  1.0000
  S   S1452     1.0  0.99092  0.88852  0.60701  1.0000
  Fe  Fe729     1.0  0.77021  0.98295  0.58903  1.0000
  C   C3597     1.0  0.82357  0.57984  0.74200  1.0000
  H   H5735     1.0  0.61391  0.94585  0.61184  1.0000
  C   C3598     1.0  0.83854  0.58972  0.75355  1.0000
  H   H5736     1.0  0.82116  0.74473  0.60078  1.0000
  Fe  Fe730     1.0  0.97246  0.48854  0.73181  1.0000
  H   H5737     1.0  0.53100  0.87143  0.76175  1.0000
  H   H5738     1.0  0.91565  0.64674  0.72092  1.0000
  H   H5739     1.0  0.90726  0.63028  0.72362  1.0000
  H   H5740     1.0  0.84123  0.80602  0.59161  1.0000
  H   H5741     1.0  0.94286  0.77834  0.58972  1.0000
  H   H5742     1.0  0.84951  0.66616  0.76390  1.0000
  H   H5743     1.0  0.78541  0.88979  0.61367  1.0000
  N   N357      1.0  0.85244  0.51607  0.67970  1.0000
  C   C3599     1.0  0.88763  0.65078  0.74040  1.0000
  C   C3600     1.0  0.82660  0.62841  0.69238  1.0000
  H   H5744     1.0  0.97746  0.52623  0.73842  1.0000
  C   C3601     1.0  0.95017  0.54091  0.75323  1.0000
  H   H5745     1.0  0.84034  0.73441  0.59303  1.0000
  H   H5746     1.0  0.52822  0.86781  0.60131  1.0000
  H   H5747     1.0  0.83715  0.64946  0.65568  1.0000
  H   H5748     1.0  0.84952  0.58307  0.74740  1.0000
  H   H5749     1.0  0.90500  0.88366  0.61436  1.0000
  H   H5750     1.0  0.87094  0.74541  0.60758  1.0000
  C   C3602     1.0  0.91076  0.90278  0.62896  1.0000
  H   H5751     1.0  0.93097  0.50487  0.68482  1.0000
  H   H5752     1.0  0.70999  0.97023  0.58242  1.0000
  H   H5753     1.0  0.80084  0.58578  0.76702  1.0000
  H   H5754     1.0  0.84759  0.52549  0.70003  1.0000
  S   S1453     1.0  0.49805  0.93621  0.74104  1.0000
  H   H5755     1.0  0.96640  0.87345  0.60870  1.0000
  H   H5756     1.0  0.89016  0.66163  0.73195  1.0000
  H   H5757     1.0  0.76982  0.90860  0.63914  1.0000
  H   H5758     1.0  0.96962  0.76265  0.58962  1.0000
  C   C3603     1.0  0.90179  0.73394  0.60497  1.0000
  H   H5759     1.0  0.82335  0.62604  0.60718  1.0000
  C   C3604     1.0  0.52606  0.87808  0.75135  1.0000
  H   H5760     1.0  0.79805  0.92383  0.62890  1.0000
  S   S1454     1.0  0.95870  0.87210  0.64172  1.0000
  H   H5761     1.0  0.82814  0.61586  0.69836  1.0000
  C   C3605     1.0  0.49957  0.87750  0.76589  1.0000
  C   C3606     1.0  0.81906  0.49250  0.63074  1.0000
  H   H5762     1.0  0.64777  0.90258  0.61346  1.0000
  H   H5763     1.0  0.95134  0.79603  0.62324  1.0000
  H   H5764     1.0  0.80696  0.76689  0.58408  1.0000
  C   C3607     1.0  0.64318  0.93239  0.61648  1.0000
  H   H5765     1.0  0.82795  0.61021  0.67372  1.0000
  H   H5766     1.0  0.83714  0.65356  0.67381  1.0000
  H   H5767     1.0  0.90815  0.49506  0.73502  1.0000
  C   C3608     1.0  0.96894  0.53282  0.73093  1.0000
  H   H5768     1.0  0.88212  0.75960  0.62829  1.0000
  S   S1455     1.0  0.58326  0.92972  0.74958  1.0000
  C   C3609     1.0  0.83864  0.64707  0.76684  1.0000
  Fe  Fe731     1.0  0.87260  0.85495  0.59262  1.0000
  C   C3610     1.0  0.96149  0.75846  0.58607  1.0000
  H   H5769     1.0  0.95864  0.53490  0.76092  1.0000
  C   C3611     1.0  0.72802  0.97299  0.60005  1.0000
  N   N358      1.0  0.79835  0.63417  0.61299  1.0000
  S   S1456     1.0  0.50360  0.89789  0.65848  1.0000
  H   H5770     1.0  0.87120  0.91098  0.63295  1.0000
  H   H5771     1.0  0.65042  0.93684  0.60490  1.0000
  C   C3612     1.0  0.65292  0.88212  0.58870  1.0000
  H   H5772     1.0  0.65127  0.92418  0.62376  1.0000
  C   C3613     1.0  0.80445  0.52333  0.60130  1.0000
  S   S1457     1.0  0.97942  0.50560  0.77564  1.0000
  H   H5773     1.0  0.80796  0.60294  0.75660  1.0000
  H   H5774     1.0  0.61392  0.91251  0.62965  1.0000
  H   H5775     1.0  0.83042  0.50915  0.68608  1.0000
  N   N359      1.0  0.79800  0.53979  0.60255  1.0000
  C   C3614     1.0  0.70539  0.97993  0.58876  1.0000
  N   N360      1.0  0.68127  0.85171  0.68884  1.0000
  C   C3615     1.0  0.67808  0.84239  0.70494  1.0000
  C   C3616     1.0  0.67414  0.84659  0.67900  1.0000
  C   C3617     1.0  0.69838  0.84939  0.68260  1.0000
  C   C3618     1.0  0.67445  0.86843  0.68882  1.0000
  H   H5776     1.0  0.68328  0.84593  0.71272  1.0000
  H   H5777     1.0  0.68302  0.82971  0.70534  1.0000
  H   H5778     1.0  0.66524  0.84391  0.70996  1.0000
  H   H5779     1.0  0.67580  0.85376  0.66689  1.0000
  H   H5780     1.0  0.67955  0.83423  0.67813  1.0000
  H   H5781     1.0  0.66137  0.84750  0.68370  1.0000
  H   H5782     1.0  0.70387  0.83694  0.68211  1.0000
  H   H5783     1.0  0.70425  0.85295  0.68977  1.0000
  H   H5784     1.0  0.70117  0.85629  0.67048  1.0000
  H   H5785     1.0  0.67999  0.87287  0.69561  1.0000
  H   H5786     1.0  0.66166  0.87049  0.69407  1.0000
  H   H5787     1.0  0.67596  0.87578  0.67677  1.0000
  N   N361      1.0  0.92893  0.80283  0.61703  1.0000
  C   C3619     1.0  0.91672  0.79534  0.61640  1.0000
  C   C3620     1.0  0.92208  0.81364  0.62777  1.0000
  C   C3621     1.0  0.93501  0.81167  0.60133  1.0000
  H   H5788     1.0  0.83411  0.57214  0.73627  1.0000
  S   S1458     1.0  0.75558  0.67259  0.76251  1.0000
  H   H5789     1.0  0.90672  0.80409  0.61220  1.0000
  H   H5790     1.0  0.81329  0.89655  0.63280  1.0000
  H   H5791     1.0  0.93092  0.81955  0.62854  1.0000
  H   H5792     1.0  0.91233  0.82293  0.62375  1.0000
  H   H5793     1.0  0.97571  0.53650  0.71890  1.0000
  H   H5794     1.0  0.97188  0.82952  0.60982  1.0000
  H   H5795     1.0  0.89498  0.71644  0.63380  1.0000
  H   H5796     1.0  0.79577  0.61292  0.63004  1.0000
  H   H5797     1.0  0.92640  0.50477  0.70523  1.0000
  H   H5798     1.0  0.90184  0.72180  0.60476  1.0000
  H   H5799     1.0  0.73351  0.96390  0.59306  1.0000
  N   N362      1.0  0.83423  0.63051  0.67565  1.0000
  C   C3622     1.0  0.83810  0.63157  0.77424  1.0000
  C   C3623     1.0  0.85119  0.62362  0.67394  1.0000
  C   C3624     1.0  0.82728  0.62274  0.66793  1.0000
  H   H5800     1.0  0.83160  0.63417  0.69849  1.0000
  H   H5801     1.0  0.91388  0.51200  0.76158  1.0000
  S   S1459     1.0  0.91664  0.77357  0.58214  1.0000
  H   H5802     1.0  0.85343  0.61094  0.67933  1.0000
  H   H5803     1.0  0.85672  0.62913  0.67981  1.0000
  H   H5804     1.0  0.85740  0.62498  0.66148  1.0000
  H   H5805     1.0  0.83333  0.62329  0.65550  1.0000
  H   H5806     1.0  0.81468  0.62824  0.66831  1.0000
  N   N363      1.0  0.90212  0.63971  0.74399  1.0000
  N   N364      1.0  0.81931  0.82037  0.60071  1.0000
  C   C3625     1.0  0.81955  0.81323  0.61727  1.0000
  C   C3626     1.0  0.82871  0.80906  0.59100  1.0000
  C   C3627     1.0  0.82599  0.83442  0.59584  1.0000
  C   C3628     1.0  0.80299  0.82475  0.59868  1.0000
  H   H5807     1.0  0.81180  0.82108  0.62504  1.0000
  H   H5808     1.0  0.83156  0.81052  0.61938  1.0000
  S   S1460     1.0  0.50312  0.87274  0.69940  1.0000
  S   S1461     1.0  0.85633  0.50054  0.72581  1.0000
  H   H5809     1.0  0.49377  0.98339  0.67090  1.0000
  H   H5810     1.0  0.81745  0.52026  0.59947  1.0000
  C   C3629     1.0  0.93553  0.76196  0.58192  1.0000
  C   C3630     1.0  0.83083  0.60300  0.58702  1.0000
  C   C3631     1.0  0.98183  0.83024  0.60006  1.0000
  C   C3632     1.0  0.51096  0.89894  0.76430  1.0000
  H   H5811     1.0  0.79536  0.83286  0.60623  1.0000
  H   H5812     1.0  0.81932  0.84314  0.60304  1.0000
  C   C3633     1.0  0.91266  0.63606  0.72936  1.0000
  H   H5813     1.0  0.84214  0.91935  0.58350  1.0000
  C   C3634     1.0  0.84280  0.50431  0.68728  1.0000
  C   C3635     1.0  0.85146  0.52164  0.66318  1.0000
  H   H5814     1.0  0.89541  0.52545  0.76035  1.0000
  H   H5815     1.0  0.75135  0.64073  0.77387  1.0000
  S   S1462     1.0  0.67246  0.88265  0.58704  1.0000
  C   C3636     1.0  0.80444  0.55016  0.58803  1.0000
  H   H5816     1.0  0.71084  0.95145  0.60752  1.0000
  H   H5817     1.0  0.82588  0.84018  0.58344  1.0000
  H   H5818     1.0  0.81327  0.57475  0.74383  1.0000
  H   H5819     1.0  0.90884  0.61674  0.75786  1.0000
  H   H5820     1.0  0.49867  0.86895  0.75975  1.0000
  H   H5821     1.0  0.53432  0.88549  0.74376  1.0000
  H   H5822     1.0  0.84732  0.49388  0.68199  1.0000
  H   H5823     1.0  0.89691  0.50492  0.76325  1.0000
  C   C3637     1.0  0.93523  0.49963  0.69580  1.0000
  C   C3638     1.0  0.98046  0.49997  0.67840  1.0000
  H   H5824     1.0  0.82817  0.81379  0.57854  1.0000
  H   H5825     1.0  0.52600  0.86949  0.74482  1.0000
  C   C3639     1.0  0.81097  0.59134  0.76436  1.0000
  H   H5826     1.0  0.55388  0.97207  0.72811  1.0000
  H   H5827     1.0  0.79754  0.55476  0.61718  1.0000
  H   H5828     1.0  0.69281  0.96312  0.61623  1.0000
  H   H5829     1.0  0.92106  0.63872  0.75421  1.0000
  H   H5830     1.0  0.61789  0.84202  0.58473  1.0000
  C   C3640     1.0  0.83788  0.76428  0.57875  1.0000
  H   H5831     1.0  0.84264  0.50045  0.69995  1.0000
  H   H5832     1.0  0.83393  0.53443  0.68771  1.0000
  Fe  Fe732     1.0  0.97704  0.48916  0.76286  1.0000
  H   H5833     1.0  0.79786  0.53473  0.62701  1.0000
  H   H5834     1.0  0.73256  0.96895  0.61093  1.0000
  C   C3641     1.0  0.96623  0.74441  0.58108  1.0000
  H   H5835     1.0  0.88578  0.48501  0.73411  1.0000
  H   H5836     1.0  0.98602  0.49596  0.65516  1.0000
  N   N365      1.0  0.51020  0.88768  0.75580  1.0000
  H   H5837     1.0  0.49917  0.90633  0.76794  1.0000
  H   H5838     1.0  0.80176  0.54821  0.57768  1.0000
  H   H5839     1.0  0.54129  0.88428  0.57747  1.0000
  H   H5840     1.0  0.64007  0.51529  0.90105  1.0000
  C   C3642     1.0  0.61234  0.54300  0.91778  1.0000
  Fe  Fe733     1.0  0.57031  0.94348  0.83111  1.0000
  S   S1463     1.0  0.54741  0.93723  0.84428  1.0000
  S   S1464     1.0  0.58842  0.92625  0.81811  1.0000
  Fe  Fe734     1.0  0.53688  0.96203  0.83452  1.0000
  N   N366      1.0  0.62779  0.53213  0.91521  1.0000
  Fe  Fe735     1.0  0.55049  0.94677  0.86305  1.0000
  S   S1465     1.0  0.54164  0.93540  0.88800  1.0000
  S   S1466     1.0  0.55944  0.96758  0.81976  1.0000
  S   S1467     1.0  0.57443  0.95127  0.85066  1.0000
  H   H5841     1.0  0.70327  0.50488  0.97146  1.0000
  Fe  Fe736     1.0  0.77703  0.62252  0.94745  1.0000
  S   S1468     1.0  0.79425  0.60104  0.94157  1.0000
  Fe  Fe737     1.0  0.77444  0.63616  0.91347  1.0000
  S   S1469     1.0  0.79180  0.61571  0.90502  1.0000
  S   S1470     1.0  0.76325  0.65506  0.89535  1.0000
  Fe  Fe738     1.0  0.77908  0.60138  0.92613  1.0000
  S   S1471     1.0  0.77257  0.57938  0.92670  1.0000
  Fe  Fe739     1.0  0.80553  0.61735  0.92114  1.0000
  S   S1472     1.0  0.83185  0.61074  0.91581  1.0000
  S   S1473     1.0  0.76078  0.62150  0.93356  1.0000
  S   S1474     1.0  0.78940  0.63916  0.92801  1.0000
  H   H5842     1.0  0.56698  0.90458  0.81096  1.0000
  S   S1475     1.0  0.55288  0.86344  0.96539  1.0000
  Fe  Fe740     1.0  0.56633  0.82565  0.94890  1.0000
  S   S1476     1.0  0.55370  0.84819  0.93626  1.0000
  S   S1477     1.0  0.57466  0.80354  0.93983  1.0000
  Fe  Fe741     1.0  0.56939  0.85913  0.94276  1.0000
  S   S1478     1.0  0.58267  0.87521  0.92350  1.0000
  Fe  Fe742     1.0  0.53847  0.85027  0.95970  1.0000
  H   H5843     1.0  0.53751  0.56927  0.86199  1.0000
  S   S1479     1.0  0.58337  0.83622  0.95375  1.0000
  S   S1480     1.0  0.54982  0.82693  0.97190  1.0000
  Fe  Fe743     1.0  0.57408  0.78768  0.83285  1.0000
  S   S1481     1.0  0.55007  0.79779  0.84545  1.0000
  S   S1482     1.0  0.58468  0.79652  0.80758  1.0000
  Fe  Fe744     1.0  0.58112  0.76269  0.86116  1.0000
  S   S1483     1.0  0.55794  0.77129  0.87624  1.0000
  S   S1484     1.0  0.59527  0.73970  0.87179  1.0000
  Fe  Fe745     1.0  0.54799  0.77308  0.85594  1.0000
  S   S1485     1.0  0.52486  0.76617  0.86172  1.0000
  Fe  Fe746     1.0  0.56205  0.79519  0.86458  1.0000
  S   S1486     1.0  0.55342  0.81494  0.87709  1.0000
  S   S1487     1.0  0.57086  0.76294  0.84151  1.0000
  S   S1488     1.0  0.58639  0.78658  0.85140  1.0000
  Fe  Fe747     1.0  0.65982  0.65623  0.85889  1.0000
  S   S1489     1.0  0.66637  0.66930  0.83418  1.0000
  S   S1490     1.0  0.63969  0.64457  0.87121  1.0000
  Fe  Fe748     1.0  0.68771  0.66037  0.86819  1.0000
  S   S1491     1.0  0.69700  0.67384  0.84446  1.0000
  S   S1492     1.0  0.69576  0.65304  0.89067  1.0000
  Fe  Fe749     1.0  0.67167  0.68609  0.84490  1.0000
  S   S1493     1.0  0.66436  0.71241  0.83798  1.0000
  Fe  Fe750     1.0  0.69101  0.65609  0.83560  1.0000
  S   S1494     1.0  0.70729  0.64157  0.81888  1.0000
  S   S1495     1.0  0.66308  0.67408  0.86947  1.0000
  S   S1496     1.0  0.68385  0.64159  0.85943  1.0000
  Fe  Fe751     1.0  0.88306  0.64122  0.80325  1.0000
  S   S1497     1.0  0.86777  0.63056  0.82496  1.0000
  H   H5844     1.0  0.54999  0.91807  0.78335  1.0000
  Fe  Fe752     1.0  0.91164  0.63103  0.81775  1.0000
  S   S1498     1.0  0.89869  0.61916  0.84067  1.0000
  S   S1499     1.0  0.93653  0.63397  0.81240  1.0000
  Fe  Fe753     1.0  0.88841  0.61039  0.82594  1.0000
  S   S1500     1.0  0.88331  0.58643  0.83350  1.0000
  Fe  Fe754     1.0  0.87930  0.64035  0.83747  1.0000
  S   S1501     1.0  0.86499  0.65349  0.85597  1.0000
  S   S1502     1.0  0.90310  0.62032  0.80314  1.0000
  S   S1503     1.0  0.89289  0.65297  0.81559  1.0000
  H   H5845     1.0  0.54570  0.90007  0.78352  1.0000
  C   C3643     1.0  0.52166  0.94984  0.78222  1.0000
  H   H5846     1.0  0.54960  0.90904  0.82550  1.0000
  H   H5847     1.0  0.49743  0.79110  0.92361  1.0000
  N   N367      1.0  0.54595  0.90273  0.80600  1.0000
  S   S1504     1.0  0.51380  0.77071  0.94810  1.0000
  Fe  Fe755     1.0  0.50846  0.68638  0.87295  1.0000
  S   S1505     1.0  0.51003  0.67329  0.89727  1.0000
  S   S1506     1.0  0.52749  0.69795  0.85656  1.0000
  C   C3644     1.0  0.71833  0.48495  0.95243  1.0000
  S   S1507     1.0  0.51359  0.62981  0.90015  1.0000
  H   H5848     1.0  0.89734  0.53631  0.78163  1.0000
  C   C3645     1.0  0.57609  0.83887  0.77813  1.0000
  N   N368      1.0  0.97998  0.59669  0.80885  1.0000
  Fe  Fe756     1.0  0.59605  0.57888  0.88391  1.0000
  S   S1508     1.0  0.61904  0.56571  0.87250  1.0000
  S   S1509     1.0  0.59076  0.58529  0.90702  1.0000
  Fe  Fe757     1.0  0.58058  0.58204  0.85752  1.0000
  S   S1510     1.0  0.60239  0.56950  0.84340  1.0000
  S   S1511     1.0  0.55782  0.59242  0.84990  1.0000
  Fe  Fe758     1.0  0.60463  0.55293  0.86637  1.0000
  S   S1512     1.0  0.60916  0.52680  0.87282  1.0000
  Fe  Fe759     1.0  0.61462  0.58358  0.85090  1.0000
  S   S1513     1.0  0.63297  0.59686  0.83626  1.0000
  S   S1514     1.0  0.58198  0.56447  0.87989  1.0000
  S   S1515     1.0  0.59249  0.59760  0.86277  1.0000
  Fe  Fe760     1.0  0.70364  0.57560  0.90291  1.0000
  S   S1516     1.0  0.69315  0.57076  0.92837  1.0000
  S   S1517     1.0  0.71663  0.59490  0.89297  1.0000
  Fe  Fe761     1.0  0.69092  0.55094  0.89715  1.0000
  S   S1518     1.0  0.67938  0.54349  0.92229  1.0000
  S   S1519     1.0  0.68980  0.54394  0.87595  1.0000
  Fe  Fe762     1.0  0.67200  0.56920  0.92158  1.0000
  S   S1520     1.0  0.64865  0.58047  0.93434  1.0000
  H   H5849     1.0  0.52664  0.78983  0.91972  1.0000
  S   S1521     1.0  0.68164  0.57662  0.89607  1.0000
  S   S1522     1.0  0.71390  0.55054  0.90186  1.0000
  H   H5850     1.0  0.62888  0.52645  0.93939  1.0000
  H   H5851     1.0  0.49333  0.96727  0.80910  1.0000
  C   C3646     1.0  0.68169  0.52810  0.87764  1.0000
  H   H5852     1.0  0.54964  0.84781  0.81057  1.0000
  H   H5853     1.0  0.68052  0.53471  0.85344  1.0000
  C   C3647     1.0  0.60709  0.58481  0.91382  1.0000
  C   C3648     1.0  0.62231  0.58188  0.90471  1.0000
  C   C3649     1.0  0.63522  0.58057  0.91088  1.0000
  C   C3650     1.0  0.63285  0.58242  0.92609  1.0000
  C   C3651     1.0  0.61764  0.58585  0.93498  1.0000
  C   C3652     1.0  0.60479  0.58696  0.92889  1.0000
  H   H5854     1.0  0.62416  0.58059  0.89295  1.0000
  H   H5855     1.0  0.64695  0.57807  0.90390  1.0000
  H   H5856     1.0  0.61578  0.58733  0.94673  1.0000
  H   H5857     1.0  0.59305  0.58925  0.93598  1.0000
  C   C3653     1.0  0.51573  0.79720  0.88541  1.0000
  C   C3654     1.0  0.59115  0.49518  0.86435  1.0000
  C   C3655     1.0  0.59654  0.50353  0.87175  1.0000
  C   C3656     1.0  0.60107  0.51753  0.86358  1.0000
  C   C3657     1.0  0.59989  0.52335  0.84801  1.0000
  H   H5858     1.0  0.69202  0.49314  0.94088  1.0000
  C   C3658     1.0  0.57918  0.94095  0.79044  1.0000
  H   H5859     1.0  0.59726  0.49906  0.88386  1.0000
  H   H5860     1.0  0.60352  0.53409  0.84158  1.0000
  C   C3659     1.0  0.72019  0.66638  0.80047  1.0000
  C   C3660     1.0  0.52430  0.61878  0.88615  1.0000
  C   C3661     1.0  0.52363  0.62424  0.87042  1.0000
  C   C3662     1.0  0.53357  0.61584  0.85931  1.0000
  C   C3663     1.0  0.54445  0.60221  0.86388  1.0000
  C   C3664     1.0  0.54486  0.59662  0.87964  1.0000
  C   C3665     1.0  0.53458  0.60470  0.89076  1.0000
  H   H5861     1.0  0.51549  0.63489  0.86679  1.0000
  H   H5862     1.0  0.53314  0.62016  0.84714  1.0000
  H   H5863     1.0  0.55304  0.58606  0.88335  1.0000
  H   H5864     1.0  0.53492  0.60024  0.90295  1.0000
  N   N369      1.0  0.51325  0.79765  0.90194  1.0000
  H   H5865     1.0  0.67917  0.50019  0.95741  1.0000
  C   C3666     1.0  0.87927  0.57950  0.81925  1.0000
  C   C3667     1.0  0.88274  0.58656  0.80337  1.0000
  C   C3668     1.0  0.87958  0.58043  0.79233  1.0000
  C   C3669     1.0  0.87263  0.56749  0.79726  1.0000
  C   C3670     1.0  0.86899  0.56065  0.81313  1.0000
  C   C3671     1.0  0.87245  0.56652  0.82406  1.0000
  H   H5866     1.0  0.88799  0.59659  0.79957  1.0000
  H   H5867     1.0  0.86360  0.55068  0.81699  1.0000
  H   H5868     1.0  0.86979  0.56102  0.83630  1.0000
  H   H5869     1.0  0.50645  0.72037  0.80676  1.0000
  C   C3672     1.0  0.55182  0.90542  0.78892  1.0000
  H   H5870     1.0  0.62066  0.51353  0.93397  1.0000
  H   H5871     1.0  0.52407  0.90751  0.82241  1.0000
  H   H5872     1.0  0.87533  0.50594  0.78685  1.0000
  H   H5873     1.0  0.86648  0.62357  0.79475  1.0000
  H   H5874     1.0  0.50104  0.77887  0.91015  1.0000
  H   H5875     1.0  0.59676  0.83614  0.89772  1.0000
  C   C3673     1.0  0.94512  0.63305  0.82773  1.0000
  C   C3674     1.0  0.93977  0.62515  0.84294  1.0000
  C   C3675     1.0  0.94727  0.62417  0.85480  1.0000
  C   C3676     1.0  0.96009  0.63110  0.85152  1.0000
  C   C3677     1.0  0.96542  0.63896  0.83630  1.0000
  C   C3678     1.0  0.95799  0.63989  0.82445  1.0000
  H   H5876     1.0  0.93006  0.61958  0.84552  1.0000
  H   H5877     1.0  0.94318  0.61797  0.86654  1.0000
  H   H5878     1.0  0.97506  0.64464  0.83372  1.0000
  H   H5879     1.0  0.96216  0.64604  0.81271  1.0000
  H   H5880     1.0  0.51808  0.78501  0.88396  1.0000
  S   S1523     1.0  0.71410  0.52871  0.94510  1.0000
  H   H5881     1.0  0.73041  0.56768  0.96530  1.0000
  H   H5882     1.0  0.97409  0.60817  0.78665  1.0000
  H   H5883     1.0  0.91584  0.52291  0.78280  1.0000
  H   H5884     1.0  0.58058  0.79343  0.97106  1.0000
  C   C3679     1.0  0.59356  0.91412  0.79243  1.0000
  H   H5885     1.0  0.50399  0.71956  0.87354  1.0000
  H   H5886     1.0  0.79190  0.63850  0.96432  1.0000
  H   H5887     1.0  0.71143  0.67358  0.80776  1.0000
  C   C3680     1.0  0.63740  0.63181  0.86121  1.0000
  C   C3681     1.0  0.62905  0.62018  0.86935  1.0000
  C   C3682     1.0  0.62749  0.60959  0.86165  1.0000
  C   C3683     1.0  0.63408  0.61071  0.84573  1.0000
  C   C3684     1.0  0.64227  0.62248  0.83755  1.0000
  C   C3685     1.0  0.64402  0.63296  0.84530  1.0000
  H   H5888     1.0  0.62402  0.61915  0.88169  1.0000
  H   H5889     1.0  0.62144  0.60038  0.86813  1.0000
  H   H5890     1.0  0.64732  0.62346  0.82522  1.0000
  H   H5891     1.0  0.65041  0.64197  0.83893  1.0000
  C   C3686     1.0  0.61427  0.73255  0.86171  1.0000
  C   C3687     1.0  0.62417  0.74255  0.85267  1.0000
  C   C3688     1.0  0.63957  0.73632  0.84535  1.0000
  C   C3689     1.0  0.64498  0.72011  0.84688  1.0000
  C   C3690     1.0  0.63496  0.71020  0.85570  1.0000
  C   C3691     1.0  0.61973  0.71639  0.86324  1.0000
  H   H5892     1.0  0.62008  0.75503  0.85169  1.0000
  H   H5893     1.0  0.64732  0.74403  0.83861  1.0000
  H   H5894     1.0  0.63887  0.69774  0.85668  1.0000
  H   H5895     1.0  0.61213  0.70860  0.87022  1.0000
  C   C3692     1.0  0.52559  0.74742  0.85974  1.0000
  C   C3693     1.0  0.53862  0.73935  0.85059  1.0000
  C   C3694     1.0  0.53902  0.72423  0.84947  1.0000
  C   C3695     1.0  0.52658  0.71699  0.85785  1.0000
  C   C3696     1.0  0.51360  0.72504  0.86705  1.0000
  C   C3697     1.0  0.51300  0.74032  0.86778  1.0000
  H   H5896     1.0  0.54828  0.74484  0.84418  1.0000
  H   H5897     1.0  0.54905  0.71807  0.84227  1.0000
  H   H5898     1.0  0.99010  0.61367  0.79012  1.0000
  H   H5899     1.0  0.63536  0.95532  0.79418  1.0000
  S   S1524     1.0  0.86840  0.55944  0.78398  1.0000
  C   C3698     1.0  0.51313  0.82812  0.95755  1.0000
  H   H5900     1.0  0.53282  0.53659  0.86428  1.0000
  N   N370      1.0  0.68093  0.58504  0.84462  1.0000
  C   C3699     1.0  0.67819  0.52641  0.86436  1.0000
  H   H5901     1.0  0.91784  0.49447  0.78687  1.0000
  Fe  Fe763     1.0  0.56135  0.97517  0.84031  1.0000
  C   C3700     1.0  0.49632  0.72700  0.83517  1.0000
  C   C3701     1.0  0.58245  0.82317  0.78435  1.0000
  H   H5902     1.0  0.74541  0.59470  0.94634  1.0000
  C   C3702     1.0  0.56766  0.80533  0.92329  1.0000
  C   C3703     1.0  0.55439  0.81677  0.92023  1.0000
  C   C3704     1.0  0.55008  0.81962  0.90601  1.0000
  C   C3705     1.0  0.55866  0.81061  0.89506  1.0000
  C   C3706     1.0  0.57135  0.79849  0.89848  1.0000
  C   C3707     1.0  0.57592  0.79593  0.91257  1.0000
  H   H5903     1.0  0.54746  0.82348  0.92879  1.0000
  H   H5904     1.0  0.54010  0.82886  0.90352  1.0000
  H   H5905     1.0  0.57794  0.79143  0.89007  1.0000
  H   H5906     1.0  0.58613  0.78697  0.91497  1.0000
  C   C3708     1.0  0.84109  0.62308  0.89966  1.0000
  C   C3709     1.0  0.83299  0.63799  0.89359  1.0000
  C   C3710     1.0  0.84049  0.64742  0.88029  1.0000
  C   C3711     1.0  0.85588  0.64174  0.87277  1.0000
  C   C3712     1.0  0.86395  0.62681  0.87881  1.0000
  C   C3713     1.0  0.85667  0.61765  0.89245  1.0000
  H   H5907     1.0  0.82098  0.64228  0.89916  1.0000
  H   H5908     1.0  0.83424  0.65900  0.87567  1.0000
  H   H5909     1.0  0.87589  0.62244  0.87314  1.0000
  H   H5910     1.0  0.86300  0.60617  0.89722  1.0000
  C   C3714     1.0  0.75702  0.58383  0.91735  1.0000
  C   C3715     1.0  0.75235  0.59891  0.90871  1.0000
  C   C3716     1.0  0.73983  0.60238  0.90134  1.0000
  C   C3717     1.0  0.73191  0.59080  0.90268  1.0000
  C   C3718     1.0  0.73639  0.57584  0.91161  1.0000
  C   C3719     1.0  0.74900  0.57233  0.91885  1.0000
  H   H5911     1.0  0.75845  0.60789  0.90758  1.0000
  H   H5912     1.0  0.73626  0.61407  0.89477  1.0000
  H   H5913     1.0  0.73029  0.56686  0.91284  1.0000
  H   H5914     1.0  0.75251  0.56067  0.92559  1.0000
  C   C3720     1.0  0.74464  0.65423  0.89377  1.0000
  C   C3721     1.0  0.73532  0.64541  0.90580  1.0000
  C   C3722     1.0  0.72041  0.64514  0.90462  1.0000
  C   C3723     1.0  0.71471  0.65355  0.89131  1.0000
  C   C3724     1.0  0.72398  0.66234  0.87912  1.0000
  C   C3725     1.0  0.73890  0.66275  0.88042  1.0000
  H   H5915     1.0  0.73942  0.63903  0.91620  1.0000
  H   H5916     1.0  0.71330  0.63833  0.91409  1.0000
  H   H5917     1.0  0.71969  0.66884  0.86877  1.0000
  H   H5918     1.0  0.74605  0.66963  0.87107  1.0000
  H   H5919     1.0  0.82493  0.57567  0.96204  1.0000
  H   H5920     1.0  0.69498  0.50930  0.94635  1.0000
  H   H5921     1.0  0.52066  0.81926  0.89648  1.0000
  C   C3726     1.0  0.57702  0.81638  0.80003  1.0000
  C   C3727     1.0  0.56540  0.82546  0.80947  1.0000
  H   H5922     1.0  0.60983  0.95105  0.79313  1.0000
  C   C3728     1.0  0.50677  0.95614  0.79017  1.0000
  H   H5923     1.0  0.54497  0.88319  0.82559  1.0000
  H   H5924     1.0  0.56140  0.82056  0.82160  1.0000
  H   H5925     1.0  0.83826  0.58109  0.96981  1.0000
  C   C3729     1.0  0.55324  0.91853  0.89744  1.0000
  C   C3730     1.0  0.56939  0.91425  0.89170  1.0000
  C   C3731     1.0  0.57840  0.90110  0.89995  1.0000
  C   C3732     1.0  0.57125  0.89200  0.91375  1.0000
  C   C3733     1.0  0.55506  0.89609  0.91929  1.0000
  C   C3734     1.0  0.54612  0.90942  0.91124  1.0000
  H   H5926     1.0  0.57496  0.92129  0.88115  1.0000
  H   H5927     1.0  0.59094  0.89803  0.89568  1.0000
  H   H5928     1.0  0.54945  0.88914  0.92990  1.0000
  H   H5929     1.0  0.53363  0.91273  0.91573  1.0000
  C   C3735     1.0  0.51803  0.96200  0.80834  1.0000
  H   H5930     1.0  0.56677  0.52340  0.86556  1.0000
  H   H5931     1.0  0.63103  0.75967  0.78717  1.0000
  H   H5932     1.0  0.90218  0.49509  0.80391  1.0000
  H   H5933     1.0  0.61923  0.51746  0.90617  1.0000
  C   C3736     1.0  0.53302  0.95564  0.80047  1.0000
  H   H5934     1.0  0.56458  0.90028  0.78572  1.0000
  H   H5935     1.0  0.58974  0.76218  0.80908  1.0000
  C   C3737     1.0  0.68088  0.59974  0.84846  1.0000
  H   H5936     1.0  0.54320  0.95529  0.80447  1.0000
  C   C3738     1.0  0.58689  0.92725  0.79907  1.0000
  H   H5937     1.0  0.49604  0.69153  0.83031  1.0000
  C   C3739     1.0  0.75981  0.58072  0.97028  1.0000
  H   H5938     1.0  0.72581  0.59637  0.95766  1.0000
  H   H5939     1.0  0.59447  0.51897  0.82829  1.0000
  H   H5940     1.0  0.51281  0.69905  0.82903  1.0000
  C   C3740     1.0  0.61602  0.94595  0.82127  1.0000
  H   H5941     1.0  0.66893  0.51283  0.85475  1.0000
  H   H5942     1.0  0.68162  0.51842  0.90197  1.0000
  N   N371      1.0  0.57844  0.85474  0.88953  1.0000
  C   C3741     1.0  0.57763  0.84719  0.87752  1.0000
  C   C3742     1.0  0.58877  0.86595  0.88249  1.0000
  H   H5943     1.0  0.55109  0.56298  0.87447  1.0000
  C   C3743     1.0  0.56255  0.86311  0.89599  1.0000
  H   H5944     1.0  0.56977  0.83880  0.88244  1.0000
  H   H5945     1.0  0.58935  0.84053  0.87255  1.0000
  H   H5946     1.0  0.57301  0.85593  0.86777  1.0000
  C   C3744     1.0  0.62975  0.52063  0.92990  1.0000
  C   C3745     1.0  0.97859  0.61044  0.79577  1.0000
  H   H5947     1.0  0.51294  0.80596  0.95350  1.0000
  H   H5948     1.0  0.59244  0.95819  0.80628  1.0000
  Fe  Fe764     1.0  0.50084  0.75353  0.94730  1.0000
  H   H5949     1.0  0.87667  0.51419  0.80204  1.0000
  H   H5950     1.0  0.61040  0.55173  0.90690  1.0000
  H   H5951     1.0  0.55440  0.85503  0.90137  1.0000
  H   H5952     1.0  0.55745  0.87245  0.88688  1.0000
  S   S1525     1.0  0.96862  0.63065  0.86674  1.0000
  Fe  Fe765     1.0  0.70155  0.54561  0.92708  1.0000
  C   C3746     1.0  0.84818  0.62313  0.78430  1.0000
  H   H5953     1.0  0.66992  0.49638  0.90330  1.0000
  H   H5954     1.0  0.63986  0.54738  0.91906  1.0000
  H   H5955     1.0  0.79620  0.59991  0.97298  1.0000
  H   H5956     1.0  0.50533  0.80396  0.88051  1.0000
  S   S1526     1.0  0.50785  0.74462  0.92530  1.0000
  C   C3747     1.0  0.52897  0.90962  0.80963  1.0000
  H   H5957     1.0  0.74625  0.55664  0.97461  1.0000
  Fe  Fe766     1.0  0.56566  0.83959  0.97583  1.0000
  C   C3748     1.0  0.64029  0.54100  0.91016  1.0000
  H   H5958     1.0  0.49852  0.69668  0.84681  1.0000
  H   H5959     1.0  0.76786  0.57947  0.95885  1.0000
  H   H5960     1.0  0.58556  0.84802  0.91142  1.0000
  C   C3749     1.0  0.51053  0.81398  0.90336  1.0000
  C   C3750     1.0  0.60087  0.75914  0.80053  1.0000
  C   C3751     1.0  0.56411  0.84773  0.78754  1.0000
  C   C3752     1.0  0.82601  0.58410  0.96823  1.0000
  H   H5961     1.0  0.87398  0.52653  0.78357  1.0000
  H   H5962     1.0  0.57399  0.95113  0.79535  1.0000
  H   H5963     1.0  0.54637  0.94510  0.78106  1.0000
  H   H5964     1.0  0.62818  0.74020  0.79053  1.0000
  N   N372      1.0  0.73696  0.62157  0.85166  1.0000
  C   C3753     1.0  0.72854  0.63118  0.86331  1.0000
  C   C3754     1.0  0.75006  0.60973  0.85743  1.0000
  C   C3755     1.0  0.74312  0.63176  0.83683  1.0000
  C   C3756     1.0  0.72608  0.61365  0.84913  1.0000
  H   H5965     1.0  0.73667  0.63632  0.86641  1.0000
  H   H5966     1.0  0.72267  0.62419  0.87427  1.0000
  H   H5967     1.0  0.71926  0.64092  0.85895  1.0000
  H   H5968     1.0  0.75839  0.61526  0.85975  1.0000
  H   H5969     1.0  0.74573  0.60181  0.86855  1.0000
  H   H5970     1.0  0.75674  0.60234  0.84889  1.0000
  H   H5971     1.0  0.74941  0.62500  0.82765  1.0000
  H   H5972     1.0  0.75138  0.63791  0.83833  1.0000
  H   H5973     1.0  0.73349  0.64084  0.83222  1.0000
  H   H5974     1.0  0.71556  0.62217  0.84580  1.0000
  H   H5975     1.0  0.72190  0.60524  0.85987  1.0000
  H   H5976     1.0  0.73174  0.60712  0.83968  1.0000
  N   N373      1.0  0.68509  0.71115  0.87433  1.0000
  C   C3757     1.0  0.66803  0.71378  0.87576  1.0000
  C   C3758     1.0  0.69310  0.71329  0.85769  1.0000
  C   C3759     1.0  0.69103  0.69508  0.88257  1.0000
  C   C3760     1.0  0.68824  0.72244  0.88128  1.0000
  H   H5977     1.0  0.66525  0.70528  0.87087  1.0000
  H   H5978     1.0  0.66320  0.72563  0.86927  1.0000
  H   H5979     1.0  0.66154  0.71252  0.88813  1.0000
  H   H5980     1.0  0.68869  0.72517  0.85098  1.0000
  H   H5981     1.0  0.70599  0.71150  0.85612  1.0000
  H   H5982     1.0  0.69106  0.70487  0.85212  1.0000
  H   H5983     1.0  0.70382  0.69274  0.88201  1.0000
  H   H5984     1.0  0.68915  0.68627  0.87739  1.0000
  H   H5985     1.0  0.68504  0.69282  0.89510  1.0000
  H   H5986     1.0  0.70103  0.72079  0.88036  1.0000
  H   H5987     1.0  0.68243  0.72109  0.89386  1.0000
  H   H5988     1.0  0.68388  0.73469  0.87533  1.0000
  N   N374      1.0  0.56476  0.63091  0.89172  1.0000
  C   C3761     1.0  0.56002  0.63242  0.87709  1.0000
  C   C3762     1.0  0.58205  0.62715  0.88903  1.0000
  C   C3763     1.0  0.55852  0.61829  0.90383  1.0000
  C   C3764     1.0  0.55837  0.64578  0.89698  1.0000
  H   H5989     1.0  0.56510  0.64132  0.86746  1.0000
  H   H5990     1.0  0.54706  0.63596  0.87858  1.0000
  H   H5991     1.0  0.56385  0.62118  0.87319  1.0000
  H   H5992     1.0  0.58604  0.62587  0.89985  1.0000
  H   H5993     1.0  0.58718  0.61588  0.88529  1.0000
  H   H5994     1.0  0.58727  0.63627  0.87983  1.0000
  H   H5995     1.0  0.56264  0.61613  0.91475  1.0000
  H   H5996     1.0  0.56237  0.60706  0.89989  1.0000
  H   H5997     1.0  0.54548  0.62113  0.90680  1.0000
  H   H5998     1.0  0.56166  0.64504  0.90803  1.0000
  H   H5999     1.0  0.54531  0.64885  0.89915  1.0000
  H   H6000     1.0  0.56275  0.65558  0.88807  1.0000
  C   C3765     1.0  0.55383  0.78360  0.97598  1.0000
  C   C3766     1.0  0.66866  0.50315  0.87907  1.0000
  C   C3767     1.0  0.67166  0.51401  0.86508  1.0000
  C   C3768     1.0  0.60500  0.97359  0.81882  1.0000
  C   C3769     1.0  0.66873  0.57761  0.85622  1.0000
  H   H6001     1.0  0.76096  0.59146  0.97297  1.0000
  C   C3770     1.0  0.72065  0.65042  0.80336  1.0000
  H   H6002     1.0  0.62327  0.94583  0.82929  1.0000
  S   S1527     1.0  0.50289  0.66693  0.86645  1.0000
  N   N375      1.0  0.66298  0.62307  0.90947  1.0000
  C   C3771     1.0  0.65869  0.64015  0.90378  1.0000
  C   C3772     1.0  0.65559  0.61539  0.90208  1.0000
  C   C3773     1.0  0.65745  0.61910  0.92657  1.0000
  C   C3774     1.0  0.68019  0.61767  0.90542  1.0000
  H   H6003     1.0  0.66424  0.64639  0.90887  1.0000
  H   H6004     1.0  0.64578  0.64464  0.90659  1.0000
  H   H6005     1.0  0.66263  0.64340  0.89092  1.0000
  H   H6006     1.0  0.65809  0.60255  0.90652  1.0000
  H   H6007     1.0  0.64262  0.61955  0.90449  1.0000
  H   H6008     1.0  0.65986  0.61777  0.88920  1.0000
  H   H6009     1.0  0.66123  0.60637  0.93131  1.0000
  H   H6010     1.0  0.64444  0.62215  0.93005  1.0000
  H   H6011     1.0  0.66224  0.62530  0.93244  1.0000
  H   H6012     1.0  0.68386  0.60483  0.90954  1.0000
  H   H6013     1.0  0.68619  0.62327  0.91072  1.0000
  H   H6014     1.0  0.68488  0.62046  0.89261  1.0000
  H   H6015     1.0  0.68374  0.59754  0.86004  1.0000
  C   C3775     1.0  0.67218  0.50476  0.89244  1.0000
  H   H6016     1.0  0.62192  0.93619  0.81514  1.0000
  H   H6017     1.0  0.56902  0.53636  0.87592  1.0000
  H   H6018     1.0  0.52468  0.82417  0.95999  1.0000
  H   H6019     1.0  0.49408  0.72404  0.84812  1.0000
  C   C3776     1.0  0.62878  0.52392  0.90303  1.0000
  H   H6020     1.0  0.60190  0.97178  0.79097  1.0000
  H   H6021     1.0  0.57292  0.55651  0.85225  1.0000
  C   C3777     1.0  0.56450  0.55287  0.84795  1.0000
  H   H6022     1.0  0.62787  0.53216  0.89165  1.0000
  H   H6023     1.0  0.60220  0.77008  0.79157  1.0000
  H   H6024     1.0  0.55178  0.52843  0.88189  1.0000
  C   C3778     1.0  0.58480  0.84272  0.90214  1.0000
  C   C3779     1.0  0.71186  0.53632  0.96142  1.0000
  C   C3780     1.0  0.55427  0.91008  0.81275  1.0000
  C   C3781     1.0  0.69905  0.54830  0.96527  1.0000
  H   H6025     1.0  0.52239  0.90473  0.80427  1.0000
  H   H6026     1.0  0.98676  0.58005  0.79431  1.0000
  C   C3782     1.0  0.74284  0.64789  0.78133  1.0000
  S   S1528     1.0  0.53781  0.97128  0.85433  1.0000
  C   C3783     1.0  0.50647  0.81779  0.95388  1.0000
  H   H6027     1.0  0.68952  0.60600  0.83962  1.0000
  H   H6028     1.0  0.73235  0.62887  0.79592  1.0000
  H   H6029     1.0  0.93568  0.57629  0.77899  1.0000
  N   N376      1.0  0.61435  0.75289  0.80815  1.0000
  N   N377      1.0  0.61346  0.96116  0.81014  1.0000
  H   H6030     1.0  0.57136  0.54407  0.84090  1.0000
  C   C3784     1.0  0.85865  0.63021  0.78709  1.0000
  H   H6031     1.0  0.61122  0.54962  0.92671  1.0000
  H   H6032     1.0  0.59964  0.90350  0.79899  1.0000
  H   H6033     1.0  0.58403  0.87560  0.87338  1.0000
  H   H6034     1.0  0.63926  0.74433  0.80174  1.0000
  N   N378      1.0  0.74347  0.58157  0.96993  1.0000
  H   H6035     1.0  0.53809  0.79177  0.90032  1.0000
  H   H6036     1.0  0.60522  0.76762  0.82477  1.0000
  C   C3785     1.0  0.50494  0.96238  0.80306  1.0000
  C   C3786     1.0  0.59482  0.51477  0.84049  1.0000
  H   H6037     1.0  0.59344  0.97141  0.82593  1.0000
  H   H6038     1.0  0.79669  0.57970  0.97476  1.0000
  H   H6039     1.0  0.83090  0.56748  0.77843  1.0000
  S   S1529     1.0  0.87274  0.65454  0.78252  1.0000
  C   C3787     1.0  0.67873  0.51726  0.89172  1.0000
  H   H6040     1.0  0.55314  0.92276  0.80731  1.0000
  C   C3788     1.0  0.96445  0.59282  0.81585  1.0000
  C   C3789     1.0  0.67768  0.58840  0.82894  1.0000
  H   H6041     1.0  0.58724  0.48468  0.87094  1.0000
  C   C3790     1.0  0.50001  0.70016  0.83398  1.0000
  H   H6042     1.0  0.97760  0.61004  0.82569  1.0000
  H   H6043     1.0  0.50286  0.74658  0.87479  1.0000
  C   C3791     1.0  0.55883  0.84101  0.80321  1.0000
  H   H6044     1.0  0.84791  0.61108  0.78994  1.0000
  C   C3792     1.0  0.49233  0.71442  0.91172  1.0000
  C   C3793     1.0  0.59076  0.50048  0.84858  1.0000
  H   H6045     1.0  0.67062  0.57512  0.86822  1.0000
  C   C3794     1.0  0.54875  0.88574  0.81267  1.0000
  H   H6046     1.0  0.64468  0.49543  0.85536  1.0000
  C   C3795     1.0  0.73097  0.67310  0.78790  1.0000
  C   C3796     1.0  0.60404  0.96056  0.79962  1.0000
  C   C3797     1.0  0.63935  0.49201  0.84761  1.0000
  H   H6047     1.0  0.66919  0.60781  0.84893  1.0000
  N   N379      1.0  0.89722  0.51237  0.78348  1.0000
  C   C3798     1.0  0.58112  0.78067  0.97549  1.0000
  H   H6048     1.0  0.69942  0.57183  0.85646  1.0000
  C   C3799     1.0  0.70013  0.49327  0.97494  1.0000
  H   H6049     1.0  0.54856  0.53216  0.84814  1.0000
  H   H6050     1.0  0.58452  0.77540  0.96510  1.0000
  S   S1530     1.0  0.51531  0.96930  0.82491  1.0000
  C   C3800     1.0  0.54341  0.55884  0.86966  1.0000
  C   C3801     1.0  0.69645  0.57438  0.84487  1.0000
  Fe  Fe767     1.0  0.50220  0.65480  0.89144  1.0000
  H   H6051     1.0  0.61704  0.77590  0.80691  1.0000
  H   H6052     1.0  0.62224  0.73312  0.82555  1.0000
  H   H6053     1.0  0.90099  0.48733  0.78832  1.0000
  C   C3802     1.0  0.69159  0.49784  0.95102  1.0000
  S   S1531     1.0  0.66031  0.48786  0.87947  1.0000
  C   C3803     1.0  0.52727  0.78826  0.90793  1.0000
  H   H6054     1.0  0.69002  0.55247  0.95865  1.0000
  H   H6055     1.0  0.70589  0.57941  0.83598  1.0000
  Fe  Fe768     1.0  0.51163  0.75898  0.97323  1.0000
  N   N380      1.0  0.54943  0.72066  0.89834  1.0000
  C   C3804     1.0  0.54394  0.71582  0.91538  1.0000
  C   C3805     1.0  0.54472  0.71119  0.89044  1.0000
  C   C3806     1.0  0.56668  0.71835  0.89440  1.0000
  C   C3807     1.0  0.54242  0.73734  0.89307  1.0000
  H   H6056     1.0  0.54656  0.72327  0.92169  1.0000
  H   H6057     1.0  0.54947  0.70348  0.91988  1.0000
  H   H6058     1.0  0.53105  0.71684  0.91864  1.0000
  H   H6059     1.0  0.54893  0.71438  0.87759  1.0000
  H   H6060     1.0  0.54956  0.69851  0.89432  1.0000
  H   H6061     1.0  0.53174  0.71296  0.89284  1.0000
  H   H6062     1.0  0.57120  0.72169  0.88159  1.0000
  H   H6063     1.0  0.57249  0.70597  0.89838  1.0000
  H   H6064     1.0  0.57064  0.72568  0.89980  1.0000
  H   H6065     1.0  0.54675  0.74150  0.88035  1.0000
  H   H6066     1.0  0.54519  0.74478  0.89925  1.0000
  H   H6067     1.0  0.52945  0.73958  0.89527  1.0000
  C   C3808     1.0  0.56035  0.53312  0.87157  1.0000
  H   H6068     1.0  0.61008  0.72965  0.81509  1.0000
  H   H6069     1.0  0.97027  0.62078  0.79977  1.0000
  C   C3809     1.0  0.74256  0.56732  0.96588  1.0000
  C   C3810     1.0  0.53482  0.94978  0.78727  1.0000
  C   C3811     1.0  0.90486  0.49664  0.79103  1.0000
  H   H6070     1.0  0.68666  0.59395  0.81983  1.0000
  C   C3812     1.0  0.61579  0.76474  0.81554  1.0000
  H   H6071     1.0  0.61167  0.97442  0.82695  1.0000
  H   H6072     1.0  0.53424  0.55458  0.87958  1.0000
  H   H6073     1.0  0.49658  0.95607  0.78661  1.0000
  H   H6074     1.0  0.53595  0.55132  0.84669  1.0000
  H   H6075     1.0  0.69675  0.56293  0.84258  1.0000
  H   H6076     1.0  0.50600  0.73183  0.90101  1.0000
  H   H6077     1.0  0.62699  0.49861  0.84905  1.0000
  H   H6078     1.0  0.62612  0.76067  0.82097  1.0000
  H   H6079     1.0  0.60474  0.94318  0.82860  1.0000
  H   H6080     1.0  0.59001  0.87139  0.89143  1.0000
  H   H6081     1.0  0.73875  0.60636  0.96081  1.0000
  H   H6082     1.0  0.64543  0.49609  0.83540  1.0000
  N   N381      1.0  0.90607  0.66232  0.86175  1.0000
  C   C3813     1.0  0.89143  0.66100  0.87366  1.0000
  C   C3814     1.0  0.90615  0.65595  0.84856  1.0000
  C   C3815     1.0  0.91968  0.65342  0.86865  1.0000
  C   C3816     1.0  0.90699  0.67890  0.85609  1.0000
  H   H6083     1.0  0.89115  0.66514  0.88409  1.0000
  H   H6084     1.0  0.88996  0.64871  0.87761  1.0000
  H   H6085     1.0  0.88094  0.66803  0.86898  1.0000
  H   H6086     1.0  0.91700  0.65671  0.83927  1.0000
  H   H6087     1.0  0.90542  0.64346  0.85240  1.0000
  H   H6088     1.0  0.89595  0.66236  0.84317  1.0000
  H   H6089     1.0  0.91940  0.64082  0.87294  1.0000
  H   H6090     1.0  0.92003  0.65785  0.87867  1.0000
  H   H6091     1.0  0.93093  0.65421  0.85997  1.0000
  H   H6092     1.0  0.91792  0.68026  0.84708  1.0000
  H   H6093     1.0  0.90690  0.68413  0.86575  1.0000
  H   H6094     1.0  0.89692  0.68591  0.85073  1.0000
  H   H6095     1.0  0.55632  0.77709  0.96661  1.0000
  H   H6096     1.0  0.52650  0.92247  0.80511  1.0000
  H   H6097     1.0  0.66610  0.59649  0.82830  1.0000
  S   S1532     1.0  0.51233  0.85649  0.96343  1.0000
  N   N382      1.0  0.83923  0.60247  0.86091  1.0000
  C   C3817     1.0  0.85445  0.59658  0.86562  1.0000
  C   C3818     1.0  0.83360  0.61925  0.86113  1.0000
  C   C3819     1.0  0.82771  0.59376  0.87195  1.0000
  C   C3820     1.0  0.84117  0.60028  0.84502  1.0000
  H   H6098     1.0  0.86318  0.60353  0.85814  1.0000
  H   H6099     1.0  0.85958  0.58424  0.86459  1.0000
  H   H6100     1.0  0.85323  0.59709  0.87789  1.0000
  H   H6101     1.0  0.82240  0.62427  0.85715  1.0000
  H   H6102     1.0  0.83149  0.62119  0.87308  1.0000
  H   H6103     1.0  0.84226  0.62618  0.85349  1.0000
  H   H6104     1.0  0.83162  0.58103  0.87218  1.0000
  H   H6105     1.0  0.81606  0.59792  0.86880  1.0000
  H   H6106     1.0  0.82598  0.59524  0.88406  1.0000
  H   H6107     1.0  0.83000  0.60471  0.84095  1.0000
  H   H6108     1.0  0.84548  0.58774  0.84443  1.0000
  H   H6109     1.0  0.84996  0.60652  0.83646  1.0000
  H   H6110     1.0  0.52872  0.77558  0.90865  1.0000
  C   C3821     1.0  0.49947  0.79114  0.91107  1.0000
  C   C3822     1.0  0.62885  0.74911  0.79636  1.0000
  H   H6111     1.0  0.59941  0.75061  0.79472  1.0000
  H   H6112     1.0  0.63930  0.54970  0.89904  1.0000
  H   H6113     1.0  0.65208  0.53314  0.90822  1.0000
  H   H6114     1.0  0.60262  0.53668  0.92173  1.0000
  H   H6115     1.0  0.64141  0.51238  0.92846  1.0000
  H   H6116     1.0  0.55318  0.79605  0.97012  1.0000
  H   H6117     1.0  0.60074  0.86015  0.87711  1.0000
  N   N383      1.0  0.55255  0.54657  0.86100  1.0000
  H   H6118     1.0  0.67738  0.57757  0.82582  1.0000
  H   H6119     1.0  0.55908  0.56336  0.84000  1.0000
  H   H6120     1.0  0.65683  0.58515  0.85612  1.0000
  H   H6121     1.0  0.66866  0.56630  0.85389  1.0000
  C   C3823     1.0  0.49849  0.73009  0.92575  1.0000
  C   C3824     1.0  0.73200  0.64120  0.79380  1.0000
  H   H6122     1.0  0.56139  0.88005  0.80956  1.0000
  C   C3825     1.0  0.61194  0.73858  0.82012  1.0000
  C   C3826     1.0  0.49381  0.72077  0.81212  1.0000
  C   C3827     1.0  0.54198  0.54144  0.85476  1.0000
  H   H6123     1.0  0.57729  0.83410  0.90780  1.0000
  C   C3828     1.0  0.59212  0.91459  0.77740  1.0000
  C   C3829     1.0  0.73811  0.59539  0.95819  1.0000
  H   H6124     1.0  0.56272  0.86886  0.90516  1.0000
  N   N384      1.0  0.70187  0.48692  0.96120  1.0000
  H   H6125     1.0  0.50915  0.72633  0.83085  1.0000
  H   H6126     1.0  0.52593  0.80222  0.87812  1.0000
  H   H6127     1.0  0.90019  0.52368  0.79986  1.0000
  C   C3830     1.0  0.78927  0.63446  0.97686  1.0000
  S   S1533     1.0  0.76663  0.62200  0.97306  1.0000
  H   H6128     1.0  0.54228  0.87992  0.80811  1.0000
  H   H6129     1.0  0.72212  0.49625  0.94843  1.0000
  S   S1534     1.0  0.55527  0.86714  0.78004  1.0000
  H   H6130     1.0  0.73051  0.68547  0.78561  1.0000
  C   C3831     1.0  0.72298  0.53035  0.97071  1.0000
  C   C3832     1.0  0.50469  0.84341  0.95825  1.0000
  S   S1535     1.0  0.50089  0.74017  0.97195  1.0000
  H   H6131     1.0  0.98741  0.59000  0.83060  1.0000
  S   S1536     1.0  0.58569  0.48921  0.83873  1.0000
  H   H6132     1.0  0.63613  0.96502  0.80846  1.0000
  C   C3833     1.0  0.90294  0.52430  0.78710  1.0000
  H   H6133     1.0  0.50873  0.81472  0.91572  1.0000
  H   H6134     1.0  0.60158  0.74112  0.82969  1.0000
  H   H6135     1.0  0.75023  0.56591  0.95430  1.0000
  H   H6136     1.0  0.49322  0.71136  0.90090  1.0000
  C   C3834     1.0  0.99104  0.58326  0.80300  1.0000
  H   H6137     1.0  0.73283  0.52096  0.96790  1.0000
  C   C3835     1.0  0.49963  0.72596  0.91181  1.0000
  C   C3836     1.0  0.85913  0.64575  0.77976  1.0000
  H   H6138     1.0  0.95580  0.60267  0.82044  1.0000
  H   H6139     1.0  0.96503  0.58242  0.82565  1.0000
  C   C3837     1.0  0.62872  0.96450  0.80087  1.0000
  C   C3838     1.0  0.98584  0.60022  0.82072  1.0000
  H   H6140     1.0  0.88233  0.58584  0.78008  1.0000
  H   H6141     1.0  0.95961  0.59033  0.80709  1.0000
  H   H6142     1.0  0.82419  0.59587  0.96029  1.0000
  C   C3839     1.0  0.88005  0.51481  0.78926  1.0000
  C   C3840     1.0  0.74235  0.66386  0.77833  1.0000
  H   H6143     1.0  0.62718  0.97590  0.79237  1.0000
  H   H6144     1.0  0.49993  0.82138  0.89914  1.0000
