data_image0
_chemical_formula_structural       HFeCHC3HCHFeH3CS2HCH4C2HC3HCH2CSNCHNH2CHSHSHCH2SFeHCFeCNHFeC3HCHSH2C2HNH3CH2CH3CH2CHC2FeCFe2SCHCH2CH5CH2CHC3SH3NH3SCH2CHCHCS2CSHCS2CH4CH2C3HCH4CH2CH9C2SHFeHCH2CH3CHCHC3HC4HCSCSHCS2HSHCHCH2FeH3CH5CH2NSHFeCH3FeSCHCH3SCNHS2H5C3SHCHFeCFeCSH2C3NCSH2C2H2CH3NCSH2CHFeH2FeH4FeHCH2C2HCHCSHSHCHC2H3FeHCHNC3HSCSHC2SCH6SHCH2CH2CHCHCHCHCFeH3CNHNSNCNCHCNCFeH3C2SHFeHFeS2Fe2SH4FeNSCSCSFeS2FeS2FeSFeS3HC6H3C6H5SC2H3C6H4CH3C2HCH3CH3C3HC5H3SH3C2HC2FeCHCHSHCS2HCHFeCH3CH11SHC2SH6CHC2FeHC2HFeCHNH2SC2HCH2CHNHCSH8CH4CH2CHCHFeHSH8S2CHNSH2SFeHCSH2C6H2C3H2C2HCHCH4CHSC2H4SCHCH4C2H3CH2NHCH3C2H2S4C2HSH2CHCSHSCSHCSFeCH2CHCH2C2H2NCHCH3SC3H2CH2SH2C2NHNHCHC2H3CHCH2SH3FeSCHCHC3HSC2SH2CHCH2NFeHCHFeHSH2CH3FeHSH5CH2C2H2NH2SCNC2H10SCHNHCSH2SFeS2FeS2FeSFeS2FeCSC2SH2CH2CHC6HSH3CSH2C6H4CHC8H2CHCHCH3CNH2NC2NC2HSH2CFeH4CHCHFeHFeH3CSCHCS2H5CSH2CHCH3NHFeH7CHC2H4CFe2C3HSHCSFeS2FeHSFeSFeHS2HFeH5CHC2HCH2FeHCH6NHCSCFeCH4CSH3CHC3FeSCH3C2HSCH3C2SHSHNHCH2SFeCHCH2CS2H3SCH3FeHCHC3FeH3CH3C2H2FeH6SCH4CH2CH2SFeH3SHCSCH2CSNFeHS2FeHSHC3H3FeSC4SCH3SHFeC2H2C2H2CH2CHNH3C2H2CH3C2H2CH2CHSH6SFeCHCNSHC2FeS2HC2H2SHSH3FeNFeH3CHC6H5CSHCFeH3C2H3SCHCH3SH5CHSH3CSCH2C2HFeCHSC3HFeC2H3C3HC2H2C2H2CHC2H3CNHSCH3CH5CSCH3CHFeCH3CSCNSH2CHNCHFe2H2CFeC5S2C2H3C2S3H3CH2FeCHSFeCH2NS3HCH3CH3C2SC2HSH2CH2FeNH2SFeSC2S2CHSC3H8C2HNHCHCH2CHNHC2H2CHSH3C2SC2HCFeCFeCSNH2FeH5CHCH2C2H2FeS2FeSFeS4CSH2C2H3C2H2C3H2CHC4H2C8H2NFeH2SH4C3SH5NH2FeSCH5CH3FeHSC2H4C2NCHSHC2H2NCSFe2CH2C2H2CH5CHCS2CH2FeH2SH5CH2CH3SH2CHCHCHS2CFeCSHCHNC5H2CFeHSH2FeSFeS2Fe2S3FeS2FeH2FeHSCFeHC2H2SHC2SFeHNC2SH4SFeC6H4CHC6H4C4HCH2SHCNC4H2SHCH5CHSHSHSH3CHCH2CH4FeSH3CH2CNCH2CH3CH2SCH2C2H6NCHCH2NHCHS2H3FeCH3C2FeNCH2C2NHCH3C3HC2SHSHCH2SH4CH2SH5CFeCHCSH3C2HS2NH3CH2CHCSCHC2H4SHCFeHC2HCFeH8FeH2SCHCHCHCHC3NHC4HCH5CHNCHSH9CHC2H2CH6S2NHFeHFeSCH2CNFeHC2SH6CSHSCFeSFeHCNCH2C2H6CHSFeCFeC2H5SHC3NC3H9SH6C2H2S3CHSCHSCHFeSHCSHC3HSHC4FeC2HCFeH2SC2HCH8CHSHNCNH2C3H3C4HCHCH2SHSH2C2H3FeS3C4H2CS2CH4CH3SFeSH4SHCHFe4HC2H2CHSH4CH3C3H3CH5CNH2CHCHNHCFeC2S2H2SHFeSFeSCHS2HC3SH2SC3S2Fe2SHCHNH2CSH3SH3CH2CHCFeHCH2CFeHSH2SFeH2FeHSCHCH3C2HSHC3H5C2SHC2HSH3SC5HC2HCNC4H5NCH7NC5FeH6FeCSCFeHS2CNCH3FeS2FeSFeSFeS4FeS2FeS2CSHFeS3H2C2H2CNH3CSH6SHC2H3CH2C6H4C6H4C7H4C4FeH2S2CH2C3H4CSH2C2NH2C3H2CH3C2HSHC3H3SHCH13CH3SH4CFeNHSH3NH2C2SH2SNC4HSH8CHCFe2H2CHFeHCH2SCHCH3SNC2NCH4FeSCHCH2CH4C3HCH2CHCH3CFeC2SH2FeC2FeH5CHFeCFeH12NCH2FeS2FeS2FeSFeS3FeSHFe2S2FeSCFeS2HFeS2HSHFe2CHS2C3SHCFeH3SCHCH2C6H6C6H4C6H4C6H5FeN2C7H3CSHSCHCSHSNH2CH3NHCHCFeCSHFeCHSHC6H6NCSHS2H4C2H4C4HC2HC2FeS2H2CFeHC2H2CFeHNH3CH3SCNCH3CHC3SHSHCHCSH3C2H3FeCH4FeHS2NSCNH4CFeSH2CHC2H2CH3CH2CH2FeH4CSHCHCH3CH2NH2C2SH2FeH3FeH3CH2SH2SHCHCH4SH2SCHCHCH3SH4SCHFeCHCH10CH3CFeH2SC4SH3CNSHSH8C4H3CH4C2HSC2H6CHSH5SNSHC5HSHFeH2FeS2CSFeCS2HNS2CSH2C3HSFe2SFe2SHS2HSHFe2C2HSHSCSFeHCH2NHCHC2SCH2CHSC2H2CH4CSCHC3HCHC6H4C6H4CHCNC4H12CHS2CSHCFeHSFeH2CNHNC4H13FeCH2SC3SCFeH3CHCH2CHCHNCSC2H2CH8CH3SH2CH3C3H2C2FeCH2NCH2CHC3NH2CHSCH5NH4CH5SCH2CH2SHC2FeCNHCHSCH3FeSCH2C2H3CH2SHCHFeC3H3SC2Fe2CHSH2NHSHCHCHCH2SHCHFeCHCFeH2CHFeC2SH4FeS2H2CH2CH2CH2SCSFeS2FeSFeS3CNH2C3SH4CH3FeC6H5C2HCH3C3SHCSH2C3H2C2HCFeCHNHCSCH2CH3CSNHFeHCSHC2H2CSHC4H2SCH4CNSCSCHC2HSHCH7C2HCHFeCHCHC2SFeCHCFeH3SHSH2S2H3SCH5C3FeH3SFeS2FeSNH3CSNC3FeH4C4H2CH2C2HCH4CSFeS2FeCNH4C2H5S2CH2SC2S2HC2HS2FeHCHFeHSH4CH5CH2SH4CNH2CH2C5HSH2FeSFeCSCHSH3CH4CH3C3H2NHFeC2HNHCH6S2H2C3H2CH3CHCH2SH3C2SHCH3CH4FeSH2FeSFeS2FeS2Fe2S5CHFeSFeH3C4H3C6H4C5HS2CH5NH6C2NC4H4SCHCH5SHC2HFeC2H2SCFeCH4C2S2H4CH3CNH2SCHC2NSCH4C3H3CHCH5NH3C3FeH2CSCFeH3SH3C2HC2HFeSC2FeS2FeS2Fe2S2FeS2CFeS2HC2HCH2SC3SHCH3CHNHFeC6H5CFeNC6H5C4H4CHSCH7SH2FeSH2CH7S3H3CHC2H4CFeH2NHNH3CH2NCH7CH2CH5CSFeSCH2SH2C2H2NFeC5H2CHC2HC2H2CHC2H10CHFeHCHCHC3H2SC2HSCFeH2CH2SHFeHC5FeH2CHSCH2SCHSNCH2C3HC3H4NHS3H2CSHSCFeCFeCS3CHCNHCSH7CH3CSCH3CH2CH5C2SHCH2CH2CNH3C5H2SHCHNH3SHCHFeC2H3SHC2SHCFeHCHCSHFeC4FeCS3H5SH2CH6FeHCSH2C2H2CHCSH2C2H3CH3C2HSC2HCHSCH3CFeH2CSCH3FeSCSH5S2H3FeH2NHC5H2CHNSCS2HCH5NCH3FeH3CH3CH2CFeSHCHCHCH4FeHS2CHFeCSH2C2H6FeCSFe2SH2CS2CFeH2C3H2NC6H6NH6CSHCH3C2HCHNHCH4CH3CNHC2HC2H2S2H4CHSH2CSH2C2HCH2SFeC2H5FeCH2CSHFeS2FeSFe2SFeS3HFeS2H3SH3C6H4CH5C2H3CHC6H4CSNSCSH2FeCHC4H7C3FeSHCSCHFeH3S2HNC4H11SHCHCSH3CHSH3CFeCH2CNHC3FeNC2HCHSH3CHCHNSHCH2CH2CHCH4CHSCH2SFeHSFeS2HFeS2HCFe2SHS2HC3H8SHSH2C2SHS2CSC6H3C2FeSC2FeHCHC3HCH7CHCH5NHCH2C2H2CHSH5CH2CSCHNHSCNCH3C2SFeCHS2CHCH2FeSCFeHFeNS2FeCFeHCHFeC3SH2FeHCHCHFeHCHSHCH3CHSH2NCFeH2CH3C2H5CH3CHNCS2CHCH3C2H2C2H5CH3SCSHCH2CSFeH3C3H3CS3FeC4FeHFeH2CSFeHC2H4CHC2H4CNH4NCHSCFeS2CH2C2H2NFeH5CHCH3SCH2SFeH4CS2FeC2HCH3C2HCS2HSHNHC2H3SHC3H3CSHCHCHNFe2H2CH4C2H2SCHFeHFeHSH4CH2CHCSHC2H2SNHCHCS3H2CNC4H3CH2CHFeH2NHNCHSFeSH4CH3CHSFeHCH3C2SHNHCSCH3NHC3SC2H2CSFeCSHFeSCSFeSHFeSFe2SHSC6H3SC6H4C2FeSH2C2S2H2C2HC3SH2C2H2CH3NH4Fe2HNSCHC2HNCH2CFeCHCH3CH3FeSH2SC4SH2SH4C2HCH7S2HSHC2HC2H4FeCHC4H2SNH4CHCFeHCHCH3CH6C2H3SCSCHFeHSCFe2SH2SH2FeHSH5C2HC4HSHCH2NS2HFeCH2NCH2CHCH3CH3CHC2HCS2NCHC2HCSCH3CHCHCH5CSHCSHCHCSHFeCH2C2H4SCH2CH4SH2CH5C2SH3FeCH2C2S2C2SCH4C2FeCFeCHNSC5H4FeSHFeHSH2SNCNH2CH2SHFeHCH2CHC2HCHCNH3C7H2FeH4CHFeCHCNCH7C2H4C2SHSH3C2SCH2SH5SH2C2NH7CHCHC2H2SH2C2HC2H3CH3C2HCHCH3CHCH2SC3H2FeC2HC2HSCHC3H3CHCNHCH2CHCH5FeCFeHSCSH3SH3CFeC2HCH2CHNHCHSFeH2CHCHCHCHCHCSCH2C3H4FeS2CNSCH3FeS2FeSCSFeS2HFe2S3H3SC4SH3CH4NFeSHC6H4CHFeHFeHCH2C3NHCH3SHNHC2FeS2H5C2HFeH3C2H3CH2NCHCNCHCH9SHFeSC3SHCSH2C2HCH9CS2HC2HCS2CFeH2FeHFeCH5CHCH8SHSNSHCHNCHCSHCHCHCFeH5NFeSCS2H3CHCHSCH4FeCHSC2H3CHCHCHCHCH3CHNCHCSC2FeCSFeHCH4SCHNH4CH2C3H5CSC2H2SC2H3C2NFe2H2SHNC3H2CNH5C2HSH2FeCHCH2C2H2C3HCHCNCH2FeHC2HCH2C2H2FeCS2CSH4CFeSHSCS2NSHCHCHSCH3CH5C2SHSCHCH2CHC2H2SNCHC3H3C2H3C2HCSHCH3C2SHCH3Fe2S3HC2HCH3CSH2CH2SH3SCHCH3CHCH3NCH2CHCH6CHCH4C2H2SH2CH5
_chemical_formula_sum              "H3072 Fe384 C1920 S768 N192"
_cell_length_a       78.9417
_cell_length_b       79.7945
_cell_length_c       79.9031
_cell_angle_alpha    73.7724
_cell_angle_beta     73.7197
_cell_angle_gamma    73.6931

_space_group_name_H-M_alt    "P 1"
_space_group_IT_number       1

loop_
  _space_group_symop_operation_xyz
  'x, y, z'

loop_
  _atom_site_type_symbol
  _atom_site_label
  _atom_site_symmetry_multiplicity
  _atom_site_fract_x
  _atom_site_fract_y
  _atom_site_fract_z
  _atom_site_occupancy
  H   H1        1.0  0.26177  0.07248  0.04552  1.0000
  Fe  Fe1       1.0  0.24360  0.00226  0.11538  1.0000
  C   C1        1.0  0.11377  0.04098  0.20724  1.0000
  H   H2        1.0  0.07617  0.07188  0.22036  1.0000
  C   C2        1.0  0.26287  0.02885  0.04866  1.0000
  C   C3        1.0  0.05946  0.20994  0.06791  1.0000
  C   C4        1.0  0.26448  0.04655  0.04069  1.0000
  H   H3        1.0  0.22422  0.05789  0.05219  1.0000
  C   C5        1.0  0.32490  0.99834  0.14228  1.0000
  H   H4        1.0  0.22892  0.07066  0.02971  1.0000
  Fe  Fe2       1.0  0.10390  0.21414  0.01449  1.0000
  H   H5        1.0  0.18262  0.15692  0.03054  1.0000
  H   H6        1.0  0.06512  0.19707  0.07553  1.0000
  H   H7        1.0  0.25040  0.06352  0.07817  1.0000
  C   C6        1.0  0.19343  0.07965  0.06411  1.0000
  S   S1        1.0  0.11075  0.99401  0.23473  1.0000
  S   S2        1.0  0.08661  0.20103  0.03966  1.0000
  H   H8        1.0  0.02864  0.24728  0.20205  1.0000
  C   C7        1.0  0.03692  0.23787  0.06637  1.0000
  H   H9        1.0  0.16092  0.17738  0.01252  1.0000
  H   H10       1.0  0.16970  0.20120  0.02426  1.0000
  H   H11       1.0  0.17980  0.21186  0.03479  1.0000
  H   H12       1.0  0.02814  0.16796  0.19072  1.0000
  C   C8        1.0  0.00795  0.18578  0.17673  1.0000
  C   C9        1.0  0.25382  0.05384  0.06992  1.0000
  H   H13       1.0  0.31320  0.03473  0.00689  1.0000
  C   C10       1.0  0.06755  0.21536  0.04983  1.0000
  C   C11       1.0  0.18598  0.15855  0.01617  1.0000
  C   C12       1.0  0.09037  0.05758  0.19105  1.0000
  H   H14       1.0  0.06752  0.30357  0.06050  1.0000
  C   C13       1.0  0.17372  0.17022  0.00598  1.0000
  H   H15       1.0  0.28255  0.00149  0.13719  1.0000
  H   H16       1.0  0.30214  0.10757  0.02483  1.0000
  C   C14       1.0  0.01386  0.17225  0.19072  1.0000
  S   S3        1.0  0.21770  0.13446  0.02084  1.0000
  N   N1        1.0  0.18631  0.21877  0.00604  1.0000
  C   C15       1.0  0.25165  0.03632  0.07784  1.0000
  H   H17       1.0  0.01139  0.23761  0.21884  1.0000
  N   N2        1.0  0.09450  0.05022  0.20896  1.0000
  H   H18       1.0  0.18404  0.07294  0.06165  1.0000
  H   H19       1.0  0.19943  0.19148  0.00465  1.0000
  C   C16       1.0  0.03025  0.21469  0.19748  1.0000
  H   H20       1.0  0.18519  0.09178  0.06915  1.0000
  S   S4        1.0  0.24190  0.03111  0.10078  1.0000
  H   H21       1.0  0.16528  0.23263  0.99176  1.0000
  S   S5        1.0  0.26630  0.10358  0.01851  1.0000
  H   H22       1.0  0.23020  0.09630  0.03980  1.0000
  C   C17       1.0  0.26025  0.05894  0.05142  1.0000
  H   H23       1.0  0.20924  0.06119  0.03778  1.0000
  H   H24       1.0  0.20816  0.10038  0.02110  1.0000
  S   S6        1.0  0.27124  0.05301  0.01730  1.0000
  Fe  Fe3       1.0  0.28420  0.11430  0.99276  1.0000
  H   H25       1.0  0.04391  0.21750  0.19482  1.0000
  C   C18       1.0  0.04421  0.22123  0.07622  1.0000
  Fe  Fe4       1.0  0.12818  0.24062  0.00017  1.0000
  C   C19       1.0  0.12754  0.31415  0.99029  1.0000
  N   N3        1.0  0.20718  0.08430  0.04775  1.0000
  H   H26       1.0  0.01256  0.28525  0.11195  1.0000
  Fe  Fe5       1.0  0.00714  0.24439  0.10569  1.0000
  C   C20       1.0  0.32780  0.09882  0.03278  1.0000
  C   C21       1.0  0.31660  0.10638  0.02041  1.0000
  C   C22       1.0  0.25644  0.02372  0.06723  1.0000
  H   H27       1.0  0.16103  0.22449  0.02478  1.0000
  C   C23       1.0  0.00488  0.22916  0.04816  1.0000
  H   H28       1.0  0.19987  0.07034  0.07503  1.0000
  S   S7        1.0  0.13299  0.21175  0.01436  1.0000
  H   H29       1.0  0.26621  0.01916  0.04043  1.0000
  H   H30       1.0  0.06844  0.04391  0.22185  1.0000
  C   C24       1.0  0.18656  0.00089  0.17763  1.0000
  C   C25       1.0  0.06010  0.23195  0.04002  1.0000
  H   H31       1.0  0.03811  0.21701  0.09019  1.0000
  N   N4        1.0  0.32748  0.05353  0.00814  1.0000
  H   H32       1.0  0.30790  0.01717  0.12530  1.0000
  H   H33       1.0  0.22591  0.08445  0.06272  1.0000
  H   H34       1.0  0.02675  0.20771  0.21173  1.0000
  C   C26       1.0  0.09075  0.06494  0.21825  1.0000
  H   H35       1.0  0.09646  0.31102  0.04124  1.0000
  H   H36       1.0  0.17978  0.02290  0.19084  1.0000
  C   C27       1.0  0.21933  0.09309  0.05171  1.0000
  H   H37       1.0  0.08504  0.02633  0.21256  1.0000
  H   H38       1.0  0.23182  0.00311  0.20065  1.0000
  H   H39       1.0  0.19029  0.10941  0.03769  1.0000
  C   C28       1.0  0.31989  0.04562  0.99799  1.0000
  H   H40       1.0  0.25482  0.01016  0.07326  1.0000
  H   H41       1.0  0.02477  0.30876  0.08793  1.0000
  C   C29       1.0  0.19814  0.09666  0.03364  1.0000
  H   H42       1.0  0.09308  0.04681  0.18369  1.0000
  C   C30       1.0  0.17705  0.01022  0.19125  1.0000
  C   C31       1.0  0.16406  0.00313  0.20544  1.0000
  Fe  Fe6       1.0  0.00948  0.22118  0.14259  1.0000
  C   C32       1.0  0.13393  0.28175  0.99435  1.0000
  Fe  Fe7       1.0  0.24324  0.11961  0.00524  1.0000
  Fe  Fe8       1.0  0.26637  0.08255  0.00484  1.0000
  S   S8        1.0  0.02348  0.19691  0.16004  1.0000
  C   C33       1.0  0.21783  0.06782  0.04158  1.0000
  H   H43       1.0  0.08443  0.31794  0.07173  1.0000
  C   C34       1.0  0.17749  0.22149  0.99115  1.0000
  H   H44       1.0  0.00591  0.22794  0.03436  1.0000
  H   H45       1.0  0.02296  0.23084  0.16533  1.0000
  C   C35       1.0  0.30904  0.00515  0.13573  1.0000
  H   H46       1.0  0.19643  0.00648  0.16665  1.0000
  H   H47       1.0  0.32724  0.06154  0.09907  1.0000
  H   H48       1.0  0.09881  0.07515  0.21060  1.0000
  H   H49       1.0  0.18871  0.09062  0.03036  1.0000
  H   H50       1.0  0.03498  0.24372  0.17094  1.0000
  C   C36       1.0  0.06045  0.31714  0.05439  1.0000
  H   H51       1.0  0.05613  0.31596  0.04273  1.0000
  H   H52       1.0  0.24466  0.99328  0.18198  1.0000
  C   C37       1.0  0.00129  0.16434  0.20484  1.0000
  H   H53       1.0  0.21188  0.10596  0.05571  1.0000
  C   C38       1.0  0.23177  0.99405  0.19233  1.0000
  C   C39       1.0  0.20249  0.14892  0.00784  1.0000
  C   C40       1.0  0.08310  0.03734  0.21939  1.0000
  S   S9        1.0  0.15264  0.01449  0.22282  1.0000
  H   H54       1.0  0.06591  0.23602  0.02600  1.0000
  H   H55       1.0  0.07587  0.06457  0.19202  1.0000
  H   H56       1.0  0.08650  0.03097  0.23265  1.0000
  N   N5        1.0  0.01654  0.23125  0.19319  1.0000
  H   H57       1.0  0.11727  0.03550  0.22058  1.0000
  H   H58       1.0  0.17902  0.24671  0.00661  1.0000
  H   H59       1.0  0.00605  0.19513  0.06639  1.0000
  S   S10       1.0  0.24215  0.09777  0.99314  1.0000
  C   C41       1.0  0.04481  0.24316  0.04826  1.0000
  H   H60       1.0  0.01150  0.25231  0.17029  1.0000
  H   H61       1.0  0.12292  0.05015  0.19934  1.0000
  C   C42       1.0  0.02172  0.23993  0.17413  1.0000
  H   H62       1.0  0.11712  0.02949  0.20068  1.0000
  C   C43       1.0  0.32414  0.11285  0.00245  1.0000
  H   H63       1.0  0.30232  0.07153  0.01620  1.0000
  C   C44       1.0  0.17367  0.21385  0.02323  1.0000
  S   S11       1.0  0.01717  0.25182  0.07590  1.0000
  S   S12       1.0  0.23546  0.99827  0.14536  1.0000
  C   C45       1.0  0.13093  0.29694  0.00125  1.0000
  S   S13       1.0  0.02165  0.24461  0.12611  1.0000
  H   H64       1.0  0.32938  0.03770  0.10434  1.0000
  C   C46       1.0  0.01808  0.31156  0.10096  1.0000
  S   S14       1.0  0.09865  0.24362  0.00236  1.0000
  S   S15       1.0  0.13843  0.26027  0.00803  1.0000
  C   C47       1.0  0.01541  0.24366  0.20436  1.0000
  H   H65       1.0  0.09870  0.06741  0.18282  1.0000
  H   H66       1.0  0.20964  0.20160  0.01558  1.0000
  H   H67       1.0  0.13116  0.29539  0.01508  1.0000
  H   H68       1.0  0.03907  0.25594  0.04055  1.0000
  C   C48       1.0  0.01115  0.29821  0.11459  1.0000
  H   H69       1.0  0.32195  0.09407  0.04670  1.0000
  H   H70       1.0  0.00590  0.15393  0.21563  1.0000
  C   C49       1.0  0.29467  0.99628  0.14246  1.0000
  C   C50       1.0  0.00241  0.30166  0.13149  1.0000
  C   C51       1.0  0.19124  0.23555  0.00535  1.0000
  H   H71       1.0  0.31810  0.06670  0.03020  1.0000
  C   C52       1.0  0.00052  0.31857  0.13469  1.0000
  H   H72       1.0  0.00156  0.21848  0.08328  1.0000
  H   H73       1.0  0.09415  0.05985  0.23165  1.0000
  H   H74       1.0  0.22048  0.00051  0.18529  1.0000
  H   H75       1.0  0.30588  0.05027  0.03140  1.0000
  C   C53       1.0  0.31283  0.06082  0.02213  1.0000
  H   H76       1.0  0.03136  0.20505  0.18926  1.0000
  H   H77       1.0  0.00325  0.24357  0.04788  1.0000
  C   C54       1.0  0.20274  0.20424  0.00442  1.0000
  H   H78       1.0  0.01812  0.22205  0.05178  1.0000
  H   H79       1.0  0.00526  0.25633  0.20127  1.0000
  H   H80       1.0  0.19794  0.23404  0.01639  1.0000
  H   H81       1.0  0.30942  0.05575  0.99149  1.0000
  H   H82       1.0  0.21264  0.20755  0.99166  1.0000
  H   H83       1.0  0.17311  0.20929  0.99152  1.0000
  H   H84       1.0  0.20062  0.23980  0.99249  1.0000
  H   H85       1.0  0.04797  0.32124  0.06438  1.0000
  H   H86       1.0  0.32592  0.07903  0.98951  1.0000
  C   C55       1.0  0.20666  0.15095  0.98929  1.0000
  C   C56       1.0  0.17796  0.17232  0.98740  1.0000
  S   S16       1.0  0.11044  0.20561  0.98840  1.0000
  H   H87       1.0  0.33058  0.03990  0.98737  1.0000
  Fe  Fe9       1.0  0.13910  0.20589  0.98717  1.0000
  H   H88       1.0  0.08503  0.32349  0.02355  1.0000
  C   C57       1.0  0.06189  0.06497  0.25915  1.0000
  H   H89       1.0  0.03005  0.03632  0.25808  1.0000
  H   H90       1.0  0.01924  0.09005  0.32938  1.0000
  C   C58       1.0  0.03348  0.00997  0.45609  1.0000
  H   H91       1.0  0.05746  0.05090  0.39397  1.0000
  H   H92       1.0  0.00700  0.05583  0.48459  1.0000
  H   H93       1.0  0.14460  0.01143  0.37851  1.0000
  C   C59       1.0  0.00377  0.07008  0.48391  1.0000
  H   H94       1.0  0.00237  0.04935  0.45340  1.0000
  C   C60       1.0  0.03890  0.04427  0.25856  1.0000
  H   H95       1.0  0.08106  0.03985  0.26455  1.0000
  C   C61       1.0  0.03309  0.06295  0.25568  1.0000
  C   C62       1.0  0.04608  0.01998  0.40348  1.0000
  C   C63       1.0  0.05629  0.03591  0.26150  1.0000
  H   H96       1.0  0.01391  0.02851  0.39478  1.0000
  C   C64       1.0  0.00843  0.03555  0.45297  1.0000
  C   C65       1.0  0.06771  0.04625  0.26206  1.0000
  C   C66       1.0  0.04466  0.07335  0.25575  1.0000
  C   C67       1.0  0.09431  0.99797  0.33910  1.0000
  H   H97       1.0  0.16877  0.99331  0.35929  1.0000
  C   C68       1.0  0.00532  0.09692  0.33331  1.0000
  S   S17       1.0  0.05566  0.00110  0.45900  1.0000
  C   C69       1.0  0.13471  0.99927  0.35505  1.0000
  S   S18       1.0  0.06370  0.01269  0.26313  1.0000
  H   H98       1.0  0.12324  0.00509  0.38824  1.0000
  C   C70       1.0  0.02551  0.02782  0.45687  1.0000
  S   S19       1.0  0.03815  0.09681  0.25073  1.0000
  S   S20       1.0  0.00302  0.07718  0.42012  1.0000
  H   H99       1.0  0.10539  0.99942  0.31089  1.0000
  S   S21       1.0  0.11467  0.00771  0.26870  1.0000
  H   H100      1.0  0.00043  0.10404  0.30662  1.0000
  C   C71       1.0  0.01795  0.03953  0.39764  1.0000
  H   H101      1.0  0.03805  0.05159  0.41221  1.0000
  C   C72       1.0  0.00680  0.00739  0.44840  1.0000
  H   H102      1.0  0.01230  0.03951  0.41205  1.0000
  H   H103      1.0  0.03271  0.03587  0.45998  1.0000
  Fe  Fe10      1.0  0.13279  0.99957  0.24352  1.0000
  H   H104      1.0  0.04329  0.00861  0.39998  1.0000
  H   H105      1.0  0.03619  0.06529  0.39038  1.0000
  H   H106      1.0  0.11987  0.00473  0.35881  1.0000
  C   C73       1.0  0.04258  0.05193  0.39763  1.0000
  H   H107      1.0  0.07077  0.07299  0.25943  1.0000
  H   H108      1.0  0.05968  0.03601  0.36998  1.0000
  H   H109      1.0  0.06102  0.01809  0.40087  1.0000
  H   H110      1.0  0.01984  0.06934  0.25292  1.0000
  H   H111      1.0  0.14121  0.01080  0.34818  1.0000
  C   C74       1.0  0.04469  0.03785  0.37381  1.0000
  H   H112      1.0  0.08700  0.01180  0.33724  1.0000
  H   H113      1.0  0.04138  0.02697  0.36994  1.0000
  N   N6        1.0  0.03782  0.03733  0.39313  1.0000
  S   S22       1.0  0.08211  0.99684  0.37490  1.0000
  H   H114      1.0  0.03876  0.05087  0.36563  1.0000
  Fe  Fe11      1.0  0.00800  0.10714  0.25426  1.0000
  C   C75       1.0  0.02405  0.99967  0.45206  1.0000
  H   H115      1.0  0.04078  0.01896  0.41809  1.0000
  H   H116      1.0  0.05525  0.03346  0.47708  1.0000
  H   H117      1.0  0.01125  0.05238  0.38989  1.0000
  Fe  Fe12      1.0  0.09331  0.99959  0.26096  1.0000
  S   S23       1.0  0.01074  0.08795  0.36771  1.0000
  C   C76       1.0  0.13807  0.99978  0.38407  1.0000
  H   H118      1.0  0.14294  0.99193  0.39642  1.0000
  C   C77       1.0  0.10474  0.99100  0.32417  1.0000
  H   H119      1.0  0.99962  0.99951  0.44503  1.0000
  H   H120      1.0  0.13678  0.99102  0.34514  1.0000
  H   H121      1.0  0.06973  0.99473  0.51224  1.0000
  S   S24       1.0  0.09540  0.01725  0.53804  1.0000
  C   C78       1.0  0.07902  0.03861  0.60924  1.0000
  N   N7        1.0  0.01027  0.05646  0.64532  1.0000
  H   H122      1.0  0.09743  0.02970  0.70802  1.0000
  S   S25       1.0  0.01646  0.08021  0.55590  1.0000
  S   S26       1.0  0.02708  0.04135  0.59655  1.0000
  H   H123      1.0  0.03630  0.00310  0.51843  1.0000
  H   H124      1.0  0.04010  0.15830  0.72425  1.0000
  H   H125      1.0  0.08930  0.02009  0.58348  1.0000
  H   H126      1.0  0.05347  0.01481  0.53302  1.0000
  H   H127      1.0  0.05040  0.06114  0.56856  1.0000
  C   C79       1.0  0.05505  0.04714  0.56805  1.0000
  C   C80       1.0  0.07010  0.00690  0.50126  1.0000
  C   C81       1.0  0.15581  0.00640  0.73095  1.0000
  S   S27       1.0  0.00974  0.10631  0.65932  1.0000
  H   H128      1.0  0.07695  0.05163  0.54529  1.0000
  C   C82       1.0  0.01080  0.07348  0.63191  1.0000
  H   H129      1.0  0.08275  0.01120  0.49999  1.0000
  Fe  Fe13      1.0  0.13400  0.99583  0.65311  1.0000
  C   C83       1.0  0.05471  0.03697  0.48979  1.0000
  Fe  Fe14      1.0  0.00005  0.07028  0.54346  1.0000
  C   C84       1.0  0.07619  0.02370  0.55418  1.0000
  S   S28       1.0  0.14842  0.00384  0.62471  1.0000
  H   H130      1.0  0.02075  0.08028  0.63321  1.0000
  H   H131      1.0  0.10712  0.00345  0.59222  1.0000
  C   C85       1.0  0.09048  0.04395  0.70406  1.0000
  C   C86       1.0  0.01541  0.15770  0.71801  1.0000
  C   C87       1.0  0.06714  0.01103  0.56653  1.0000
  N   N8        1.0  0.08980  0.02007  0.61020  1.0000
  C   C88       1.0  0.09270  0.07490  0.69614  1.0000
  S   S29       1.0  0.12958  0.00408  0.71618  1.0000
  H   H132      1.0  0.14620  0.00637  0.58869  1.0000
  H   H133      1.0  0.07131  0.99719  0.56561  1.0000
  C   C89       1.0  0.05227  0.01638  0.57987  1.0000
  C   C90       1.0  0.04621  0.03445  0.58058  1.0000
  H   H134      1.0  0.06841  0.04146  0.60150  1.0000
  H   H135      1.0  0.18855  0.01866  0.68548  1.0000
  C   C91       1.0  0.16256  0.01225  0.69864  1.0000
  H   H136      1.0  0.09648  0.05667  0.72919  1.0000
  H   H137      1.0  0.04261  0.04802  0.49207  1.0000
  H   H138      1.0  0.08770  0.04851  0.60260  1.0000
  N   N9        1.0  0.05392  0.02128  0.50489  1.0000
  C   C92       1.0  0.07005  0.04177  0.55489  1.0000
  S   S30       1.0  0.05612  0.09677  0.67076  1.0000
  H   H139      1.0  0.07813  0.04666  0.71468  1.0000
  H   H140      1.0  0.09696  0.01822  0.63481  1.0000
  C   C93       1.0  0.07711  0.04783  0.65955  1.0000
  H   H141      1.0  0.11475  0.05388  0.67418  1.0000
  Fe  Fe15      1.0  0.00746  0.06025  0.58060  1.0000
  H   H142      1.0  0.07997  0.07824  0.70616  1.0000
  H   H143      1.0  0.02862  0.03153  0.65315  1.0000
  Fe  Fe16      1.0  0.12546  0.99740  0.69224  1.0000
  H   H144      1.0  0.11274  0.02614  0.61497  1.0000
  H   H145      1.0  0.15873  0.01339  0.68631  1.0000
  H   H146      1.0  0.03875  0.05059  0.64444  1.0000
  H   H147      1.0  0.00046  0.04522  0.62932  1.0000
  Fe  Fe17      1.0  0.09545  0.00090  0.67367  1.0000
  H   H148      1.0  0.04121  0.03689  0.52494  1.0000
  C   C94       1.0  0.09911  0.01741  0.59200  1.0000
  H   H149      1.0  0.08505  0.07311  0.65232  1.0000
  H   H150      1.0  0.11565  0.03967  0.72244  1.0000
  C   C95       1.0  0.03746  0.01483  0.50705  1.0000
  C   C96       1.0  0.04744  0.04721  0.67880  1.0000
  H   H151      1.0  0.11757  0.06254  0.71652  1.0000
  C   C97       1.0  0.07457  0.06588  0.65977  1.0000
  H   H152      1.0  0.02192  0.14772  0.71007  1.0000
  C   C98       1.0  0.17943  0.01516  0.69818  1.0000
  S   S31       1.0  0.01846  0.14134  0.66739  1.0000
  H   H153      1.0  0.06687  0.04232  0.48788  1.0000
  S   S32       1.0  0.00708  0.10825  0.70117  1.0000
  H   H154      1.0  0.03244  0.07202  0.68657  1.0000
  C   C99       1.0  0.14716  0.99255  0.59578  1.0000
  H   H155      1.0  0.10110  0.08456  0.69458  1.0000
  C   C100      1.0  0.06373  0.03835  0.66940  1.0000
  C   C101      1.0  0.10828  0.05370  0.71812  1.0000
  H   H156      1.0  0.08942  0.04133  0.65173  1.0000
  H   H157      1.0  0.01440  0.06684  0.66561  1.0000
  H   H158      1.0  0.03705  0.03993  0.68643  1.0000
  Fe  Fe18      1.0  0.02697  0.11129  0.67471  1.0000
  H   H159      1.0  0.04517  0.00659  0.58928  1.0000
  C   C102      1.0  0.05346  0.02643  0.52143  1.0000
  H   H160      1.0  0.08542  0.99329  0.61962  1.0000
  N   N10       1.0  0.10251  0.05619  0.70135  1.0000
  C   C103      1.0  0.10341  0.01677  0.62085  1.0000
  C   C104      1.0  0.15072  0.00793  0.71506  1.0000
  C   C105      1.0  0.18462  0.01348  0.71410  1.0000
  H   H161      1.0  0.11193  0.00300  0.62151  1.0000
  S   S33       1.0  0.06728  0.01545  0.67018  1.0000
  C   C106      1.0  0.05852  0.07460  0.66958  1.0000
  S   S34       1.0  0.20575  0.01739  0.71306  1.0000
  H   H162      1.0  0.10862  0.02650  0.58526  1.0000
  C   C107      1.0  0.04483  0.06534  0.67888  1.0000
  C   C108      1.0  0.11861  0.05218  0.68704  1.0000
  S   S35       1.0  0.11656  0.01663  0.66827  1.0000
  C   C109      1.0  0.17280  0.00900  0.73049  1.0000
  H   H163      1.0  0.06716  0.00961  0.61114  1.0000
  H   H164      1.0  0.02501  0.02544  0.50963  1.0000
  H   H165      1.0  0.06539  0.03196  0.51999  1.0000
  H   H166      1.0  0.12802  0.06112  0.68465  1.0000
  H   H167      1.0  0.03748  0.01073  0.49480  1.0000
  H   H168      1.0  0.07215  0.04108  0.62283  1.0000
  S   S36       1.0  0.00930  0.06094  0.51766  1.0000
  H   H169      1.0  0.12636  0.03817  0.69052  1.0000
  C   C110      1.0  0.07772  0.00742  0.61877  1.0000
  H   H170      1.0  0.07070  0.00891  0.63265  1.0000
  H   H171      1.0  0.08595  0.04537  0.69168  1.0000
  C   C111      1.0  0.00375  0.07645  0.49855  1.0000
  H   H172      1.0  0.08882  0.07739  0.68317  1.0000
  H   H173      1.0  0.03275  0.04110  0.62961  1.0000
  C   C112      1.0  0.02839  0.04438  0.64302  1.0000
  H   H174      1.0  0.07109  0.00290  0.48867  1.0000
  C   C113      1.0  0.02568  0.16369  0.72606  1.0000
  H   H175      1.0  0.01466  0.07123  0.61804  1.0000
  C   C114      1.0  0.00496  0.05999  0.66349  1.0000
  H   H176      1.0  0.00480  0.04741  0.67395  1.0000
  C   C115      1.0  0.99950  0.09489  0.49761  1.0000
  H   H177      1.0  0.99968  0.09986  0.50884  1.0000
  C   C116      1.0  0.01737  0.17676  0.73624  1.0000
  Fe  Fe19      1.0  0.99944  0.13601  0.65423  1.0000
  H   H178      1.0  0.17811  0.14147  0.88336  1.0000
  H   H179      1.0  0.13620  0.27219  0.97098  1.0000
  H   H180      1.0  0.21176  0.06294  0.78443  1.0000
  C   C117      1.0  0.07204  0.20196  0.80599  1.0000
  N   N11       1.0  0.14660  0.20714  0.92305  1.0000
  H   H181      1.0  0.02857  0.18084  0.80690  1.0000
  N   N12       1.0  0.04749  0.16042  0.79409  1.0000
  S   S37       1.0  0.20404  0.02487  0.79685  1.0000
  N   N13       1.0  0.20553  0.08812  0.79219  1.0000
  C   C118      1.0  0.17727  0.13345  0.89730  1.0000
  N   N14       1.0  0.19318  0.11841  0.89863  1.0000
  C   C119      1.0  0.28223  0.02235  0.75747  1.0000
  H   H182      1.0  0.12938  0.20700  0.94922  1.0000
  C   C120      1.0  0.30855  0.02403  0.76655  1.0000
  N   N15       1.0  0.31704  0.12523  0.93074  1.0000
  C   C121      1.0  0.04038  0.21070  0.82011  1.0000
  Fe  Fe20      1.0  0.01549  0.20737  0.75919  1.0000
  H   H183      1.0  0.06986  0.28541  0.94687  1.0000
  H   H184      1.0  0.04892  0.17167  0.81509  1.0000
  H   H185      1.0  0.08343  0.19503  0.94765  1.0000
  C   C122      1.0  0.19989  0.07294  0.78976  1.0000
  C   C123      1.0  0.03884  0.16826  0.80998  1.0000
  S   S38       1.0  0.01525  0.27401  0.74256  1.0000
  H   H186      1.0  0.22959  0.07143  0.80067  1.0000
  Fe  Fe21      1.0  0.00937  0.24706  0.75681  1.0000
  H   H187      1.0  0.12290  0.19633  0.93572  1.0000
  Fe  Fe22      1.0  0.13888  0.20006  0.85951  1.0000
  S   S39       1.0  0.11723  0.18450  0.86724  1.0000
  S   S40       1.0  0.16756  0.18714  0.86235  1.0000
  Fe  Fe23      1.0  0.10709  0.20337  0.84365  1.0000
  Fe  Fe24      1.0  0.10082  0.20599  0.88198  1.0000
  S   S41       1.0  0.31763  0.03281  0.77906  1.0000
  H   H188      1.0  0.08236  0.19918  0.79432  1.0000
  H   H189      1.0  0.17180  0.21544  0.91627  1.0000
  H   H190      1.0  0.21932  0.14354  0.98274  1.0000
  H   H191      1.0  0.02148  0.30876  0.73902  1.0000
  Fe  Fe25      1.0  0.26213  0.10942  0.96972  1.0000
  N   N16       1.0  0.08529  0.25388  0.79739  1.0000
  S   S42       1.0  0.26470  0.11636  0.94001  1.0000
  C   C124      1.0  0.33025  0.11515  0.94194  1.0000
  S   S43       1.0  0.13015  0.21740  0.83462  1.0000
  C   C125      1.0  0.21556  0.09688  0.77488  1.0000
  S   S44       1.0  0.08850  0.22348  0.85915  1.0000
  Fe  Fe26      1.0  0.26845  0.09469  0.83952  1.0000
  S   S45       1.0  0.26958  0.06737  0.85730  1.0000
  S   S46       1.0  0.29478  0.10309  0.82627  1.0000
  Fe  Fe27      1.0  0.22853  0.10079  0.84042  1.0000
  S   S47       1.0  0.22643  0.07374  0.85797  1.0000
  S   S48       1.0  0.20341  0.11760  0.83098  1.0000
  Fe  Fe28      1.0  0.24314  0.07993  0.87310  1.0000
  S   S49       1.0  0.23555  0.07310  0.90311  1.0000
  Fe  Fe29      1.0  0.25295  0.06370  0.84060  1.0000
  S   S50       1.0  0.26170  0.03919  0.82913  1.0000
  S   S51       1.0  0.24332  0.10786  0.85683  1.0000
  S   S52       1.0  0.25370  0.09015  0.82155  1.0000
  H   H192      1.0  0.04555  0.18593  0.77575  1.0000
  C   C126      1.0  0.24526  0.03580  0.82030  1.0000
  C   C127      1.0  0.22704  0.03842  0.82914  1.0000
  C   C128      1.0  0.21435  0.03484  0.82203  1.0000
  C   C129      1.0  0.21991  0.02870  0.80610  1.0000
  C   C130      1.0  0.23807  0.02633  0.79723  1.0000
  C   C131      1.0  0.25067  0.02984  0.80436  1.0000
  H   H193      1.0  0.22280  0.04283  0.84160  1.0000
  H   H194      1.0  0.20028  0.03665  0.82895  1.0000
  H   H195      1.0  0.26468  0.02788  0.79755  1.0000
  C   C132      1.0  0.25718  0.10345  0.93024  1.0000
  C   C133      1.0  0.26160  0.10591  0.91161  1.0000
  C   C134      1.0  0.25550  0.09617  0.90324  1.0000
  C   C135      1.0  0.24462  0.08419  0.91349  1.0000
  C   C136      1.0  0.24026  0.08162  0.93216  1.0000
  C   C137      1.0  0.24664  0.09117  0.94056  1.0000
  H   H196      1.0  0.26974  0.11541  0.90363  1.0000
  H   H197      1.0  0.25909  0.09811  0.88886  1.0000
  H   H198      1.0  0.23189  0.07230  0.94013  1.0000
  H   H199      1.0  0.24320  0.08922  0.95496  1.0000
  H   H200      1.0  0.20617  0.09528  0.88734  1.0000
  S   S53       1.0  0.13661  0.23466  0.97292  1.0000
  C   C138      1.0  0.08523  0.20840  0.94084  1.0000
  C   C139      1.0  0.19443  0.16263  0.97911  1.0000
  H   H201      1.0  0.06741  0.20293  0.84935  1.0000
  H   H202      1.0  0.16045  0.18253  0.91459  1.0000
  H   H203      1.0  0.30348  0.14358  0.94809  1.0000
  C   C140      1.0  0.17772  0.16879  0.85213  1.0000
  C   C141      1.0  0.19609  0.16091  0.85149  1.0000
  C   C142      1.0  0.20417  0.14545  0.84461  1.0000
  C   C143      1.0  0.19391  0.13774  0.83840  1.0000
  C   C144      1.0  0.17566  0.14588  0.83862  1.0000
  C   C145      1.0  0.16756  0.16136  0.84550  1.0000
  H   H204      1.0  0.20406  0.16677  0.85637  1.0000
  H   H205      1.0  0.21837  0.13962  0.84396  1.0000
  H   H206      1.0  0.16766  0.14006  0.83375  1.0000
  H   H207      1.0  0.15341  0.16742  0.84583  1.0000
  C   C146      1.0  0.08653  0.31627  0.95558  1.0000
  H   H208      1.0  0.06636  0.17773  0.78331  1.0000
  H   H209      1.0  0.10244  0.22757  0.79868  1.0000
  H   H210      1.0  0.08714  0.21512  0.96442  1.0000
  C   C147      1.0  0.12776  0.31612  0.97227  1.0000
  C   C148      1.0  0.08600  0.21411  0.92247  1.0000
  H   H211      1.0  0.19036  0.11596  0.92674  1.0000
  C   C149      1.0  0.18938  0.10117  0.79898  1.0000
  H   H212      1.0  0.03308  0.27151  0.79749  1.0000
  H   H213      1.0  0.06640  0.30294  0.81492  1.0000
  H   H214      1.0  0.19778  0.16416  0.96475  1.0000
  C   C150      1.0  0.03172  0.29764  0.77998  1.0000
  H   H215      1.0  0.06837  0.13809  0.78689  1.0000
  H   H216      1.0  0.32842  0.14860  0.92158  1.0000
  H   H217      1.0  0.02728  0.14526  0.79876  1.0000
  C   C151      1.0  0.29970  0.99666  0.81010  1.0000
  C   C152      1.0  0.07090  0.30747  0.82462  1.0000
  C   C153      1.0  0.30052  0.13420  0.94182  1.0000
  H   H218      1.0  0.30603  0.10252  0.93355  1.0000
  C   C154      1.0  0.31832  0.12123  0.86237  1.0000
  C   C155      1.0  0.29976  0.12179  0.86641  1.0000
  C   C156      1.0  0.29231  0.11643  0.85526  1.0000
  C   C157      1.0  0.30336  0.11115  0.83974  1.0000
  C   C158      1.0  0.32182  0.11112  0.83543  1.0000
  H   H219      1.0  0.02908  0.32208  0.75986  1.0000
  H   H220      1.0  0.29124  0.12607  0.87831  1.0000
  H   H221      1.0  0.27805  0.11649  0.85865  1.0000
  S   S54       1.0  0.16316  0.18716  0.97412  1.0000
  H   H222      1.0  0.16448  0.12862  0.90131  1.0000
  H   H223      1.0  0.31186  0.99520  0.79898  1.0000
  H   H224      1.0  0.20312  0.09632  0.91860  1.0000
  C   C159      1.0  0.19448  0.10692  0.88646  1.0000
  C   C160      1.0  0.06366  0.20421  0.83695  1.0000
  H   H225      1.0  0.22201  0.11444  0.89419  1.0000
  C   C161      1.0  0.13373  0.28381  0.97644  1.0000
  C   C162      1.0  0.07701  0.20058  0.82190  1.0000
  Fe  Fe30      1.0  0.21776  0.01004  0.77467  1.0000
  C   C163      1.0  0.19127  0.10775  0.91719  1.0000
  H   H226      1.0  0.03185  0.15890  0.82110  1.0000
  C   C164      1.0  0.20976  0.12548  0.89357  1.0000
  H   H227      1.0  0.21161  0.13374  0.87972  1.0000
  S   S55       1.0  0.26122  0.13253  0.98092  1.0000
  H   H228      1.0  0.17899  0.10206  0.92146  1.0000
  C   C165      1.0  0.13474  0.19856  0.93910  1.0000
  S   S56       1.0  0.10002  0.19477  0.82237  1.0000
  S   S57       1.0  0.03103  0.22377  0.76539  1.0000
  H   H229      1.0  0.21014  0.07517  0.81851  1.0000
  C   C166      1.0  0.06161  0.14433  0.79861  1.0000
  H   H230      1.0  0.19632  0.11439  0.87229  1.0000
  Fe  Fe31      1.0  0.10744  0.23498  0.97626  1.0000
  C   C167      1.0  0.21736  0.08153  0.80516  1.0000
  H   H231      1.0  0.07226  0.14767  0.80298  1.0000
  H   H232      1.0  0.17047  0.19566  0.93380  1.0000
  H   H233      1.0  0.18182  0.09512  0.81230  1.0000
  C   C168      1.0  0.15250  0.19603  0.90955  1.0000
  H   H234      1.0  0.29017  0.14181  0.93383  1.0000
  H   H235      1.0  0.07681  0.28439  0.96666  1.0000
  H   H236      1.0  0.16107  0.20231  0.89701  1.0000
  H   H237      1.0  0.22002  0.10840  0.77626  1.0000
  H   H238      1.0  0.22786  0.08736  0.76946  1.0000
  H   H239      1.0  0.02499  0.25839  0.77694  1.0000
  H   H240      1.0  0.29244  0.09590  0.77360  1.0000
  H   H241      1.0  0.03503  0.21175  0.84782  1.0000
  H   H242      1.0  0.07607  0.30938  0.91989  1.0000
  H   H243      1.0  0.12456  0.22403  0.91152  1.0000
  H   H244      1.0  0.18210  0.10155  0.88968  1.0000
  S   S58       1.0  0.20304  0.99500  0.76550  1.0000
  H   H245      1.0  0.14071  0.19410  0.90578  1.0000
  C   C169      1.0  0.05378  0.20725  0.80504  1.0000
  C   C170      1.0  0.02394  0.30064  0.75179  1.0000
  S   S59       1.0  0.01741  0.21642  0.81938  1.0000
  H   H246      1.0  0.22197  0.09266  0.80712  1.0000
  H   H247      1.0  0.20946  0.13395  0.90264  1.0000
  H   H248      1.0  0.05818  0.30182  0.96013  1.0000
  H   H249      1.0  0.05008  0.20841  0.79272  1.0000
  H   H250      1.0  0.11230  0.30225  0.93020  1.0000
  H   H251      1.0  0.29420  0.12431  0.95281  1.0000
  C   C171      1.0  0.04535  0.20916  0.83608  1.0000
  H   H252      1.0  0.19079  0.07738  0.78022  1.0000
  C   C172      1.0  0.16257  0.20895  0.92803  1.0000
  C   C173      1.0  0.31908  0.01037  0.75788  1.0000
  Fe  Fe32      1.0  0.21695  0.00735  0.73800  1.0000
  H   H253      1.0  0.28226  0.04134  0.77209  1.0000
  C   C174      1.0  0.30960  0.06942  0.79614  1.0000
  C   C175      1.0  0.13652  0.22504  0.91557  1.0000
  H   H254      1.0  0.02278  0.16725  0.78488  1.0000
  Fe  Fe33      1.0  0.01191  0.22097  0.79219  1.0000
  C   C176      1.0  0.05584  0.17366  0.77948  1.0000
  H   H255      1.0  0.17993  0.10624  0.78975  1.0000
  N   N17       1.0  0.32718  0.05485  0.85820  1.0000
  H   H256      1.0  0.10125  0.28589  0.92922  1.0000
  H   H257      1.0  0.26426  0.99850  0.82455  1.0000
  S   S60       1.0  0.08581  0.19895  0.91036  1.0000
  C   C177      1.0  0.29026  0.03035  0.76590  1.0000
  C   C178      1.0  0.31393  0.06820  0.86771  1.0000
  H   H258      1.0  0.30820  0.03827  0.86340  1.0000
  C   C179      1.0  0.08794  0.23153  0.91379  1.0000
  H   H259      1.0  0.14502  0.23205  0.90350  1.0000
  H   H260      1.0  0.32455  0.10567  0.91457  1.0000
  C   C180      1.0  0.08755  0.21969  0.95030  1.0000
  H   H261      1.0  0.03968  0.14999  0.77593  1.0000
  N   N18       1.0  0.31768  0.08279  0.78142  1.0000
  H   H262      1.0  0.31993  0.05700  0.79948  1.0000
  C   C181      1.0  0.31238  0.11276  0.92298  1.0000
  S   S61       1.0  0.12327  0.22014  0.87615  1.0000
  H   H263      1.0  0.19258  0.06575  0.80260  1.0000
  H   H264      1.0  0.15850  0.21710  0.93835  1.0000
  H   H265      1.0  0.17612  0.14270  0.90590  1.0000
  H   H266      1.0  0.26801  0.02704  0.75729  1.0000
  H   H267      1.0  0.24240  0.02193  0.78477  1.0000
  H   H268      1.0  0.32459  0.10490  0.95311  1.0000
  H   H269      1.0  0.33041  0.10716  0.82339  1.0000
  H   H270      1.0  0.10763  0.32169  0.85598  1.0000
  C   C182      1.0  0.03373  0.15544  0.78824  1.0000
  H   H271      1.0  0.05580  0.13407  0.80965  1.0000
  H   H272      1.0  0.19317  0.11294  0.80068  1.0000
  H   H273      1.0  0.20706  0.10201  0.76474  1.0000
  H   H274      1.0  0.31941  0.99220  0.74219  1.0000
  C   C183      1.0  0.07171  0.29380  0.95501  1.0000
  H   H275      1.0  0.13145  0.23371  0.92551  1.0000
  H   H276      1.0  0.30436  0.99619  0.82216  1.0000
  C   C184      1.0  0.07738  0.31721  0.92886  1.0000
  H   H277      1.0  0.30935  0.05430  0.84247  1.0000
  C   C185      1.0  0.09030  0.23682  0.94148  1.0000
  H   H278      1.0  0.17661  0.00790  0.74279  1.0000
  Fe  Fe34      1.0  0.11232  0.23613  0.85208  1.0000
  H   H279      1.0  0.08744  0.23340  0.78374  1.0000
  S   S62       1.0  0.28618  0.09197  0.98013  1.0000
  H   H280      1.0  0.06181  0.25919  0.81834  1.0000
  H   H281      1.0  0.08814  0.23614  0.89966  1.0000
  H   H282      1.0  0.10305  0.24894  0.81513  1.0000
  H   H283      1.0  0.14211  0.18537  0.94567  1.0000
  H   H284      1.0  0.08947  0.27117  0.81155  1.0000
  H   H285      1.0  0.08212  0.31434  0.81703  1.0000
  H   H286      1.0  0.31527  0.07131  0.76103  1.0000
  H   H287      1.0  0.29721  0.10507  0.78944  1.0000
  S   S63       1.0  0.03633  0.30726  0.79503  1.0000
  S   S64       1.0  0.22991  0.02403  0.74711  1.0000
  C   C186      1.0  0.31121  0.00278  0.74891  1.0000
  H   H288      1.0  0.29127  0.01031  0.80643  1.0000
  N   N19       1.0  0.08446  0.30533  0.94439  1.0000
  S   S65       1.0  0.10753  0.26606  0.84167  1.0000
  H   H289      1.0  0.06879  0.26459  0.77787  1.0000
  H   H290      1.0  0.29888  0.06542  0.79253  1.0000
  S   S66       1.0  0.11379  0.31214  0.89167  1.0000
  Fe  Fe35      1.0  0.25302  0.00008  0.74868  1.0000
  H   H291      1.0  0.07572  0.23706  0.82250  1.0000
  C   C187      1.0  0.02600  0.27222  0.77308  1.0000
  S   S67       1.0  0.32784  0.12651  0.87703  1.0000
  H   H292      1.0  0.30464  0.07737  0.85923  1.0000
  H   H293      1.0  0.10853  0.26444  0.79441  1.0000
  C   C188      1.0  0.11218  0.29922  0.87787  1.0000
  C   C189      1.0  0.11401  0.28069  0.88394  1.0000
  C   C190      1.0  0.11242  0.27040  0.87301  1.0000
  C   C191      1.0  0.10941  0.27854  0.85583  1.0000
  C   C192      1.0  0.10769  0.29707  0.84977  1.0000
  C   C193      1.0  0.10886  0.30742  0.86082  1.0000
  H   H294      1.0  0.11646  0.27432  0.89716  1.0000
  H   H295      1.0  0.10569  0.30343  0.83642  1.0000
  C   C194      1.0  0.07039  0.24803  0.81189  1.0000
  C   C195      1.0  0.13100  0.30095  0.96535  1.0000
  C   C196      1.0  0.09709  0.25991  0.80489  1.0000
  H   H296      1.0  0.08853  0.27364  0.77276  1.0000
  H   H297      1.0  0.10710  0.24283  0.77765  1.0000
  C   C197      1.0  0.30348  0.09902  0.77754  1.0000
  C   C198      1.0  0.10224  0.29403  0.93806  1.0000
  H   H298      1.0  0.30532  0.06174  0.88007  1.0000
  C   C199      1.0  0.02242  0.28276  0.75667  1.0000
  H   H299      1.0  0.09174  0.25629  0.91650  1.0000
  C   C200      1.0  0.02831  0.30815  0.76354  1.0000
  H   H300      1.0  0.13143  0.30243  0.95138  1.0000
  H   H301      1.0  0.18673  0.22481  0.97794  1.0000
  H   H302      1.0  0.06940  0.28034  0.78979  1.0000
  H   H303      1.0  0.11349  0.25621  0.87792  1.0000
  C   C201      1.0  0.09602  0.23878  0.78895  1.0000
  H   H304      1.0  0.06142  0.24295  0.80686  1.0000
  S   S68       1.0  0.03046  0.18404  0.74628  1.0000
  C   C202      1.0  0.03074  0.27962  0.78467  1.0000
  C   C203      1.0  0.08988  0.24295  0.92334  1.0000
  H   H305      1.0  0.32074  0.07659  0.87157  1.0000
  H   H306      1.0  0.31544  0.14641  0.90731  1.0000
  H   H307      1.0  0.09174  0.30771  0.96749  1.0000
  H   H308      1.0  0.30255  0.11996  0.91430  1.0000
  S   S69       1.0  0.09532  0.25032  0.95258  1.0000
  C   C204      1.0  0.31755  0.04508  0.85203  1.0000
  H   H309      1.0  0.04625  0.29768  0.85415  1.0000
  C   C205      1.0  0.07770  0.26876  0.78385  1.0000
  H   H310      1.0  0.06222  0.16835  0.76713  1.0000
  H   H311      1.0  0.32722  0.03468  0.84508  1.0000
  H   H312      1.0  0.33175  0.08500  0.75383  1.0000
  H   H313      1.0  0.14667  0.00307  0.74368  1.0000
  C   C206      1.0  0.32936  0.11582  0.84692  1.0000
  C   C207      1.0  0.32495  0.13883  0.91623  1.0000
  H   H314      1.0  0.10779  0.28453  0.94940  1.0000
  H   H315      1.0  0.06789  0.31379  0.85683  1.0000
  H   H316      1.0  0.07657  0.29534  0.83404  1.0000
  C   C208      1.0  0.29271  0.00848  0.74904  1.0000
  H   H317      1.0  0.03604  0.30518  0.83508  1.0000
  H   H318      1.0  0.02963  0.31839  0.85165  1.0000
  N   N20       1.0  0.05579  0.31942  0.83426  1.0000
  H   H319      1.0  0.33102  0.07384  0.83317  1.0000
  C   C209      1.0  0.33198  0.08745  0.78673  1.0000
  H   H320      1.0  0.32643  0.09331  0.79879  1.0000
  H   H321      1.0  0.27492  0.99688  0.79260  1.0000
  H   H322      1.0  0.30906  0.10942  0.76651  1.0000
  C   C210      1.0  0.04129  0.30972  0.84425  1.0000
  C   C211      1.0  0.32562  0.07528  0.76526  1.0000
  H   H323      1.0  0.32966  0.03560  0.88283  1.0000
  H   H324      1.0  0.30328  0.07468  0.80847  1.0000
  S   S70       1.0  0.28298  0.99790  0.73881  1.0000
  S   S71       1.0  0.31064  0.12245  0.98660  1.0000
  S   S72       1.0  0.10187  0.37351  0.03177  1.0000
  S   S73       1.0  0.08559  0.40353  0.98921  1.0000
  C   C212      1.0  0.09305  0.58774  0.98712  1.0000
  C   C213      1.0  0.10096  0.57902  0.00177  1.0000
  H   H325      1.0  0.06432  0.43401  0.03195  1.0000
  S   S74       1.0  0.03172  0.42862  0.05885  1.0000
  H   H326      1.0  0.01166  0.50687  0.15281  1.0000
  H   H327      1.0  0.01569  0.52561  0.08680  1.0000
  C   C214      1.0  0.06597  0.41998  0.03838  1.0000
  H   H328      1.0  0.03023  0.41534  0.02903  1.0000
  C   C215      1.0  0.08158  0.40766  0.03224  1.0000
  S   S75       1.0  0.02743  0.65173  0.11586  1.0000
  H   H329      1.0  0.07055  0.35805  0.03677  1.0000
  S   S76       1.0  0.01746  0.39124  0.10111  1.0000
  C   C216      1.0  0.08388  0.38949  0.04067  1.0000
  S   S77       1.0  0.02434  0.34517  0.08661  1.0000
  H   H330      1.0  0.01733  0.52964  0.17394  1.0000
  C   C217      1.0  0.10476  0.58909  0.01164  1.0000
  S   S78       1.0  0.10658  0.52361  0.99918  1.0000
  Fe  Fe36      1.0  0.10177  0.37808  0.00291  1.0000
  C   C218      1.0  0.10074  0.60783  0.00679  1.0000
  H   H331      1.0  0.05732  0.34760  0.02956  1.0000
  H   H332      1.0  0.01863  0.46505  0.11623  1.0000
  C   C219      1.0  0.01344  0.51382  0.06656  1.0000
  H   H333      1.0  0.01067  0.47485  0.08654  1.0000
  C   C220      1.0  0.00271  0.57957  0.14157  1.0000
  H   H334      1.0  0.02505  0.40757  0.01243  1.0000
  H   H335      1.0  0.03534  0.44661  0.02177  1.0000
  C   C221      1.0  0.05489  0.39588  0.06095  1.0000
  C   C222      1.0  0.07078  0.38378  0.05541  1.0000
  H   H336      1.0  0.04455  0.39100  0.07166  1.0000
  H   H337      1.0  0.07249  0.36990  0.06219  1.0000
  N   N21       1.0  0.02651  0.43531  0.00511  1.0000
  C   C223      1.0  0.03727  0.44664  0.00743  1.0000
  H   H338      1.0  0.07274  0.63783  0.04331  1.0000
  C   C224      1.0  0.06202  0.34797  0.04131  1.0000
  H   H339      1.0  0.09189  0.41221  0.02104  1.0000
  H   H340      1.0  0.04798  0.50250  0.03223  1.0000
  H   H341      1.0  0.04659  0.61063  0.03365  1.0000
  S   S79       1.0  0.10586  0.62037  0.01890  1.0000
  C   C225      1.0  0.05237  0.41396  0.05247  1.0000
  C   C226      1.0  0.05052  0.51276  0.05344  1.0000
  C   C227      1.0  0.06839  0.62697  0.05461  1.0000
  H   H342      1.0  0.05652  0.46929  0.09416  1.0000
  H   H343      1.0  0.01361  0.45188  0.08574  1.0000
  C   C228      1.0  0.02080  0.46290  0.08270  1.0000
  H   H344      1.0  0.03001  0.48817  0.15670  1.0000
  H   H345      1.0  0.02141  0.44214  0.11546  1.0000
  S   S80       1.0  0.07775  0.49955  0.99975  1.0000
  H   H346      1.0  0.03552  0.48482  0.09156  1.0000
  H   H347      1.0  0.04715  0.41132  0.00942  1.0000
  C   C229      1.0  0.08851  0.32440  0.03579  1.0000
  C   C230      1.0  0.03366  0.49533  0.18653  1.0000
  N   N22       1.0  0.03581  0.45769  0.09209  1.0000
  H   H348      1.0  0.02580  0.46630  0.06794  1.0000
  N   N23       1.0  0.01764  0.50164  0.17848  1.0000
  H   H349      1.0  0.00552  0.34516  0.12339  1.0000
  C   C231      1.0  0.01596  0.32855  0.10405  1.0000
  H   H350      1.0  0.06257  0.62476  0.02389  1.0000
  C   C232      1.0  0.02852  0.45336  0.11159  1.0000
  C   C233      1.0  0.04137  0.51923  0.06887  1.0000
  H   H351      1.0  0.04171  0.64872  0.03938  1.0000
  H   H352      1.0  0.04289  0.61294  0.08050  1.0000
  H   H353      1.0  0.08956  0.63084  0.98831  1.0000
  C   C234      1.0  0.04892  0.44186  0.08655  1.0000
  H   H354      1.0  0.06513  0.63186  0.06712  1.0000
  C   C235      1.0  0.04500  0.47268  0.08750  1.0000
  H   H355      1.0  0.03945  0.44932  0.11913  1.0000
  H   H356      1.0  0.04251  0.43019  0.09003  1.0000
  S   S81       1.0  0.00931  0.54609  0.13531  1.0000
  H   H357      1.0  0.02978  0.49502  0.20110  1.0000
  H   H358      1.0  0.06061  0.43776  0.09307  1.0000
  H   H359      1.0  0.05435  0.44455  0.07182  1.0000
  Fe  Fe37      1.0  0.00927  0.37310  0.08929  1.0000
  S   S82       1.0  0.07393  0.51073  0.04616  1.0000
  C   C236      1.0  0.02277  0.52011  0.07520  1.0000
  H   H360      1.0  0.10463  0.56455  0.00519  1.0000
  C   C237      1.0  0.05802  0.61467  0.03592  1.0000
  H   H361      1.0  0.05199  0.44184  0.00218  1.0000
  C   C238      1.0  0.00708  0.33209  0.12091  1.0000
  C   C239      1.0  0.02343  0.50180  0.15920  1.0000
  C   C240      1.0  0.03249  0.41659  0.01441  1.0000
  H   H362      1.0  0.03300  0.51078  0.15212  1.0000
  S   S83       1.0  0.00614  0.39300  0.06369  1.0000
  C   C241      1.0  0.04099  0.50742  0.04421  1.0000
  C   C242      1.0  0.02248  0.50777  0.05087  1.0000
  S   S84       1.0  0.00443  0.50542  0.12102  1.0000
  H   H363      1.0  0.01138  0.47562  0.18525  1.0000
  H   H364      1.0  0.04865  0.52370  0.07582  1.0000
  C   C243      1.0  0.04697  0.60795  0.06792  1.0000
  H   H365      1.0  0.03303  0.64308  0.06302  1.0000
  C   C244      1.0  0.03766  0.63769  0.05067  1.0000
  H   H366      1.0  0.02578  0.63448  0.04836  1.0000
  H   H367      1.0  0.04340  0.50426  0.18024  1.0000
  N   N24       1.0  0.05275  0.62182  0.05227  1.0000
  Fe  Fe38      1.0  0.08035  0.51697  0.01629  1.0000
  H   H368      1.0  0.03326  0.46082  0.00036  1.0000
  C   C245      1.0  0.00502  0.48951  0.18714  1.0000
  H   H369      1.0  0.06945  0.60272  0.03665  1.0000
  Fe  Fe39      1.0  0.01219  0.41176  0.07629  1.0000
  H   H370      1.0  0.11113  0.58233  0.02282  1.0000
  S   S85       1.0  0.06298  0.54186  0.00343  1.0000
  H   H371      1.0  0.04095  0.48158  0.18478  1.0000
  H   H372      1.0  0.01527  0.58089  0.13195  1.0000
  C   C246      1.0  0.00844  0.51996  0.18094  1.0000
  H   H373      1.0  0.04986  0.35298  0.05122  1.0000
  H   H374      1.0  0.05051  0.47638  0.07284  1.0000
  H   H375      1.0  0.01527  0.50309  0.04403  1.0000
  Fe  Fe40      1.0  0.09687  0.65003  0.00894  1.0000
  H   H376      1.0  0.12521  0.32584  0.99565  1.0000
  S   S86       1.0  0.08894  0.35980  0.99606  1.0000
  H   H377      1.0  0.03520  0.60372  0.06660  1.0000
  H   H378      1.0  0.08030  0.61550  0.05514  1.0000
  H   H379      1.0  0.05808  0.59581  0.06954  1.0000
  H   H380      1.0  0.08696  0.34040  0.06136  1.0000
  H   H381      1.0  0.06548  0.33635  0.07505  1.0000
  C   C247      1.0  0.00717  0.44186  0.01278  1.0000
  H   H382      1.0  0.00216  0.45594  0.00608  1.0000
  H   H383      1.0  0.09761  0.33400  0.03160  1.0000
  C   C248      1.0  0.09245  0.61646  0.99238  1.0000
  C   C249      1.0  0.07748  0.33126  0.06502  1.0000
  H   H384      1.0  0.00487  0.44139  0.02732  1.0000
  H   H385      1.0  0.00035  0.48895  0.20174  1.0000
  N   N25       1.0  0.07212  0.33018  0.04911  1.0000
  H   H386      1.0  0.00418  0.52056  0.19529  1.0000
  H   H387      1.0  0.05990  0.65503  0.08908  1.0000
  S   S87       1.0  0.03600  0.64628  0.72442  1.0000
  C   C250      1.0  0.04043  0.57255  0.72389  1.0000
  N   N26       1.0  0.03981  0.59158  0.72249  1.0000
  C   C251      1.0  0.05425  0.59761  0.70750  1.0000
  C   C252      1.0  0.02203  0.60252  0.71931  1.0000
  H   H388      1.0  0.02101  0.61696  0.71842  1.0000
  H   H389      1.0  0.05400  0.61198  0.70620  1.0000
  H   H390      1.0  0.06789  0.58974  0.70950  1.0000
  H   H391      1.0  0.05270  0.59622  0.69457  1.0000
  H   H392      1.0  0.01963  0.60138  0.70664  1.0000
  H   H393      1.0  0.05364  0.56384  0.72629  1.0000
  H   H394      1.0  0.03828  0.57041  0.71152  1.0000
  H   H395      1.0  0.01078  0.59823  0.73028  1.0000
  H   H396      1.0  0.02971  0.56766  0.73517  1.0000
  H   H397      1.0  0.09164  0.40122  0.82680  1.0000
  S   S88       1.0  0.04558  0.39137  0.98009  1.0000
  C   C253      1.0  0.11978  0.44144  0.95117  1.0000
  H   H398      1.0  0.16624  0.38711  0.89706  1.0000
  N   N27       1.0  0.04651  0.59258  0.83506  1.0000
  H   H399      1.0  0.10440  0.51835  0.89413  1.0000
  C   C254      1.0  0.03184  0.47237  0.82836  1.0000
  S   S89       1.0  0.03626  0.46997  0.93915  1.0000
  H   H400      1.0  0.08152  0.39934  0.92363  1.0000
  H   H401      1.0  0.12951  0.65518  0.85063  1.0000
  S   S90       1.0  0.03759  0.47011  0.88905  1.0000
  Fe  Fe41      1.0  0.08367  0.36673  0.85287  1.0000
  S   S91       1.0  0.11189  0.35936  0.85715  1.0000
  S   S92       1.0  0.07798  0.37224  0.82577  1.0000
  Fe  Fe42      1.0  0.06641  0.36779  0.89158  1.0000
  S   S93       1.0  0.09312  0.36071  0.89929  1.0000
  S   S94       1.0  0.03949  0.37384  0.91014  1.0000
  Fe  Fe43      1.0  0.10139  0.38004  0.87384  1.0000
  S   S95       1.0  0.11827  0.39902  0.87241  1.0000
  Fe  Fe44      1.0  0.10077  0.34076  0.88200  1.0000
  S   S96       1.0  0.07399  0.38889  0.86752  1.0000
  S   S97       1.0  0.07332  0.34628  0.87630  1.0000
  Fe  Fe45      1.0  0.06285  0.52527  0.98519  1.0000
  C   C255      1.0  0.06231  0.32534  0.84682  1.0000
  S   S98       1.0  0.08333  0.48166  0.85617  1.0000
  C   C256      1.0  0.08634  0.41199  0.91737  1.0000
  C   C257      1.0  0.10859  0.46317  0.97019  1.0000
  S   S99       1.0  0.09652  0.38400  0.95560  1.0000
  H   H402      1.0  0.03149  0.47913  0.85262  1.0000
  H   H403      1.0  0.04630  0.47079  0.82377  1.0000
  C   C258      1.0  0.09308  0.41535  0.82260  1.0000
  H   H404      1.0  0.08079  0.42453  0.94690  1.0000
  H   H405      1.0  0.05822  0.43081  0.90217  1.0000
  C   C259      1.0  0.10701  0.50909  0.92781  1.0000
  H   H406      1.0  0.04775  0.61246  0.84785  1.0000
  C   C260      1.0  0.04085  0.37767  0.93022  1.0000
  C   C261      1.0  0.02654  0.38929  0.93900  1.0000
  C   C262      1.0  0.02779  0.39313  0.95465  1.0000
  C   C263      1.0  0.04327  0.38520  0.96160  1.0000
  C   C264      1.0  0.05728  0.37306  0.95321  1.0000
  C   C265      1.0  0.05611  0.36937  0.93748  1.0000
  H   H407      1.0  0.01463  0.39559  0.93351  1.0000
  S   S100      1.0  0.12600  0.37640  0.97997  1.0000
  H   H408      1.0  0.06890  0.36629  0.95898  1.0000
  H   H409      1.0  0.06681  0.35980  0.93123  1.0000
  H   H410      1.0  0.05049  0.41641  0.92306  1.0000
  C   C266      1.0  0.12283  0.47174  0.96071  1.0000
  S   S101      1.0  0.12422  0.33736  0.95802  1.0000
  H   H411      1.0  0.04493  0.44015  0.92106  1.0000
  H   H412      1.0  0.04857  0.43507  0.82476  1.0000
  C   C267      1.0  0.09276  0.45867  0.85959  1.0000
  C   C268      1.0  0.08181  0.44626  0.86448  1.0000
  C   C269      1.0  0.08958  0.42788  0.86806  1.0000
  C   C270      1.0  0.10828  0.42188  0.86676  1.0000
  C   C271      1.0  0.11919  0.43434  0.86160  1.0000
  C   C272      1.0  0.11147  0.45270  0.85785  1.0000
  H   H413      1.0  0.06738  0.45083  0.86559  1.0000
  H   H414      1.0  0.08097  0.41846  0.87248  1.0000
  H   H415      1.0  0.13364  0.42983  0.86058  1.0000
  H   H416      1.0  0.11997  0.46229  0.85399  1.0000
  C   C273      1.0  0.10721  0.44783  0.96558  1.0000
  H   H417      1.0  0.05291  0.46868  0.96757  1.0000
  C   C274      1.0  0.13528  0.46524  0.94641  1.0000
  C   C275      1.0  0.02844  0.50430  0.94309  1.0000
  C   C276      1.0  0.05458  0.37666  0.82826  1.0000
  C   C277      1.0  0.04329  0.37567  0.84531  1.0000
  C   C278      1.0  0.02480  0.37690  0.84759  1.0000
  C   C279      1.0  0.01765  0.37906  0.83280  1.0000
  C   C280      1.0  0.02868  0.38139  0.81562  1.0000
  C   C281      1.0  0.04720  0.38018  0.81333  1.0000
  H   H418      1.0  0.04880  0.37338  0.85688  1.0000
  H   H419      1.0  0.01623  0.37532  0.86089  1.0000
  C   C282      1.0  0.03518  0.64953  0.83486  1.0000
  H   H420      1.0  0.05586  0.38128  0.80009  1.0000
  C   C283      1.0  0.07586  0.42204  0.79992  1.0000
  H   H421      1.0  0.06121  0.43024  0.84172  1.0000
  C   C284      1.0  0.15948  0.35472  0.91440  1.0000
  H   H422      1.0  0.08189  0.61322  0.97170  1.0000
  H   H423      1.0  0.10591  0.41574  0.81233  1.0000
  H   H424      1.0  0.13462  0.60781  0.91225  1.0000
  C   C285      1.0  0.03303  0.64949  0.81807  1.0000
  N   N28       1.0  0.12800  0.61453  0.93788  1.0000
  H   H425      1.0  0.08667  0.32610  0.92067  1.0000
  H   H426      1.0  0.06743  0.59169  0.92389  1.0000
  N   N29       1.0  0.07254  0.42758  0.92255  1.0000
  C   C286      1.0  0.06856  0.42535  0.94214  1.0000
  C   C287      1.0  0.07988  0.44598  0.81036  1.0000
  N   N30       1.0  0.14624  0.37205  0.91291  1.0000
  C   C288      1.0  0.14344  0.37926  0.92886  1.0000
  C   C289      1.0  0.15306  0.38486  0.89673  1.0000
  H   H427      1.0  0.13847  0.36984  0.94132  1.0000
  S   S102      1.0  0.12579  0.49062  0.96597  1.0000
  H   H428      1.0  0.05905  0.34310  0.81382  1.0000
  H   H429      1.0  0.11968  0.49866  0.92573  1.0000
  C   C290      1.0  0.14187  0.65359  0.88182  1.0000
  Fe  Fe46      1.0  0.07491  0.38507  0.98042  1.0000
  H   H430      1.0  0.12330  0.35975  0.92359  1.0000
  H   H431      1.0  0.06546  0.51924  0.91827  1.0000
  H   H432      1.0  0.14325  0.44562  0.93029  1.0000
  H   H433      1.0  0.07120  0.52156  0.93756  1.0000
  C   C291      1.0  0.06431  0.64693  0.92794  1.0000
  H   H434      1.0  0.08962  0.41315  0.90273  1.0000
  C   C292      1.0  0.03455  0.58048  0.83714  1.0000
  H   H435      1.0  0.01688  0.40245  0.96116  1.0000
  Fe  Fe47      1.0  0.03314  0.48390  0.91129  1.0000
  H   H436      1.0  0.06387  0.32586  0.93302  1.0000
  Fe  Fe48      1.0  0.10855  0.40045  0.96562  1.0000
  H   H437      1.0  0.06404  0.43085  0.79444  1.0000
  H   H438      1.0  0.07398  0.40806  0.80342  1.0000
  H   H439      1.0  0.06627  0.58354  0.89445  1.0000
  C   C293      1.0  0.05583  0.42880  0.91693  1.0000
  S   S103      1.0  0.11834  0.42288  0.94423  1.0000
  C   C294      1.0  0.13356  0.45041  0.94145  1.0000
  H   H440      1.0  0.09917  0.41079  0.92129  1.0000
  C   C295      1.0  0.07947  0.44403  0.91386  1.0000
  S   S104      1.0  0.01651  0.48609  0.75045  1.0000
  S   S105      1.0  0.01232  0.35975  0.79093  1.0000
  H   H441      1.0  0.15493  0.38004  0.88438  1.0000
  H   H442      1.0  0.09466  0.41909  0.83440  1.0000
  H   H443      1.0  0.05812  0.43675  0.94656  1.0000
  H   H444      1.0  0.17273  0.35618  0.91545  1.0000
  H   H445      1.0  0.16185  0.34887  0.90259  1.0000
  C   C296      1.0  0.12890  0.36936  0.91166  1.0000
  S   S106      1.0  0.03187  0.46565  0.79669  1.0000
  H   H446      1.0  0.08296  0.44599  0.89907  1.0000
  H   H447      1.0  0.09896  0.46807  0.98131  1.0000
  C   C297      1.0  0.06066  0.42621  0.82965  1.0000
  H   H448      1.0  0.09278  0.44717  0.80040  1.0000
  C   C298      1.0  0.02148  0.47040  0.81774  1.0000
  H   H449      1.0  0.06928  0.45611  0.91720  1.0000
  H   H450      1.0  0.06337  0.41306  0.94909  1.0000
  H   H451      1.0  0.13057  0.36402  0.89968  1.0000
  N   N31       1.0  0.07738  0.42739  0.81564  1.0000
  H   H452      1.0  0.08015  0.45082  0.82208  1.0000
  Fe  Fe49      1.0  0.11171  0.36019  0.97195  1.0000
  H   H453      1.0  0.09190  0.44354  0.91816  1.0000
  H   H454      1.0  0.11858  0.38213  0.91052  1.0000
  H   H455      1.0  0.15459  0.34479  0.92649  1.0000
  H   H456      1.0  0.06877  0.45528  0.80413  1.0000
  H   H457      1.0  0.05842  0.41231  0.83390  1.0000
  H   H458      1.0  0.08818  0.42278  0.78902  1.0000
  H   H459      1.0  0.09642  0.44106  0.97308  1.0000
  C   C299      1.0  0.04610  0.48234  0.96300  1.0000
  H   H460      1.0  0.15108  0.59674  0.92553  1.0000
  C   C300      1.0  0.06469  0.65024  0.80575  1.0000
  C   C301      1.0  0.02339  0.47730  0.84469  1.0000
  H   H461      1.0  0.03470  0.60538  0.93000  1.0000
  H   H462      1.0  0.05592  0.63373  0.95540  1.0000
  H   H463      1.0  0.11044  0.52235  0.92120  1.0000
  H   H464      1.0  0.04978  0.58652  0.97288  1.0000
  C   C302      1.0  0.07659  0.52095  0.92323  1.0000
  Fe  Fe50      1.0  0.01049  0.60663  0.78037  1.0000
  Fe  Fe51      1.0  0.01557  0.49293  0.88007  1.0000
  C   C303      1.0  0.01783  0.54805  0.77517  1.0000
  C   C304      1.0  0.08181  0.56194  0.88158  1.0000
  C   C305      1.0  0.05215  0.64934  0.83725  1.0000
  H   H465      1.0  0.05747  0.61325  0.81487  1.0000
  S   S107      1.0  0.03211  0.62151  0.77619  1.0000
  H   H466      1.0  0.10604  0.62782  0.92455  1.0000
  C   C306      1.0  0.00162  0.52496  0.82417  1.0000
  S   S108      1.0  0.01202  0.64773  0.81620  1.0000
  Fe  Fe52      1.0  0.09975  0.59663  0.87678  1.0000
  S   S109      1.0  0.07371  0.61615  0.87306  1.0000
  S   S110      1.0  0.10268  0.56737  0.87838  1.0000
  Fe  Fe53      1.0  0.11790  0.62564  0.87755  1.0000
  H   H467      1.0  0.02375  0.64933  0.84616  1.0000
  S   S111      1.0  0.14344  0.63180  0.87961  1.0000
  Fe  Fe54      1.0  0.07816  0.62746  0.89385  1.0000
  S   S112      1.0  0.05809  0.63233  0.91908  1.0000
  Fe  Fe55      1.0  0.09157  0.63368  0.85355  1.0000
  H   H468      1.0  0.03682  0.34419  0.82811  1.0000
  S   S113      1.0  0.10299  0.60666  0.89895  1.0000
  S   S114      1.0  0.11745  0.61331  0.85567  1.0000
  H   H469      1.0  0.03667  0.57685  0.89703  1.0000
  Fe  Fe56      1.0  0.08881  0.54720  0.98480  1.0000
  H   H470      1.0  0.09628  0.32495  0.94800  1.0000
  H   H471      1.0  0.06922  0.59690  0.94367  1.0000
  H   H472      1.0  0.06370  0.57334  0.85123  1.0000
  H   H473      1.0  0.13003  0.58978  0.93090  1.0000
  H   H474      1.0  0.08303  0.48875  0.94553  1.0000
  C   C307      1.0  0.03682  0.48657  0.94926  1.0000
  H   H475      1.0  0.10268  0.50848  0.94238  1.0000
  C   C308      1.0  0.04691  0.49596  0.97053  1.0000
  C   C309      1.0  0.02889  0.51778  0.95085  1.0000
  H   H476      1.0  0.05503  0.55681  0.94243  1.0000
  C   C310      1.0  0.04860  0.33520  0.82129  1.0000
  H   H477      1.0  0.05406  0.49275  0.98112  1.0000
  H   H478      1.0  0.15141  0.62596  0.93049  1.0000
  Fe  Fe57      1.0  0.01078  0.47688  0.78031  1.0000
  H   H479      1.0  0.03628  0.59547  0.86228  1.0000
  C   C311      1.0  0.13660  0.63007  0.93113  1.0000
  H   H480      1.0  0.10171  0.63026  0.94706  1.0000
  H   H481      1.0  0.14520  0.60091  0.95648  1.0000
  H   H482      1.0  0.03126  0.56624  0.94737  1.0000
  H   H483      1.0  0.02077  0.58817  0.83541  1.0000
  H   H484      1.0  0.11130  0.49444  0.89973  1.0000
  H   H485      1.0  0.07704  0.57434  0.94073  1.0000
  N   N32       1.0  0.09276  0.50623  0.92094  1.0000
  H   H486      1.0  0.02302  0.38380  0.80410  1.0000
  C   C312      1.0  0.13061  0.60568  0.95616  1.0000
  S   S115      1.0  0.08834  0.64871  0.82585  1.0000
  C   C313      1.0  0.06442  0.54303  0.87779  1.0000
  Fe  Fe58      1.0  0.02077  0.63902  0.75274  1.0000
  C   C314      1.0  0.08111  0.54717  0.87582  1.0000
  H   H487      1.0  0.02541  0.61275  0.84630  1.0000
  H   H488      1.0  0.14321  0.65433  0.82874  1.0000
  H   H489      1.0  0.09981  0.47757  0.92957  1.0000
  H   H490      1.0  0.03995  0.57192  0.82713  1.0000
  C   C315      1.0  0.06579  0.57244  0.88951  1.0000
  S   S116      1.0  0.01796  0.57652  0.78775  1.0000
  H   H491      1.0  0.07395  0.59073  0.83612  1.0000
  H   H492      1.0  0.02847  0.54069  0.78223  1.0000
  H   H493      1.0  0.03646  0.61050  0.94978  1.0000
  C   C316      1.0  0.04832  0.60413  0.81694  1.0000
  H   H494      1.0  0.14633  0.47174  0.93909  1.0000
  C   C317      1.0  0.06457  0.58197  0.83764  1.0000
  C   C318      1.0  0.04838  0.55379  0.88538  1.0000
  C   C319      1.0  0.04716  0.57663  0.96699  1.0000
  Fe  Fe59      1.0  0.03026  0.52075  0.88705  1.0000
  S   S117      1.0  0.09078  0.57587  0.97271  1.0000
  C   C320      1.0  0.03812  0.51366  0.96454  1.0000
  H   H495      1.0  0.02214  0.53145  0.94613  1.0000
  H   H496      1.0  0.05391  0.59613  0.80646  1.0000
  H   H497      1.0  0.08904  0.50481  0.89573  1.0000
  C   C321      1.0  0.03424  0.59992  0.94453  1.0000
  C   C322      1.0  0.06694  0.64960  0.82273  1.0000
  H   H498      1.0  0.05751  0.56412  0.96965  1.0000
  S   S118      1.0  0.03411  0.51076  0.86246  1.0000
  C   C323      1.0  0.04468  0.56953  0.94049  1.0000
  H   H499      1.0  0.02037  0.59777  0.95114  1.0000
  H   H500      1.0  0.06395  0.53203  0.87265  1.0000
  H   H501      1.0  0.09342  0.53929  0.86924  1.0000
  C   C324      1.0  0.03863  0.60380  0.84847  1.0000
  C   C325      1.0  0.13631  0.60163  0.92614  1.0000
  S   S119      1.0  0.05349  0.50042  0.89645  1.0000
  H   H502      1.0  0.03498  0.61261  0.81467  1.0000
  S   S120      1.0  0.00940  0.50515  0.90373  1.0000
  H   H503      1.0  0.07088  0.57314  0.82794  1.0000
  N   N33       1.0  0.04807  0.58319  0.94763  1.0000
  H   H504      1.0  0.14337  0.39811  0.89536  1.0000
  C   C326      1.0  0.04908  0.56850  0.89120  1.0000
  H   H505      1.0  0.07973  0.53416  0.91578  1.0000
  H   H506      1.0  0.15618  0.38169  0.93015  1.0000
  S   S121      1.0  0.09320  0.64721  0.87390  1.0000
  Fe  Fe60      1.0  0.01032  0.63955  0.79210  1.0000
  C   C327      1.0  0.06624  0.58665  0.93854  1.0000
  H   H507      1.0  0.04350  0.43113  0.97980  1.0000
  C   C328      1.0  0.08793  0.48899  0.93097  1.0000
  H   H508      1.0  0.04492  0.57415  0.92599  1.0000
  H   H509      1.0  0.03377  0.57354  0.97433  1.0000
  C   C329      1.0  0.08838  0.60644  0.98277  1.0000
  S   S122      1.0  0.02737  0.54955  0.88684  1.0000
  S   S123      1.0  0.08741  0.53232  0.96551  1.0000
  H   H510      1.0  0.13334  0.39221  0.92830  1.0000
  H   H511      1.0  0.07700  0.48650  0.92633  1.0000
  H   H512      1.0  0.10152  0.60934  0.94277  1.0000
  S   S124      1.0  0.03869  0.53100  0.97359  1.0000
  C   C330      1.0  0.09964  0.50593  0.90179  1.0000
  H   H513      1.0  0.02127  0.50769  0.93254  1.0000
  H   H514      1.0  0.03302  0.57143  0.85066  1.0000
  H   H515      1.0  0.12440  0.61492  0.96549  1.0000
  Fe  Fe61      1.0  0.05571  0.48888  0.87328  1.0000
  H   H516      1.0  0.12436  0.59381  0.96161  1.0000
  C   C331      1.0  0.00457  0.48031  0.85041  1.0000
  H   H517      1.0  0.01771  0.52555  0.76526  1.0000
  C   C332      1.0  0.10846  0.62073  0.93809  1.0000
  C   C333      1.0  0.01178  0.53949  0.76555  1.0000
  C   C334      1.0  0.06193  0.64450  0.94645  1.0000
  Fe  Fe62      1.0  0.10264  0.50801  0.98152  1.0000
  H   H518      1.0  0.07611  0.65054  0.79447  1.0000
  H   H519      1.0  0.13473  0.63709  0.91744  1.0000
  H   H520      1.0  0.04395  0.33129  0.81130  1.0000
  C   C335      1.0  0.04775  0.65000  0.80343  1.0000
  H   H521      1.0  0.06562  0.65408  0.96767  1.0000
  H   H522      1.0  0.03164  0.58970  0.75080  1.0000
  H   H523      1.0  0.13060  0.64002  0.93975  1.0000
  C   C336      1.0  0.01028  0.56610  0.77554  1.0000
  C   C337      1.0  0.04251  0.59371  0.73928  1.0000
  H   H524      1.0  0.00798  0.52022  0.83595  1.0000
  H   H525      1.0  0.01111  0.53163  0.81286  1.0000
  Fe  Fe63      1.0  0.01286  0.33034  0.79947  1.0000
  H   H526      1.0  0.05372  0.64918  0.85031  1.0000
  H   H527      1.0  0.07324  0.33277  0.83968  1.0000
  H   H528      1.0  0.05561  0.58536  0.74234  1.0000
  H   H529      1.0  0.00048  0.41538  0.83136  1.0000
  H   H530      1.0  0.05124  0.33450  0.85423  1.0000
  H   H531      1.0  0.12033  0.65172  0.83408  1.0000
  S   S125      1.0  0.00097  0.62265  0.75558  1.0000
  C   C338      1.0  0.00268  0.47298  0.82365  1.0000
  H   H532      1.0  0.04610  0.65012  0.79040  1.0000
  H   H533      1.0  0.00053  0.51288  0.82053  1.0000
  H   H534      1.0  0.17077  0.65086  0.87593  1.0000
  H   H535      1.0  0.07343  0.32518  0.96039  1.0000
  C   C339      1.0  0.06749  0.65594  0.95340  1.0000
  H   H536      1.0  0.02478  0.45011  0.97835  1.0000
  H   H537      1.0  0.04241  0.60786  0.73863  1.0000
  C   C340      1.0  0.02907  0.43617  0.98586  1.0000
  H   H538      1.0  0.02114  0.42777  0.98358  1.0000
  H   H539      1.0  0.15707  0.75375  0.06289  1.0000
  S   S126      1.0  0.09342  0.66999  0.02544  1.0000
  Fe  Fe64      1.0  0.01307  0.72839  0.21438  1.0000
  H   H540      1.0  0.15908  0.74899  0.08551  1.0000
  H   H541      1.0  0.21902  0.97052  0.18403  1.0000
  H   H542      1.0  0.22792  0.95110  0.19942  1.0000
  S   S127      1.0  0.08111  0.86586  0.23465  1.0000
  H   H543      1.0  0.24298  0.96268  0.18167  1.0000
  C   C341      1.0  0.06232  0.80894  0.22633  1.0000
  S   S128      1.0  0.12238  0.70722  0.99236  1.0000
  C   C342      1.0  0.31167  0.97426  0.16291  1.0000
  H   H544      1.0  0.01431  0.69311  0.11302  1.0000
  H   H545      1.0  0.13370  0.72685  0.06815  1.0000
  C   C343      1.0  0.15799  0.72052  0.01097  1.0000
  S   S129      1.0  0.18318  0.70289  0.03106  1.0000
  N   N34       1.0  0.02579  0.69790  0.13223  1.0000
  Fe  Fe65      1.0  0.06697  0.68149  0.01691  1.0000
  H   H546      1.0  0.19104  0.70644  0.98721  1.0000
  S   S130      1.0  0.03989  0.69041  0.03430  1.0000
  S   S131      1.0  0.02623  0.73364  0.23329  1.0000
  Fe  Fe66      1.0  0.32127  0.77562  0.01799  1.0000
  H   H547      1.0  0.01488  0.67433  0.14367  1.0000
  S   S132      1.0  0.21578  0.72954  0.03359  1.0000
  H   H548      1.0  0.25830  0.96687  0.20248  1.0000
  C   C344      1.0  0.16455  0.70465  0.02234  1.0000
  C   C345      1.0  0.15686  0.68982  0.02591  1.0000
  C   C346      1.0  0.14311  0.69065  0.01750  1.0000
  H   H549      1.0  0.24419  0.95447  0.22056  1.0000
  H   H550      1.0  0.16195  0.67750  0.03469  1.0000
  H   H551      1.0  0.13766  0.67899  0.01972  1.0000
  Fe  Fe67      1.0  0.22126  0.97821  0.14400  1.0000
  S   S133      1.0  0.32476  0.86476  0.11696  1.0000
  C   C347      1.0  0.05142  0.67070  0.06488  1.0000
  C   C348      1.0  0.03670  0.67994  0.05703  1.0000
  C   C349      1.0  0.01907  0.68053  0.06735  1.0000
  C   C350      1.0  0.01614  0.67165  0.08538  1.0000
  S   S134      1.0  0.07833  0.70003  0.99226  1.0000
  C   C351      1.0  0.03085  0.66243  0.09321  1.0000
  H   H552      1.0  0.13763  0.75066  0.08065  1.0000
  H   H553      1.0  0.32572  0.91994  0.12529  1.0000
  H   H554      1.0  0.21166  0.98672  0.22545  1.0000
  S   S135      1.0  0.02205  0.70355  0.20336  1.0000
  H   H555      1.0  0.15310  0.73015  0.05044  1.0000
  Fe  Fe68      1.0  0.19444  0.72768  0.02109  1.0000
  C   C352      1.0  0.13705  0.70636  0.00562  1.0000
  C   C353      1.0  0.00621  0.68521  0.19016  1.0000
  H   H556      1.0  0.32576  0.94191  0.15073  1.0000
  H   H557      1.0  0.13625  0.72035  0.09977  1.0000
  C   C354      1.0  0.14422  0.72138  0.00271  1.0000
  C   C355      1.0  0.02683  0.67944  0.14306  1.0000
  H   H558      1.0  0.18221  0.72796  0.05756  1.0000
  H   H559      1.0  0.13949  0.73358  0.99355  1.0000
  C   C356      1.0  0.29597  0.98084  0.15610  1.0000
  H   H560      1.0  0.18432  0.72338  0.08013  1.0000
  H   H561      1.0  0.16386  0.73201  0.00809  1.0000
  C   C357      1.0  0.17722  0.72063  0.07127  1.0000
  H   H562      1.0  0.31768  0.96776  0.12577  1.0000
  N   N35       1.0  0.15737  0.72639  0.07682  1.0000
  H   H563      1.0  0.18151  0.70612  0.07114  1.0000
  H   H564      1.0  0.31327  0.86937  0.07521  1.0000
  H   H565      1.0  0.15238  0.70831  0.06405  1.0000
  C   C358      1.0  0.14870  0.72278  0.06439  1.0000
  C   C359      1.0  0.15249  0.74576  0.07650  1.0000
  H   H566      1.0  0.20074  0.98322  0.21024  1.0000
  H   H567      1.0  0.33232  0.83182  0.10485  1.0000
  C   C360      1.0  0.04602  0.81897  0.23430  1.0000
  H   H568      1.0  0.03902  0.67001  0.13734  1.0000
  H   H569      1.0  0.28613  0.87028  0.12465  1.0000
  H   H570      1.0  0.09911  0.81496  0.20055  1.0000
  C   C361      1.0  0.29686  0.88929  0.04784  1.0000
  C   C362      1.0  0.08131  0.84984  0.19441  1.0000
  H   H571      1.0  0.07097  0.84263  0.16830  1.0000
  H   H572      1.0  0.08916  0.82356  0.16490  1.0000
  C   C363      1.0  0.06229  0.79525  0.21854  1.0000
  H   H573      1.0  0.27451  0.88207  0.09126  1.0000
  H   H574      1.0  0.07330  0.82313  0.18603  1.0000
  C   C364      1.0  0.20401  0.79535  0.04713  1.0000
  H   H575      1.0  0.19976  0.94552  0.14025  1.0000
  S   S136      1.0  0.19204  0.76405  0.06267  1.0000
  H   H576      1.0  0.23181  0.78894  0.16020  1.0000
  H   H577      1.0  0.29549  0.91842  0.05891  1.0000
  H   H578      1.0  0.22086  0.80643  0.18364  1.0000
  H   H579      1.0  0.24556  0.77914  0.18664  1.0000
  H   H580      1.0  0.15552  0.93764  0.17064  1.0000
  H   H581      1.0  0.07110  0.86107  0.18863  1.0000
  S   S137      1.0  0.19494  0.97205  0.16170  1.0000
  Fe  Fe69      1.0  0.21378  0.86812  0.10876  1.0000
  C   C365      1.0  0.04849  0.66204  0.08299  1.0000
  H   H582      1.0  0.17325  0.94591  0.13026  1.0000
  C   C366      1.0  0.20237  0.80272  0.07994  1.0000
  N   N36       1.0  0.29218  0.89123  0.06656  1.0000
  S   S138      1.0  0.20462  0.89761  0.10823  1.0000
  H   H583      1.0  0.07495  0.81174  0.22607  1.0000
  C   C367      1.0  0.00526  0.70148  0.19417  1.0000
  C   C368      1.0  0.32626  0.98279  0.15578  1.0000
  Fe  Fe70      1.0  0.25268  0.96256  0.11651  1.0000
  S   S139      1.0  0.24533  0.95549  0.14630  1.0000
  S   S140      1.0  0.26401  0.93877  0.10370  1.0000
  H   H584      1.0  0.01732  0.67399  0.19280  1.0000
  C   C369      1.0  0.26934  0.74553  0.00426  1.0000
  C   C370      1.0  0.02967  0.81488  0.23497  1.0000
  H   H585      1.0  0.02743  0.67864  0.15701  1.0000
  H   H586      1.0  0.11124  0.84340  0.15561  1.0000
  S   S141      1.0  0.21298  0.77036  0.00937  1.0000
  H   H587      1.0  0.27264  0.91617  0.06222  1.0000
  S   S142      1.0  0.31623  0.83345  0.03000  1.0000
  H   H588      1.0  0.15049  0.98122  0.21660  1.0000
  H   H589      1.0  0.27335  0.80664  0.14927  1.0000
  H   H590      1.0  0.28242  0.91238  0.08100  1.0000
  Fe  Fe71      1.0  0.32800  0.81166  0.01473  1.0000
  N   N37       1.0  0.18118  0.92824  0.15389  1.0000
  Fe  Fe72      1.0  0.22810  0.74284  0.00601  1.0000
  H   H591      1.0  0.03842  0.68923  0.10755  1.0000
  H   H592      1.0  0.11142  0.85662  0.17035  1.0000
  H   H593      1.0  0.05446  0.69568  0.12692  1.0000
  C   C371      1.0  0.33260  0.84735  0.04707  1.0000
  H   H594      1.0  0.16700  0.96496  0.19267  1.0000
  C   C372      1.0  0.22135  0.90878  0.10689  1.0000
  C   C373      1.0  0.23838  0.89928  0.11005  1.0000
  C   C374      1.0  0.25134  0.90858  0.10941  1.0000
  C   C375      1.0  0.24731  0.92733  0.10559  1.0000
  C   C376      1.0  0.23021  0.93678  0.10269  1.0000
  C   C377      1.0  0.21731  0.92752  0.10320  1.0000
  H   H595      1.0  0.24147  0.88482  0.11317  1.0000
  H   H596      1.0  0.26441  0.90127  0.11215  1.0000
  H   H597      1.0  0.22708  0.95126  0.09958  1.0000
  H   H598      1.0  0.20420  0.93492  0.10060  1.0000
  H   H599      1.0  0.23578  0.80879  0.14415  1.0000
  C   C378      1.0  0.29589  0.75447  0.00544  1.0000
  S   S143      1.0  0.31039  0.80290  0.00280  1.0000
  H   H600      1.0  0.16842  0.95444  0.15909  1.0000
  C   C379      1.0  0.18194  0.90933  0.16331  1.0000
  Fe  Fe73      1.0  0.19277  0.76488  0.99785  1.0000
  H   H601      1.0  0.11445  0.82953  0.19496  1.0000
  H   H602      1.0  0.16823  0.90627  0.16779  1.0000
  H   H603      1.0  0.18203  0.92296  0.12870  1.0000
  C   C380      1.0  0.30841  0.88402  0.07430  1.0000
  C   C381      1.0  0.28886  0.75465  0.02354  1.0000
  H   H604      1.0  0.02508  0.71176  0.10500  1.0000
  H   H605      1.0  0.29760  0.80289  0.04518  1.0000
  H   H606      1.0  0.30795  0.89612  0.03963  1.0000
  S   S144      1.0  0.22583  0.84857  0.13084  1.0000
  C   C382      1.0  0.16947  0.94007  0.16591  1.0000
  H   H607      1.0  0.15472  0.70167  0.09578  1.0000
  C   C383      1.0  0.28539  0.91037  0.06714  1.0000
  H   H608      1.0  0.29131  0.78316  0.06021  1.0000
  H   H609      1.0  0.09297  0.86234  0.15936  1.0000
  H   H610      1.0  0.22516  0.82615  0.16752  1.0000
  S   S145      1.0  0.27847  0.96918  0.16419  1.0000
  H   H611      1.0  0.26537  0.88658  0.07192  1.0000
  H   H612      1.0  0.31269  0.96237  0.17353  1.0000
  H   H613      1.0  0.30146  0.87498  0.04695  1.0000
  H   H614      1.0  0.18770  0.90607  0.17535  1.0000
  H   H615      1.0  0.24541  0.97643  0.22130  1.0000
  C   C384      1.0  0.27195  0.75056  0.03191  1.0000
  H   H616      1.0  0.00877  0.71038  0.15357  1.0000
  S   S146      1.0  0.30109  0.75990  0.03584  1.0000
  H   H617      1.0  0.28261  0.86676  0.07670  1.0000
  H   H618      1.0  0.15755  0.71874  0.10478  1.0000
  H   H619      1.0  0.01698  0.79798  0.22782  1.0000
  C   C385      1.0  0.22993  0.96458  0.19161  1.0000
  S   S147      1.0  0.01146  0.75579  0.19678  1.0000
  C   C386      1.0  0.04595  0.79123  0.21908  1.0000
  H   H620      1.0  0.26646  0.75073  0.04590  1.0000
  H   H621      1.0  0.26579  0.85374  0.12045  1.0000
  C   C387      1.0  0.29181  0.85829  0.11938  1.0000
  C   C388      1.0  0.10247  0.85090  0.16591  1.0000
  H   H622      1.0  0.04178  0.70436  0.14636  1.0000
  Fe  Fe74      1.0  0.02224  0.76187  0.21714  1.0000
  C   C389      1.0  0.15118  0.71634  0.09511  1.0000
  H   H623      1.0  0.30554  0.88620  0.08810  1.0000
  S   S148      1.0  0.17651  0.75427  0.02477  1.0000
  C   C390      1.0  0.27804  0.88123  0.07702  1.0000
  C   C391      1.0  0.21252  0.97769  0.21671  1.0000
  C   C392      1.0  0.19764  0.78715  0.07942  1.0000
  H   H624      1.0  0.04117  0.71825  0.12444  1.0000
  Fe  Fe75      1.0  0.10518  0.68693  0.99941  1.0000
  C   C393      1.0  0.00893  0.70969  0.13980  1.0000
  C   C394      1.0  0.17369  0.93186  0.13791  1.0000
  H   H625      1.0  0.07493  0.78765  0.21216  1.0000
  H   H626      1.0  0.06504  0.67039  0.05706  1.0000
  H   H627      1.0  0.32132  0.84553  0.05830  1.0000
  C   C395      1.0  0.10591  0.82443  0.18942  1.0000
  C   C396      1.0  0.33093  0.96255  0.11735  1.0000
  C   C397      1.0  0.26207  0.74626  0.02221  1.0000
  H   H628      1.0  0.29275  0.80114  0.06886  1.0000
  C   C398      1.0  0.28030  0.84895  0.11700  1.0000
  C   C399      1.0  0.28862  0.79798  0.05807  1.0000
  H   H629      1.0  0.26954  0.82920  0.06685  1.0000
  H   H630      1.0  0.27520  0.83174  0.04301  1.0000
  C   C400      1.0  0.31064  0.85231  0.11474  1.0000
  C   C401      1.0  0.16988  0.97759  0.19216  1.0000
  H   H631      1.0  0.24901  0.74316  0.02876  1.0000
  H   H632      1.0  0.07383  0.84154  0.20623  1.0000
  C   C402      1.0  0.19843  0.78344  0.06301  1.0000
  H   H633      1.0  0.31213  0.81529  0.10067  1.0000
  C   C403      1.0  0.26642  0.82582  0.05559  1.0000
  C   C404      1.0  0.08103  0.83182  0.17478  1.0000
  H   H634      1.0  0.25211  0.83258  0.05507  1.0000
  H   H635      1.0  0.26128  0.80143  0.08648  1.0000
  H   H636      1.0  0.26759  0.77917  0.17217  1.0000
  C   C405      1.0  0.28626  0.74963  0.99589  1.0000
  N   N38       1.0  0.26940  0.80625  0.05786  1.0000
  H   H637      1.0  0.20158  0.80556  0.09263  1.0000
  S   S149      1.0  0.04648  0.77440  0.20866  1.0000
  C   C406      1.0  0.25793  0.79886  0.07491  1.0000
  H   H638      1.0  0.26574  0.81917  0.16658  1.0000
  H   H639      1.0  0.25982  0.79179  0.18937  1.0000
  H   H640      1.0  0.20912  0.92225  0.14024  1.0000
  C   C407      1.0  0.31790  0.83678  0.10801  1.0000
  H   H641      1.0  0.19329  0.77802  0.09175  1.0000
  H   H642      1.0  0.17481  0.85291  0.14924  1.0000
  H   H643      1.0  0.30892  0.75769  0.99890  1.0000
  H   H644      1.0  0.27297  0.80777  0.02984  1.0000
  H   H645      1.0  0.25971  0.78415  0.07691  1.0000
  C   C408      1.0  0.25550  0.78767  0.17928  1.0000
  S   S150      1.0  0.23447  0.85643  0.08695  1.0000
  C   C409      1.0  0.26463  0.80233  0.04294  1.0000
  H   H646      1.0  0.24333  0.80496  0.07525  1.0000
  H   H647      1.0  0.25568  0.82626  0.14752  1.0000
  H   H648      1.0  0.20443  0.79278  0.03446  1.0000
  C   C410      1.0  0.26118  0.81432  0.15717  1.0000
  H   H649      1.0  0.19049  0.90008  0.15446  1.0000
  Fe  Fe76      1.0  0.24450  0.83526  0.10917  1.0000
  C   C411      1.0  0.28764  0.83346  0.11020  1.0000
  H   H650      1.0  0.26693  0.78765  0.04417  1.0000
  H   H651      1.0  0.25013  0.80827  0.04259  1.0000
  H   H652      1.0  0.08964  0.85580  0.19932  1.0000
  C   C412      1.0  0.02591  0.69808  0.11364  1.0000
  S   S151      1.0  0.19326  0.85281  0.11012  1.0000
  C   C413      1.0  0.30642  0.82735  0.10580  1.0000
  N   N39       1.0  0.24759  0.80337  0.16667  1.0000
  S   S152      1.0  0.27368  0.82132  0.10733  1.0000
  H   H653      1.0  0.25383  0.78934  0.14548  1.0000
  H   H654      1.0  0.14721  0.86983  0.16626  1.0000
  C   C414      1.0  0.15265  0.85601  0.17197  1.0000
  H   H655      1.0  0.17211  0.80645  0.19210  1.0000
  N   N40       1.0  0.09267  0.83924  0.18113  1.0000
  C   C415      1.0  0.02964  0.80092  0.22749  1.0000
  H   H656      1.0  0.11522  0.81663  0.17957  1.0000
  Fe  Fe77      1.0  0.20688  0.83228  0.13077  1.0000
  Fe  Fe78      1.0  0.21502  0.83937  0.08998  1.0000
  H   H657      1.0  0.14454  0.82354  0.20935  1.0000
  H   H658      1.0  0.20525  0.93031  0.16014  1.0000
  C   C416      1.0  0.19963  0.93169  0.14839  1.0000
  Fe  Fe79      1.0  0.10912  0.84905  0.22776  1.0000
  C   C417      1.0  0.20861  0.81094  0.04765  1.0000
  C   C418      1.0  0.16827  0.84644  0.16230  1.0000
  C   C419      1.0  0.15110  0.82994  0.19624  1.0000
  C   C420      1.0  0.16670  0.82030  0.18648  1.0000
  C   C421      1.0  0.23153  0.81420  0.17663  1.0000
  S   S153      1.0  0.12410  0.86026  0.20012  1.0000
  S   S154      1.0  0.25734  0.73954  0.99223  1.0000
  C   C422      1.0  0.18302  0.98450  0.17812  1.0000
  C   C423      1.0  0.24209  0.79724  0.15358  1.0000
  H   H659      1.0  0.31976  0.89053  0.06625  1.0000
  H   H660      1.0  0.15971  0.92958  0.14158  1.0000
  H   H661      1.0  0.23504  0.81901  0.18676  1.0000
  C   C424      1.0  0.17528  0.82854  0.16948  1.0000
  C   C425      1.0  0.14404  0.84781  0.18894  1.0000
  S   S155      1.0  0.19475  0.81634  0.15737  1.0000
  S   S156      1.0  0.21353  0.83448  0.06400  1.0000
  S   S157      1.0  0.22658  0.81737  0.11070  1.0000
  H   H662      1.0  0.28500  0.89509  0.04149  1.0000
  H   H663      1.0  0.30890  0.93947  0.13019  1.0000
  H   H664      1.0  0.21073  0.96445  0.22542  1.0000
  C   C426      1.0  0.20774  0.81471  0.06402  1.0000
  H   H665      1.0  0.21266  0.82022  0.03532  1.0000
  H   H666      1.0  0.17493  0.93803  0.17793  1.0000
  Fe  Fe80      1.0  0.19862  0.75684  0.03585  1.0000
  C   C427      1.0  0.32214  0.93482  0.12134  1.0000
  H   H667      1.0  0.32952  0.96701  0.10322  1.0000
  S   S158      1.0  0.06953  0.66044  0.00227  1.0000
  Fe  Fe81      1.0  0.26015  0.97604  0.14507  1.0000
  C   C428      1.0  0.24507  0.96811  0.21235  1.0000
  H   H668      1.0  0.00247  0.67191  0.09314  1.0000
  H   H669      1.0  0.00764  0.68763  0.06130  1.0000
  N   N41       1.0  0.22981  0.97611  0.20327  1.0000
  S   S159      1.0  0.20866  0.73802  0.99303  1.0000
  S   S160      1.0  0.22727  0.98379  0.11399  1.0000
  S   S161      1.0  0.26964  0.98147  0.11531  1.0000
  H   H670      1.0  0.00734  0.72360  0.13162  1.0000
  C   C429      1.0  0.04152  0.70434  0.13247  1.0000
  H   H671      1.0  0.12784  0.90832  0.23154  1.0000
  H   H672      1.0  0.31999  0.93848  0.10746  1.0000
  H   H673      1.0  0.22399  0.80840  0.98817  1.0000
  C   C430      1.0  0.16049  0.98683  0.20579  1.0000
  H   H674      1.0  0.17958  0.68898  0.99028  1.0000
  H   H675      1.0  0.03820  0.89219  0.28215  1.0000
  H   H676      1.0  0.05860  0.71491  0.41784  1.0000
  C   C431      1.0  0.03344  0.73451  0.41851  1.0000
  C   C432      1.0  0.04921  0.72510  0.42447  1.0000
  S   S162      1.0  0.02951  0.72927  0.40026  1.0000
  C   C433      1.0  0.05303  0.72884  0.43891  1.0000
  C   C434      1.0  0.05370  0.86894  0.46382  1.0000
  H   H677      1.0  0.04144  0.76752  0.27821  1.0000
  S   S163      1.0  0.10269  0.81053  0.48613  1.0000
  H   H678      1.0  0.06538  0.72158  0.44334  1.0000
  H   H679      1.0  0.13348  0.90869  0.43512  1.0000
  C   C435      1.0  0.00753  0.83091  0.42383  1.0000
  H   H680      1.0  0.00495  0.76405  0.26799  1.0000
  H   H681      1.0  0.11437  0.96350  0.46243  1.0000
  Fe  Fe82      1.0  0.08727  0.86211  0.26123  1.0000
  N   N42       1.0  0.05724  0.78322  0.28270  1.0000
  H   H682      1.0  0.08635  0.90580  0.32626  1.0000
  H   H683      1.0  0.01658  0.82076  0.45599  1.0000
  S   S164      1.0  0.07829  0.88475  0.27546  1.0000
  Fe  Fe83      1.0  0.11898  0.96611  0.25011  1.0000
  S   S165      1.0  0.14229  0.97121  0.25715  1.0000
  C   C436      1.0  0.05331  0.77364  0.27131  1.0000
  C   C437      1.0  0.00140  0.76021  0.28239  1.0000
  S   S166      1.0  0.12921  0.96473  0.30829  1.0000
  S   S167      1.0  0.09961  0.97097  0.27563  1.0000
  C   C438      1.0  0.09067  0.90128  0.26429  1.0000
  H   H684      1.0  0.02718  0.85883  0.45667  1.0000
  S   S168      1.0  0.12519  0.94267  0.23745  1.0000
  C   C439      1.0  0.11474  0.97334  0.32651  1.0000
  C   C440      1.0  0.09597  0.93069  0.26099  1.0000
  C   C441      1.0  0.08568  0.91767  0.26946  1.0000
  H   H685      1.0  0.13607  0.96430  0.36967  1.0000
  H   H686      1.0  0.13620  0.89707  0.32019  1.0000
  H   H687      1.0  0.09191  0.94342  0.26480  1.0000
  H   H688      1.0  0.07380  0.92037  0.27989  1.0000
  H   H689      1.0  0.02380  0.85239  0.32872  1.0000
  H   H690      1.0  0.01038  0.79962  0.46241  1.0000
  H   H691      1.0  0.09130  0.89380  0.46133  1.0000
  H   H692      1.0  0.07124  0.75912  0.29770  1.0000
  C   C442      1.0  0.16176  0.98204  0.36546  1.0000
  C   C443      1.0  0.03477  0.87879  0.28756  1.0000
  H   H693      1.0  0.01430  0.89342  0.48356  1.0000
  N   N43       1.0  0.00110  0.81730  0.43941  1.0000
  H   H694      1.0  0.03832  0.84585  0.30881  1.0000
  C   C444      1.0  0.09374  0.91086  0.31244  1.0000
  H   H695      1.0  0.08516  0.92374  0.30681  1.0000
  C   C445      1.0  0.02676  0.85625  0.31385  1.0000
  H   H696      1.0  0.06494  0.76265  0.26766  1.0000
  H   H697      1.0  0.06247  0.87829  0.46223  1.0000
  C   C446      1.0  0.10931  0.92613  0.32348  1.0000
  H   H698      1.0  0.16511  0.97356  0.35552  1.0000
  N   N44       1.0  0.03098  0.87419  0.30730  1.0000
  H   H699      1.0  0.10137  0.93954  0.31805  1.0000
  C   C447      1.0  0.05989  0.77083  0.29984  1.0000
  C   C448      1.0  0.04196  0.79844  0.28619  1.0000
  H   H700      1.0  0.04459  0.87087  0.32827  1.0000
  H   H701      1.0  0.12257  0.92810  0.32393  1.0000
  C   C449      1.0  0.14964  0.95057  0.48330  1.0000
  H   H702      1.0  0.05851  0.86274  0.45196  1.0000
  S   S169      1.0  0.07573  0.83770  0.27306  1.0000
  H   H703      1.0  0.04748  0.76565  0.30722  1.0000
  H   H704      1.0  0.11845  0.97779  0.38313  1.0000
  H   H705      1.0  0.09845  0.82798  0.29841  1.0000
  C   C450      1.0  0.10200  0.81623  0.30852  1.0000
  C   C451      1.0  0.12208  0.91116  0.46960  1.0000
  S   S170      1.0  0.13768  0.95300  0.42981  1.0000
  C   C452      1.0  0.01540  0.88761  0.31434  1.0000
  C   C453      1.0  0.00623  0.84736  0.37196  1.0000
  H   H706      1.0  0.11308  0.93305  0.28787  1.0000
  C   C454      1.0  0.12260  0.89579  0.31992  1.0000
  Fe  Fe84      1.0  0.10389  0.82295  0.26354  1.0000
  C   C455      1.0  0.11021  0.79969  0.30381  1.0000
  Fe  Fe85      1.0  0.12224  0.97845  0.28154  1.0000
  C   C456      1.0  0.09640  0.90142  0.46786  1.0000
  S   S171      1.0  0.11404  0.79732  0.28174  1.0000
  N   N45       1.0  0.11166  0.91320  0.31244  1.0000
  H   H707      1.0  0.05026  0.78277  0.25865  1.0000
  H   H708      1.0  0.12183  0.77194  0.31332  1.0000
  Fe  Fe86      1.0  0.07061  0.98192  0.44113  1.0000
  H   H709      1.0  0.10213  0.92154  0.33750  1.0000
  H   H710      1.0  0.12035  0.90522  0.48417  1.0000
  H   H711      1.0  0.07732  0.79709  0.28181  1.0000
  H   H712      1.0  0.11595  0.89030  0.33389  1.0000
  H   H713      1.0  0.06304  0.77760  0.30868  1.0000
  C   C457      1.0  0.04701  0.87413  0.31345  1.0000
  H   H714      1.0  0.08572  0.77901  0.27048  1.0000
  C   C458      1.0  0.09357  0.98721  0.35636  1.0000
  H   H715      1.0  0.13447  0.92214  0.29344  1.0000
  H   H716      1.0  0.01123  0.79616  0.42500  1.0000
  C   C459      1.0  0.11533  0.78470  0.31692  1.0000
  C   C460      1.0  0.02490  0.75107  0.44207  1.0000
  H   H717      1.0  0.01825  0.90126  0.30971  1.0000
  H   H718      1.0  0.03887  0.80757  0.27355  1.0000
  Fe  Fe87      1.0  0.07747  0.86688  0.37321  1.0000
  S   S172      1.0  0.08800  0.89192  0.36564  1.0000
  S   S173      1.0  0.11599  0.84720  0.25382  1.0000
  Fe  Fe88      1.0  0.06087  0.84065  0.40471  1.0000
  S   S174      1.0  0.04898  0.83348  0.43417  1.0000
  Fe  Fe89      1.0  0.08274  0.82884  0.37042  1.0000
  S   S175      1.0  0.04940  0.86790  0.38995  1.0000
  S   S176      1.0  0.07311  0.85516  0.35270  1.0000
  S   S177      1.0  0.08580  0.95429  0.45127  1.0000
  S   S178      1.0  0.06946  0.92008  0.43657  1.0000
  C   C461      1.0  0.02333  0.86525  0.46831  1.0000
  S   S179      1.0  0.08951  0.84063  0.38958  1.0000
  H   H719      1.0  0.13661  0.91151  0.46410  1.0000
  H   H720      1.0  0.07455  0.78182  0.35326  1.0000
  C   C462      1.0  0.13189  0.95721  0.48082  1.0000
  C   C463      1.0  0.07382  0.79002  0.27348  1.0000
  H   H721      1.0  0.02817  0.82416  0.37137  1.0000
  H   H722      1.0  0.12455  0.88570  0.31195  1.0000
  H   H723      1.0  0.00917  0.75513  0.42246  1.0000
  C   C464      1.0  0.08197  0.76812  0.38601  1.0000
  C   C465      1.0  0.04083  0.74162  0.44788  1.0000
  H   H724      1.0  0.12133  0.94877  0.34562  1.0000
  H   H725      1.0  0.08399  0.75665  0.39753  1.0000
  C   C466      1.0  0.14188  0.95222  0.45053  1.0000
  C   C467      1.0  0.09877  0.81771  0.32633  1.0000
  C   C468      1.0  0.08333  0.76943  0.48245  1.0000
  H   H726      1.0  0.06555  0.74187  0.38870  1.0000
  H   H727      1.0  0.01472  0.85577  0.30950  1.0000
  C   C469      1.0  0.10407  0.80272  0.33937  1.0000
  H   H728      1.0  0.11155  0.92313  0.43860  1.0000
  C   C470      1.0  0.08321  0.89987  0.38520  1.0000
  C   C471      1.0  0.08025  0.88814  0.40188  1.0000
  C   C472      1.0  0.07615  0.89441  0.41757  1.0000
  C   C473      1.0  0.07463  0.91250  0.41670  1.0000
  H   H729      1.0  0.08136  0.87414  0.40271  1.0000
  H   H730      1.0  0.07439  0.88517  0.43033  1.0000
  C   C474      1.0  0.12802  0.95808  0.46439  1.0000
  C   C475      1.0  0.00892  0.70612  0.46216  1.0000
  C   C476      1.0  0.08792  0.81689  0.47156  1.0000
  C   C477      1.0  0.09478  0.81834  0.45317  1.0000
  C   C478      1.0  0.08293  0.82336  0.44152  1.0000
  C   C479      1.0  0.06425  0.82635  0.44832  1.0000
  C   C480      1.0  0.05745  0.82416  0.46678  1.0000
  C   C481      1.0  0.06923  0.81983  0.47835  1.0000
  H   H731      1.0  0.10925  0.81590  0.44790  1.0000
  H   H732      1.0  0.04302  0.82609  0.47211  1.0000
  N   N46       1.0  0.06480  0.77010  0.38086  1.0000
  Fe  Fe90      1.0  0.00633  0.74727  0.38868  1.0000
  H   H733      1.0  0.05905  0.86412  0.30843  1.0000
  H   H734      1.0  0.01215  0.88459  0.32921  1.0000
  S   S180      1.0  0.00608  0.77664  0.32404  1.0000
  H   H735      1.0  0.09355  0.89561  0.48245  1.0000
  H   H736      1.0  0.03636  0.77482  0.39291  1.0000
  H   H737      1.0  0.05096  0.76424  0.40834  1.0000
  H   H738      1.0  0.00982  0.84211  0.42806  1.0000
  C   C482      1.0  0.00446  0.77019  0.29273  1.0000
  C   C483      1.0  0.08191  0.91795  0.38427  1.0000
  C   C484      1.0  0.01377  0.82899  0.37543  1.0000
  S   S181      1.0  0.00887  0.77443  0.37199  1.0000
  H   H739      1.0  0.09051  0.75929  0.47423  1.0000
  H   H740      1.0  0.01555  0.76107  0.44893  1.0000
  H   H741      1.0  0.11396  0.90183  0.43392  1.0000
  H   H742      1.0  0.03686  0.89654  0.47987  1.0000
  H   H743      1.0  0.09261  0.83052  0.32982  1.0000
  N   N47       1.0  0.03446  0.87826  0.46576  1.0000
  H   H744      1.0  0.12181  0.87401  0.45684  1.0000
  H   H745      1.0  0.03001  0.98576  0.45181  1.0000
  Fe  Fe91      1.0  0.07242  0.83984  0.24565  1.0000
  S   S182      1.0  0.10041  0.80389  0.36180  1.0000
  C   C485      1.0  0.02884  0.88651  0.48145  1.0000
  H   H746      1.0  0.08394  0.92713  0.37141  1.0000
  H   H747      1.0  0.05592  0.85803  0.47571  1.0000
  H   H748      1.0  0.04877  0.78760  0.39838  1.0000
  H   H749      1.0  0.03659  0.88650  0.43733  1.0000
  H   H750      1.0  0.00841  0.80267  0.38653  1.0000
  C   C486      1.0  0.11376  0.96250  0.34375  1.0000
  H   H751      1.0  0.07212  0.79964  0.26067  1.0000
  H   H752      1.0  0.07565  0.93841  0.39920  1.0000
  H   H753      1.0  0.05029  0.78675  0.36078  1.0000
  Fe  Fe92      1.0  0.08398  0.97948  0.40225  1.0000
  H   H754      1.0  0.02507  0.85439  0.48034  1.0000
  S   S183      1.0  0.05514  0.82648  0.38712  1.0000
  C   C487      1.0  0.00255  0.81680  0.38362  1.0000
  C   C488      1.0  0.03205  0.89226  0.44948  1.0000
  H   H755      1.0  0.01762  0.71543  0.45356  1.0000
  H   H756      1.0  0.16757  0.97379  0.37715  1.0000
  H   H757      1.0  0.00996  0.78191  0.28617  1.0000
  H   H758      1.0  0.05168  0.75413  0.37304  1.0000
  C   C489      1.0  0.16339  0.94465  0.46945  1.0000
  C   C490      1.0  0.11135  0.92722  0.24750  1.0000
  N   N48       1.0  0.14200  0.98859  0.37089  1.0000
  C   C491      1.0  0.00042  0.76502  0.31141  1.0000
  H   H759      1.0  0.02061  0.82513  0.41557  1.0000
  S   S184      1.0  0.05907  0.97372  0.42270  1.0000
  H   H760      1.0  0.10944  0.88560  0.24611  1.0000
  C   C492      1.0  0.02131  0.74769  0.42715  1.0000
  C   C493      1.0  0.12616  0.88214  0.46349  1.0000
  H   H761      1.0  0.05073  0.88740  0.30862  1.0000
  H   H762      1.0  0.08959  0.78124  0.47661  1.0000
  N   N49       1.0  0.11589  0.90091  0.46053  1.0000
  C   C494      1.0  0.13336  0.97319  0.37910  1.0000
  S   S185      1.0  0.10064  0.95173  0.40890  1.0000
  Fe  Fe93      1.0  0.04604  0.85378  0.37102  1.0000
  Fe  Fe94      1.0  0.07662  0.94670  0.43080  1.0000
  C   C495      1.0  0.11890  0.90892  0.44118  1.0000
  H   H763      1.0  0.08830  0.82482  0.42731  1.0000
  H   H764      1.0  0.09499  0.90111  0.30430  1.0000
  C   C496      1.0  0.15953  0.94546  0.45314  1.0000
  C   C497      1.0  0.12098  0.91999  0.29393  1.0000
  H   H765      1.0  0.11430  0.92528  0.46807  1.0000
  H   H766      1.0  0.01700  0.82257  0.24119  1.0000
  C   C498      1.0  0.07738  0.92431  0.40003  1.0000
  H   H767      1.0  0.08225  0.78033  0.39000  1.0000
  H   H768      1.0  0.00870  0.70567  0.47629  1.0000
  H   H769      1.0  0.02944  0.79383  0.29400  1.0000
  H   H770      1.0  0.06910  0.77374  0.48081  1.0000
  H   H771      1.0  0.08819  0.91536  0.46585  1.0000
  C   C499      1.0  0.04951  0.77440  0.39576  1.0000
  H   H772      1.0  0.10203  0.96076  0.37176  1.0000
  C   C500      1.0  0.06450  0.75319  0.37689  1.0000
  S   S186      1.0  0.04575  0.83657  0.24363  1.0000
  S   S187      1.0  0.02008  0.86271  0.36168  1.0000
  C   C501      1.0  0.10294  0.96933  0.35860  1.0000
  H   H773      1.0  0.12297  0.91061  0.28516  1.0000
  H   H774      1.0  0.01569  0.69261  0.45944  1.0000
  Fe  Fe95      1.0  0.10847  0.96155  0.42862  1.0000
  H   H775      1.0  0.09383  0.76595  0.37475  1.0000
  H   H776      1.0  0.07592  0.74954  0.36574  1.0000
  S   S188      1.0  0.04646  0.74565  0.46585  1.0000
  H   H777      1.0  0.01764  0.89942  0.45033  1.0000
  H   H778      1.0  0.17029  0.94092  0.44249  1.0000
  H   H779      1.0  0.04654  0.86904  0.28176  1.0000
  H   H780      1.0  0.04006  0.90245  0.44728  1.0000
  H   H781      1.0  0.14093  0.88124  0.45823  1.0000
  C   C502      1.0  0.11238  0.78624  0.33460  1.0000
  H   H782      1.0  0.11670  0.77465  0.34457  1.0000
  H   H783      1.0  0.17712  0.93954  0.47128  1.0000
  C   C503      1.0  0.06326  0.78468  0.36481  1.0000
  H   H784      1.0  0.02301  0.87893  0.28240  1.0000
  H   H785      1.0  0.04492  0.80649  0.29392  1.0000
  H   H786      1.0  0.06392  0.79757  0.36715  1.0000
  S   S189      1.0  0.09418  0.98988  0.41999  1.0000
  H   H787      1.0  0.12409  0.87569  0.47799  1.0000
  H   H788      1.0  0.00868  0.87169  0.47014  1.0000
  C   C504      1.0  0.10569  0.89806  0.25041  1.0000
  H   H789      1.0  0.13828  0.96491  0.39127  1.0000
  C   C505      1.0  0.01463  0.81009  0.45067  1.0000
  H   H790      1.0  0.00304  0.88801  0.31002  1.0000
  C   C506      1.0  0.11607  0.91098  0.24210  1.0000
  H   H791      1.0  0.02808  0.80414  0.44305  1.0000
  S   S190      1.0  0.09986  0.82314  0.23674  1.0000
  S   S191      1.0  0.00638  0.72249  0.62327  1.0000
  C   C507      1.0  0.01632  0.73085  0.60099  1.0000
  Fe  Fe96      1.0  0.00664  0.74004  0.64074  1.0000
  C   C508      1.0  0.00716  0.73357  0.58743  1.0000
  S   S192      1.0  0.08119  0.90078  0.66369  1.0000
  H   H792      1.0  0.04049  0.73277  0.60712  1.0000
  C   C509      1.0  0.03328  0.73508  0.59671  1.0000
  H   H793      1.0  0.07380  0.77427  0.69923  1.0000
  N   N50       1.0  0.08430  0.76221  0.50142  1.0000
  C   C510      1.0  0.03077  0.67829  0.70028  1.0000
  C   C511      1.0  0.02690  0.69707  0.69529  1.0000
  C   C512      1.0  0.02559  0.70712  0.70759  1.0000
  C   C513      1.0  0.02807  0.69843  0.72484  1.0000
  C   C514      1.0  0.03160  0.67971  0.72991  1.0000
  H   H794      1.0  0.06240  0.74895  0.50726  1.0000
  H   H795      1.0  0.02503  0.70374  0.68194  1.0000
  C   C515      1.0  0.17946  0.94289  0.53769  1.0000
  Fe  Fe97      1.0  0.01144  0.74286  0.67608  1.0000
  H   H796      1.0  0.06971  0.78469  0.67735  1.0000
  S   S193      1.0  0.02036  0.73057  0.70200  1.0000
  H   H797      1.0  0.15074  0.94300  0.62124  1.0000
  H   H798      1.0  0.03074  0.87065  0.59254  1.0000
  Fe  Fe98      1.0  0.05565  0.84391  0.52912  1.0000
  S   S194      1.0  0.06926  0.81477  0.53325  1.0000
  Fe  Fe99      1.0  0.09068  0.85583  0.52228  1.0000
  S   S195      1.0  0.10741  0.82784  0.52557  1.0000
  S   S196      1.0  0.10488  0.87849  0.51398  1.0000
  Fe  Fe100     1.0  0.09039  0.82374  0.50946  1.0000
  Fe  Fe101     1.0  0.08487  0.82173  0.54900  1.0000
  S   S197      1.0  0.08855  0.80630  0.57636  1.0000
  S   S198      1.0  0.07555  0.85238  0.50407  1.0000
  S   S199      1.0  0.06933  0.85004  0.54698  1.0000
  Fe  Fe102     1.0  0.09967  0.95118  0.55384  1.0000
  S   S200      1.0  0.12891  0.93763  0.55070  1.0000
  S   S201      1.0  0.07900  0.93438  0.56322  1.0000
  Fe  Fe103     1.0  0.13316  0.95871  0.52569  1.0000
  H   H799      1.0  0.27532  0.82521  0.70777  1.0000
  H   H800      1.0  0.01368  0.79545  0.55999  1.0000
  Fe  Fe104     1.0  0.11089  0.84567  0.64033  1.0000
  H   H801      1.0  0.13499  0.88751  0.61537  1.0000
  S   S202      1.0  0.12133  0.84905  0.61064  1.0000
  C   C516      1.0  0.18480  0.93539  0.72527  1.0000
  Fe  Fe105     1.0  0.08047  0.83641  0.67159  1.0000
  H   H802      1.0  0.10543  0.91635  0.58495  1.0000
  C   C517      1.0  0.24685  0.81924  0.73466  1.0000
  C   C518      1.0  0.14752  0.96184  0.59646  1.0000
  H   H803      1.0  0.07695  0.74034  0.52272  1.0000
  H   H804      1.0  0.14874  0.81759  0.72899  1.0000
  S   S203      1.0  0.10352  0.97057  0.52737  1.0000
  H   H805      1.0  0.26251  0.83969  0.69178  1.0000
  C   C519      1.0  0.02580  0.82951  0.51493  1.0000
  C   C520      1.0  0.01797  0.82132  0.50659  1.0000
  S   S204      1.0  0.03154  0.79464  0.62946  1.0000
  Fe  Fe106     1.0  0.13084  0.95747  0.56455  1.0000
  H   H806      1.0  0.08975  0.74623  0.68833  1.0000
  N   N51       1.0  0.18655  0.92333  0.54170  1.0000
  C   C521      1.0  0.05407  0.80979  0.63813  1.0000
  C   C522      1.0  0.13004  0.89809  0.60427  1.0000
  S   S205      1.0  0.14651  0.94558  0.58607  1.0000
  H   H807      1.0  0.14382  0.95391  0.71439  1.0000
  H   H808      1.0  0.06287  0.80794  0.62541  1.0000
  H   H809      1.0  0.08000  0.86939  0.58308  1.0000
  H   H810      1.0  0.02706  0.70618  0.73438  1.0000
  S   S206      1.0  0.01959  0.73793  0.51502  1.0000
  Fe  Fe107     1.0  0.01556  0.77344  0.64409  1.0000
  C   C523      1.0  0.09939  0.81700  0.58548  1.0000
  C   C524      1.0  0.10616  0.83198  0.57509  1.0000
  C   C525      1.0  0.11349  0.84133  0.58279  1.0000
  C   C526      1.0  0.11364  0.83607  0.60101  1.0000
  C   C527      1.0  0.10694  0.82105  0.61142  1.0000
  C   C528      1.0  0.10014  0.81133  0.60357  1.0000
  H   H811      1.0  0.10572  0.83643  0.56111  1.0000
  H   H812      1.0  0.11867  0.85292  0.57467  1.0000
  H   H813      1.0  0.10710  0.81685  0.62547  1.0000
  H   H814      1.0  0.09504  0.79969  0.61162  1.0000
  C   C529      1.0  0.15016  0.96970  0.62272  1.0000
  H   H815      1.0  0.10148  0.87646  0.70772  1.0000
  C   C530      1.0  0.09703  0.89411  0.52762  1.0000
  C   C531      1.0  0.10614  0.90783  0.52412  1.0000
  C   C532      1.0  0.10022  0.92048  0.53477  1.0000
  C   C533      1.0  0.08541  0.91926  0.54921  1.0000
  C   C534      1.0  0.07610  0.90571  0.55263  1.0000
  C   C535      1.0  0.08185  0.89320  0.54175  1.0000
  H   H816      1.0  0.11787  0.90869  0.51326  1.0000
  H   H817      1.0  0.10716  0.93119  0.53166  1.0000
  H   H818      1.0  0.06443  0.90498  0.56358  1.0000
  H   H819      1.0  0.07447  0.88302  0.54421  1.0000
  C   C536      1.0  0.03149  0.74563  0.56549  1.0000
  C   C537      1.0  0.01464  0.74118  0.56971  1.0000
  C   C538      1.0  0.18130  0.91520  0.52992  1.0000
  C   C539      1.0  0.20647  0.91951  0.53860  1.0000
  H   H820      1.0  0.15143  0.93199  0.72711  1.0000
  C   C540      1.0  0.29233  0.95668  0.72621  1.0000
  H   H821      1.0  0.08147  0.86296  0.60609  1.0000
  H   H822      1.0  0.16388  0.91837  0.56329  1.0000
  S   S207      1.0  0.15537  0.94955  0.50337  1.0000
  H   H823      1.0  0.14013  0.90664  0.59819  1.0000
  C   C541      1.0  0.17508  0.96473  0.70762  1.0000
  N   N52       1.0  0.05541  0.86429  0.60171  1.0000
  C   C542      1.0  0.05969  0.84543  0.60031  1.0000
  C   C543      1.0  0.04611  0.86559  0.62030  1.0000
  C   C544      1.0  0.04354  0.87530  0.58942  1.0000
  C   C545      1.0  0.07235  0.87074  0.59685  1.0000
  H   H824      1.0  0.04734  0.83986  0.60428  1.0000
  H   H825      1.0  0.06893  0.83692  0.60914  1.0000
  S   S208      1.0  0.10271  0.98332  0.69913  1.0000
  H   H826      1.0  0.04305  0.87955  0.62210  1.0000
  C   C546      1.0  0.04104  0.74204  0.57891  1.0000
  H   H827      1.0  0.05454  0.85698  0.62992  1.0000
  H   H828      1.0  0.03993  0.88962  0.59024  1.0000
  H   H829      1.0  0.16454  0.94611  0.53971  1.0000
  H   H830      1.0  0.06965  0.88509  0.59728  1.0000
  H   H831      1.0  0.07258  0.82034  0.64568  1.0000
  C   C547      1.0  0.14904  0.98755  0.61354  1.0000
  H   H832      1.0  0.01335  0.80285  0.66401  1.0000
  S   S209      1.0  0.03013  0.77666  0.49712  1.0000
  H   H833      1.0  0.06653  0.84382  0.58647  1.0000
  S   S210      1.0  0.04041  0.75655  0.54377  1.0000
  H   H834      1.0  0.07932  0.78804  0.50737  1.0000
  S   S211      1.0  0.02585  0.85521  0.53138  1.0000
  H   H835      1.0  0.12974  0.89115  0.59407  1.0000
  H   H836      1.0  0.12271  0.89917  0.71680  1.0000
  H   H837      1.0  0.03173  0.67051  0.69079  1.0000
  C   C548      1.0  0.26199  0.82872  0.70400  1.0000
  H   H838      1.0  0.09823  0.88986  0.60892  1.0000
  C   C549      1.0  0.06425  0.77647  0.69050  1.0000
  H   H839      1.0  0.11789  0.90765  0.63578  1.0000
  H   H840      1.0  0.11397  0.85523  0.71760  1.0000
  C   C550      1.0  0.00804  0.81009  0.58819  1.0000
  H   H841      1.0  0.21231  0.90486  0.54148  1.0000
  H   H842      1.0  0.03914  0.82338  0.51738  1.0000
  H   H843      1.0  0.04093  0.80946  0.59174  1.0000
  H   H844      1.0  0.12121  0.96182  0.49145  1.0000
  Fe  Fe108     1.0  0.02280  0.76032  0.52469  1.0000
  S   S212      1.0  0.08191  0.85943  0.64812  1.0000
  H   H845      1.0  0.26041  0.81685  0.70034  1.0000
  H   H846      1.0  0.15156  0.96578  0.63645  1.0000
  H   H847      1.0  0.03314  0.86105  0.62433  1.0000
  C   C551      1.0  0.02439  0.80197  0.56012  1.0000
  H   H848      1.0  0.18060  0.92375  0.73547  1.0000
  H   H849      1.0  0.29779  0.95059  0.71432  1.0000
  C   C552      1.0  0.05955  0.81675  0.64959  1.0000
  N   N53       1.0  0.02553  0.80094  0.57855  1.0000
  C   C553      1.0  0.14970  0.95681  0.61410  1.0000
  H   H850      1.0  0.18646  0.90045  0.53243  1.0000
  H   H851      1.0  0.18219  0.96017  0.69500  1.0000
  C   C554      1.0  0.14610  0.97974  0.58733  1.0000
  H   H852      1.0  0.02560  0.80922  0.50241  1.0000
  H   H853      1.0  0.08521  0.90463  0.62375  1.0000
  H   H854      1.0  0.09195  0.93051  0.59998  1.0000
  C   C555      1.0  0.10979  0.89606  0.72567  1.0000
  H   H855      1.0  0.10459  0.75221  0.51709  1.0000
  H   H856      1.0  0.00442  0.82444  0.58146  1.0000
  S   S213      1.0  0.10112  0.96925  0.57010  1.0000
  C   C556      1.0  0.03756  0.80444  0.64344  1.0000
  H   H857      1.0  0.05428  0.74504  0.57562  1.0000
  H   H858      1.0  0.13913  0.87011  0.73008  1.0000
  C   C557      1.0  0.11298  0.91764  0.62435  1.0000
  C   C558      1.0  0.09903  0.89700  0.61872  1.0000
  H   H859      1.0  0.12238  0.92696  0.61868  1.0000
  H   H860      1.0  0.10318  0.88671  0.63026  1.0000
  H   H861      1.0  0.04312  0.77492  0.58119  1.0000
  H   H862      1.0  0.09948  0.92549  0.62989  1.0000
  H   H863      1.0  0.10937  0.76975  0.49790  1.0000
  H   H864      1.0  0.16876  0.83332  0.73494  1.0000
  N   N54       1.0  0.11197  0.90882  0.61077  1.0000
  C   C559      1.0  0.10580  0.92252  0.59570  1.0000
  H   H865      1.0  0.30179  0.96478  0.72614  1.0000
  C   C560      1.0  0.01624  0.84535  0.52036  1.0000
  H   H866      1.0  0.03540  0.77083  0.68305  1.0000
  H   H867      1.0  0.11493  0.93201  0.58978  1.0000
  N   N55       1.0  0.16898  0.95003  0.72201  1.0000
  H   H868      1.0  0.05030  0.87467  0.57528  1.0000
  C   C561      1.0  0.03998  0.80964  0.57805  1.0000
  H   H869      1.0  0.06425  0.74624  0.71552  1.0000
  S   S214      1.0  0.02985  0.74443  0.64883  1.0000
  S   S215      1.0  0.10876  0.82126  0.66261  1.0000
  H   H870      1.0  0.21082  0.92552  0.54729  1.0000
  H   H871      1.0  0.00730  0.74369  0.55937  1.0000
  H   H872      1.0  0.03036  0.78056  0.60190  1.0000
  Fe  Fe109     1.0  0.10725  0.98779  0.54338  1.0000
  C   C562      1.0  0.22963  0.83868  0.71318  1.0000
  H   H873      1.0  0.18407  0.90107  0.56419  1.0000
  H   H874      1.0  0.03763  0.82381  0.57053  1.0000
  H   H875      1.0  0.16224  0.93842  0.70404  1.0000
  C   C563      1.0  0.11124  0.90054  0.67459  1.0000
  C   C564      1.0  0.03291  0.66962  0.71766  1.0000
  Fe  Fe110     1.0  0.12210  0.96522  0.68194  1.0000
  N   N56       1.0  0.24704  0.83414  0.71872  1.0000
  C   C565      1.0  0.07952  0.74928  0.68011  1.0000
  H   H876      1.0  0.07401  0.77062  0.52641  1.0000
  H   H877      1.0  0.18221  0.92195  0.56984  1.0000
  C   C566      1.0  0.12186  0.90840  0.68021  1.0000
  C   C567      1.0  0.00067  0.82905  0.50329  1.0000
  N   N57       1.0  0.11067  0.87658  0.73062  1.0000
  H   H878      1.0  0.16631  0.91787  0.53191  1.0000
  C   C568      1.0  0.17079  0.85158  0.70924  1.0000
  H   H879      1.0  0.17014  0.86775  0.68274  1.0000
  H   H880      1.0  0.13476  0.90072  0.68317  1.0000
  H   H881      1.0  0.02125  0.81611  0.55267  1.0000
  C   C569      1.0  0.17890  0.91579  0.56057  1.0000
  C   C570      1.0  0.02632  0.80646  0.66002  1.0000
  C   C571      1.0  0.16545  0.85682  0.69287  1.0000
  H   H882      1.0  0.08499  0.75699  0.66664  1.0000
  C   C572      1.0  0.05510  0.74876  0.70632  1.0000
  C   C573      1.0  0.04884  0.76314  0.67717  1.0000
  S   S216      1.0  0.05581  0.82464  0.68204  1.0000
  H   H883      1.0  0.31392  0.92409  0.73353  1.0000
  S   S217      1.0  0.12847  0.93533  0.69053  1.0000
  H   H884      1.0  0.05117  0.78470  0.69642  1.0000
  C   C574      1.0  0.11301  0.86994  0.71444  1.0000
  H   H885      1.0  0.05348  0.80255  0.57160  1.0000
  H   H886      1.0  0.18442  0.97052  0.71142  1.0000
  S   S218      1.0  0.14539  0.97823  0.67642  1.0000
  H   H887      1.0  0.05357  0.77105  0.66357  1.0000
  H   H888      1.0  0.16342  0.97577  0.70463  1.0000
  H   H889      1.0  0.22911  0.84996  0.70127  1.0000
  H   H890      1.0  0.02319  0.81452  0.68450  1.0000
  C   C575      1.0  0.16468  0.83747  0.72229  1.0000
  H   H891      1.0  0.22701  0.82711  0.70990  1.0000
  H   H892      1.0  0.01935  0.77487  0.58813  1.0000
  S   S219      1.0  0.18494  0.86299  0.71313  1.0000
  H   H893      1.0  0.04666  0.75053  0.67558  1.0000
  H   H894      1.0  0.03733  0.79504  0.55252  1.0000
  H   H895      1.0  0.06389  0.81851  0.49255  1.0000
  H   H896      1.0  0.11592  0.88678  0.67337  1.0000
  H   H897      1.0  0.05938  0.77981  0.51101  1.0000
  C   C576      1.0  0.10337  0.75768  0.50294  1.0000
  Fe  Fe111     1.0  0.09206  0.87148  0.66448  1.0000
  C   C577      1.0  0.07675  0.74598  0.50833  1.0000
  H   H898      1.0  0.12557  0.87260  0.70458  1.0000
  C   C578      1.0  0.07380  0.77577  0.51198  1.0000
  S   S220      1.0  0.12134  0.85938  0.65509  1.0000
  H   H899      1.0  0.19435  0.93978  0.73022  1.0000
  H   H900      1.0  0.08441  0.73536  0.50081  1.0000
  H   H901      1.0  0.11179  0.74756  0.49507  1.0000
  C   C579      1.0  0.24966  0.84993  0.72308  1.0000
  C   C580      1.0  0.15336  0.82858  0.71890  1.0000
  H   H902      1.0  0.09453  0.94990  0.67943  1.0000
  S   S221      1.0  0.08779  0.84983  0.68894  1.0000
  S   S222      1.0  0.13734  0.97778  0.53937  1.0000
  N   N58       1.0  0.06193  0.75941  0.68854  1.0000
  H   H903      1.0  0.03077  0.87628  0.49391  1.0000
  H   H904      1.0  0.18280  0.94954  0.54652  1.0000
  H   H905      1.0  0.21260  0.92511  0.52447  1.0000
  C   C581      1.0  0.02974  0.78199  0.58784  1.0000
  H   H906      1.0  0.23860  0.85428  0.73416  1.0000
  H   H907      1.0  0.24518  0.80698  0.73184  1.0000
  C   C582      1.0  0.14785  0.83393  0.70261  1.0000
  H   H908      1.0  0.07821  0.73636  0.67838  1.0000
  C   C583      1.0  0.15391  0.84809  0.68959  1.0000
  S   S223      1.0  0.11236  0.98109  0.65720  1.0000
  C   C584      1.0  0.09462  0.91046  0.67070  1.0000
  H   H909      1.0  0.21809  0.84290  0.72397  1.0000
  C   C585      1.0  0.15609  0.94329  0.71665  1.0000
  C   C586      1.0  0.11579  0.92616  0.68209  1.0000
  H   H910      1.0  0.07592  0.93608  0.66908  1.0000
  H   H911      1.0  0.24982  0.86150  0.71144  1.0000
  H   H912      1.0  0.04142  0.75568  0.71265  1.0000
  H   H913      1.0  0.26257  0.84698  0.72754  1.0000
  S   S224      1.0  0.13307  0.82288  0.69920  1.0000
  H   H914      1.0  0.14981  0.85224  0.67696  1.0000
  C   C587      1.0  0.09933  0.93620  0.67788  1.0000
  Fe  Fe112     1.0  0.11640  0.83647  0.67833  1.0000
  H   H915      1.0  0.19233  0.93049  0.71291  1.0000
  C   C588      1.0  0.08876  0.92835  0.67215  1.0000
  C   C589      1.0  0.03181  0.81328  0.67152  1.0000
  H   H916      1.0  0.05380  0.73552  0.70537  1.0000
  C   C590      1.0  0.04849  0.81826  0.66642  1.0000
  Fe  Fe113     1.0  0.00057  0.78869  0.50046  1.0000
  H   H917      1.0  0.18479  0.94912  0.52353  1.0000
  H   H918      1.0  0.14447  0.98369  0.57368  1.0000
  H   H919      1.0  0.18651  0.92088  0.51554  1.0000
  H   H920      1.0  0.27929  0.96623  0.72454  1.0000
  H   H921      1.0  0.09884  0.90346  0.71835  1.0000
  H   H922      1.0  0.00850  0.80951  0.60217  1.0000
  H   H923      1.0  0.28307  0.92500  0.73148  1.0000
  H   H924      1.0  0.14790  0.96783  0.73645  1.0000
  Fe  Fe114     1.0  0.02431  0.75558  0.48768  1.0000
  H   H925      1.0  0.30223  0.73834  0.94076  1.0000
  H   H926      1.0  0.25254  0.67033  0.90975  1.0000
  S   S225      1.0  0.29449  0.70953  0.89646  1.0000
  C   C591      1.0  0.23827  0.69782  0.90817  1.0000
  H   H927      1.0  0.10671  0.73383  0.90605  1.0000
  C   C592      1.0  0.23995  0.71540  0.90570  1.0000
  H   H928      1.0  0.28285  0.67697  0.90335  1.0000
  C   C593      1.0  0.27342  0.73973  0.85171  1.0000
  H   H929      1.0  0.29117  0.69872  0.97498  1.0000
  C   C594      1.0  0.25368  0.75572  0.83148  1.0000
  H   H930      1.0  0.14943  0.68392  0.82521  1.0000
  C   C595      1.0  0.07510  0.66998  0.94179  1.0000
  C   C596      1.0  0.07732  0.67242  0.92335  1.0000
  C   C597      1.0  0.09373  0.87296  0.74320  1.0000
  N   N59       1.0  0.25444  0.74511  0.84978  1.0000
  H   H931      1.0  0.13565  0.67886  0.80295  1.0000
  C   C598      1.0  0.30131  0.96488  0.81836  1.0000
  C   C599      1.0  0.20278  0.71084  0.95162  1.0000
  C   C600      1.0  0.15662  0.67711  0.88061  1.0000
  C   C601      1.0  0.25376  0.68398  0.90766  1.0000
  H   H932      1.0  0.16885  0.68178  0.87839  1.0000
  C   C602      1.0  0.25712  0.71910  0.90237  1.0000
  H   H933      1.0  0.11367  0.69866  0.94675  1.0000
  H   H934      1.0  0.30080  0.69403  0.93565  1.0000
  H   H935      1.0  0.30511  0.96324  0.83121  1.0000
  H   H936      1.0  0.29134  0.95997  0.75895  1.0000
  H   H937      1.0  0.27458  0.73208  0.86546  1.0000
  C   C603      1.0  0.11624  0.70757  0.93325  1.0000
  H   H938      1.0  0.26894  0.96064  0.75738  1.0000
  N   N60       1.0  0.28946  0.71587  0.94914  1.0000
  C   C604      1.0  0.07201  0.66089  0.91645  1.0000
  H   H939      1.0  0.26546  0.97489  0.83058  1.0000
  S   S226      1.0  0.32520  0.88819  0.81376  1.0000
  H   H940      1.0  0.25877  0.76814  0.82872  1.0000
  H   H941      1.0  0.12974  0.73029  0.94215  1.0000
  H   H942      1.0  0.25546  0.81024  0.96975  1.0000
  H   H943      1.0  0.12656  0.73665  0.91063  1.0000
  H   H944      1.0  0.08209  0.72406  0.93126  1.0000
  H   H945      1.0  0.22803  0.72608  0.90669  1.0000
  H   H946      1.0  0.12473  0.87175  0.75162  1.0000
  H   H947      1.0  0.29192  0.74920  0.98201  1.0000
  H   H948      1.0  0.25509  0.72046  0.84336  1.0000
  C   C605      1.0  0.27268  0.70533  0.90119  1.0000
  H   H949      1.0  0.11086  0.69116  0.89075  1.0000
  C   C606      1.0  0.12396  0.68242  0.88744  1.0000
  C   C607      1.0  0.29556  0.72996  0.95312  1.0000
  H   H950      1.0  0.32512  0.97109  0.77196  1.0000
  H   H951      1.0  0.09154  0.87766  0.75567  1.0000
  C   C608      1.0  0.15768  0.65964  0.87919  1.0000
  H   H952      1.0  0.13110  0.70558  0.92810  1.0000
  H   H953      1.0  0.27928  0.75164  0.84884  1.0000
  H   H954      1.0  0.25823  0.73255  0.90090  1.0000
  H   H955      1.0  0.31862  0.84686  0.84732  1.0000
  H   H956      1.0  0.08300  0.68338  0.91437  1.0000
  H   H957      1.0  0.03339  0.67309  0.74330  1.0000
  S   S227      1.0  0.08173  0.68500  0.94969  1.0000
  S   S228      1.0  0.19085  0.71490  0.87355  1.0000
  N   N61       1.0  0.18793  0.70213  0.96291  1.0000
  H   H958      1.0  0.25471  0.77645  0.96126  1.0000
  Fe  Fe115     1.0  0.08371  0.67776  0.97837  1.0000
  H   H959      1.0  0.11087  0.70282  0.92431  1.0000
  Fe  Fe116     1.0  0.16139  0.72000  0.88725  1.0000
  S   S229      1.0  0.21699  0.69270  0.91251  1.0000
  C   C609      1.0  0.30502  0.70458  0.93918  1.0000
  H   H960      1.0  0.26389  0.73319  0.94530  1.0000
  H   H961      1.0  0.09925  0.69906  0.83717  1.0000
  C   C610      1.0  0.13972  0.68858  0.88455  1.0000
  N   N62       1.0  0.12290  0.67869  0.83055  1.0000
  Fe  Fe117     1.0  0.32490  0.76247  0.87465  1.0000
  H   H962      1.0  0.31278  0.81854  0.84529  1.0000
  C   C611      1.0  0.26658  0.87935  0.75096  1.0000
  C   C612      1.0  0.10463  0.68444  0.84134  1.0000
  S   S230      1.0  0.24125  0.98471  0.73706  1.0000
  H   H963      1.0  0.10474  0.68153  0.85579  1.0000
  H   H964      1.0  0.16828  0.72128  0.94914  1.0000
  H   H965      1.0  0.15891  0.70891  0.97050  1.0000
  H   H966      1.0  0.28135  0.73272  0.92536  1.0000
  H   H967      1.0  0.27648  0.97314  0.79855  1.0000
  H   H968      1.0  0.31140  0.71256  0.92635  1.0000
  C   C613      1.0  0.12215  0.68320  0.81149  1.0000
  S   S231      1.0  0.20271  0.87614  0.74627  1.0000
  H   H969      1.0  0.20348  0.72213  0.95684  1.0000
  S   S232      1.0  0.13759  0.71086  0.88542  1.0000
  C   C614      1.0  0.27091  0.68774  0.90405  1.0000
  Fe  Fe118     1.0  0.19578  0.71400  0.90021  1.0000
  S   S233      1.0  0.16660  0.71632  0.91432  1.0000
  Fe  Fe119     1.0  0.29792  0.73796  0.88852  1.0000
  H   H970      1.0  0.11144  0.72406  0.96004  1.0000
  C   C615      1.0  0.11173  0.73784  0.91574  1.0000
  N   N63       1.0  0.10766  0.72649  0.93382  1.0000
  C   C616      1.0  0.27569  0.72434  0.93827  1.0000
  H   H971      1.0  0.21443  0.82363  0.97013  1.0000
  H   H972      1.0  0.29462  0.95385  0.81970  1.0000
  C   C617      1.0  0.13551  0.68789  0.83318  1.0000
  C   C618      1.0  0.22006  0.80931  0.97555  1.0000
  H   H973      1.0  0.32944  0.81903  0.82472  1.0000
  H   H974      1.0  0.26147  0.80671  0.94745  1.0000
  H   H975      1.0  0.08435  0.72005  0.95374  1.0000
  H   H976      1.0  0.26199  0.74796  0.82125  1.0000
  H   H977      1.0  0.28206  0.73112  0.84232  1.0000
  H   H978      1.0  0.31394  0.78834  0.90972  1.0000
  C   C619      1.0  0.11478  0.73205  0.94618  1.0000
  H   H979      1.0  0.23959  0.75992  0.82944  1.0000
  S   S234      1.0  0.30018  0.88347  0.75023  1.0000
  Fe  Fe120     1.0  0.22864  0.97365  0.76527  1.0000
  C   C620      1.0  0.18687  0.92077  0.77184  1.0000
  Fe  Fe121     1.0  0.21092  0.85196  0.76709  1.0000
  C   C621      1.0  0.18337  0.93814  0.77448  1.0000
  C   C622      1.0  0.19768  0.94554  0.77411  1.0000
  H   H980      1.0  0.16959  0.94579  0.77713  1.0000
  H   H981      1.0  0.19488  0.95878  0.77663  1.0000
  H   H982      1.0  0.21187  0.79146  0.81879  1.0000
  H   H983      1.0  0.24095  0.79655  0.93625  1.0000
  H   H984      1.0  0.24342  0.74852  0.87675  1.0000
  S   S235      1.0  0.20233  0.76105  0.84503  1.0000
  H   H985      1.0  0.09485  0.67744  0.83996  1.0000
  C   C623      1.0  0.16887  0.80874  0.81271  1.0000
  C   C624      1.0  0.18935  0.77886  0.83218  1.0000
  C   C625      1.0  0.31228  0.78883  0.92347  1.0000
  N   N64       1.0  0.16075  0.80894  0.87490  1.0000
  C   C626      1.0  0.14828  0.80275  0.89175  1.0000
  C   C627      1.0  0.15141  0.81422  0.85995  1.0000
  C   C628      1.0  0.16661  0.82446  0.87625  1.0000
  H   H986      1.0  0.15484  0.79872  0.90337  1.0000
  H   H987      1.0  0.14377  0.79089  0.89127  1.0000
  H   H988      1.0  0.13594  0.81336  0.89464  1.0000
  H   H989      1.0  0.14657  0.80287  0.85872  1.0000
  H   H990      1.0  0.13941  0.82543  0.86177  1.0000
  H   H991      1.0  0.16053  0.81864  0.84693  1.0000
  H   H992      1.0  0.15486  0.83575  0.87876  1.0000
  H   H993      1.0  0.17600  0.82946  0.86368  1.0000
  H   H994      1.0  0.17376  0.82091  0.88738  1.0000
  S   S236      1.0  0.23888  0.83960  0.77229  1.0000
  H   H995      1.0  0.25707  0.88639  0.78810  1.0000
  H   H996      1.0  0.30672  0.79032  0.97285  1.0000
  H   H997      1.0  0.20884  0.80218  0.97911  1.0000
  H   H998      1.0  0.14641  0.79604  0.82576  1.0000
  H   H999      1.0  0.23273  0.91057  0.76577  1.0000
  H   H1000     1.0  0.27356  0.83140  0.78052  1.0000
  C   C629      1.0  0.28280  0.87167  0.75683  1.0000
  C   C630      1.0  0.25270  0.86989  0.75606  1.0000
  H   H1001     1.0  0.13645  0.68454  0.84746  1.0000
  H   H1002     1.0  0.21850  0.79539  0.94933  1.0000
  S   S237      1.0  0.18856  0.86052  0.78948  1.0000
  S   S238      1.0  0.31487  0.74633  0.90169  1.0000
  S   S239      1.0  0.28091  0.77732  0.93029  1.0000
  C   C631      1.0  0.12927  0.65914  0.83623  1.0000
  H   H1003     1.0  0.16453  0.76959  0.84296  1.0000
  S   S240      1.0  0.15570  0.82794  0.80161  1.0000
  C   C632      1.0  0.12503  0.66493  0.88629  1.0000
  H   H1004     1.0  0.26114  0.86339  0.79969  1.0000
  S   S241      1.0  0.19604  0.83517  0.76060  1.0000
  C   C633      1.0  0.22959  0.80264  0.94620  1.0000
  H   H1005     1.0  0.28397  0.73925  0.95981  1.0000
  Fe  Fe122     1.0  0.17901  0.88344  0.76817  1.0000
  S   S242      1.0  0.23340  0.94362  0.77249  1.0000
  H   H1006     1.0  0.20747  0.89750  0.76661  1.0000
  C   C634      1.0  0.16069  0.79504  0.82430  1.0000
  S   S243      1.0  0.16113  0.86960  0.76200  1.0000
  H   H1007     1.0  0.17687  0.67992  0.96421  1.0000
  C   C635      1.0  0.27982  0.82339  0.82569  1.0000
  C   C636      1.0  0.19759  0.79239  0.82034  1.0000
  C   C637      1.0  0.32285  0.79557  0.94609  1.0000
  H   H1008     1.0  0.24671  0.78105  0.98307  1.0000
  S   S244      1.0  0.16898  0.91151  0.77240  1.0000
  H   H1009     1.0  0.19377  0.81785  0.80175  1.0000
  C   C638      1.0  0.21545  0.93550  0.77123  1.0000
  C   C639      1.0  0.18736  0.80734  0.81066  1.0000
  C   C640      1.0  0.20468  0.91090  0.76860  1.0000
  C   C641      1.0  0.21896  0.91827  0.76823  1.0000
  Fe  Fe123     1.0  0.17291  0.84577  0.78139  1.0000
  C   C642      1.0  0.17090  0.78014  0.83410  1.0000
  C   C643      1.0  0.17049  0.71526  0.96289  1.0000
  H   H1010     1.0  0.23021  0.86034  0.80189  1.0000
  C   C644      1.0  0.17675  0.79429  0.87163  1.0000
  Fe  Fe124     1.0  0.31769  0.90843  0.78988  1.0000
  H   H1011     1.0  0.23082  0.90785  0.79965  1.0000
  H   H1012     1.0  0.30531  0.72422  0.96204  1.0000
  S   S245      1.0  0.11139  0.66574  0.98378  1.0000
  C   C645      1.0  0.25529  0.85248  0.76654  1.0000
  C   C646      1.0  0.32491  0.79488  0.92830  1.0000
  H   H1013     1.0  0.11743  0.69785  0.80667  1.0000
  C   C647      1.0  0.22580  0.87479  0.80234  1.0000
  H   H1014     1.0  0.18535  0.69154  0.94200  1.0000
  H   H1015     1.0  0.27737  0.69345  0.96349  1.0000
  H   H1016     1.0  0.22719  0.88239  0.78826  1.0000
  H   H1017     1.0  0.21117  0.87748  0.80888  1.0000
  H   H1018     1.0  0.25953  0.81584  0.73960  1.0000
  H   H1019     1.0  0.24017  0.87598  0.75166  1.0000
  H   H1020     1.0  0.16977  0.72644  0.96903  1.0000
  H   H1021     1.0  0.32054  0.82031  0.87257  1.0000
  C   C648      1.0  0.25571  0.87732  0.80159  1.0000
  H   H1022     1.0  0.26450  0.88008  0.80874  1.0000
  S   S246      1.0  0.14773  0.76364  0.92509  1.0000
  H   H1023     1.0  0.23764  0.90267  0.82034  1.0000
  N   N65       1.0  0.23675  0.87975  0.81171  1.0000
  C   C649      1.0  0.22978  0.89868  0.81307  1.0000
  N   N66       1.0  0.23556  0.80156  0.96251  1.0000
  H   H1024     1.0  0.27066  0.84143  0.86848  1.0000
  H   H1025     1.0  0.21531  0.90127  0.82014  1.0000
  C   C650      1.0  0.17493  0.75984  0.94235  1.0000
  C   C651      1.0  0.24995  0.81163  0.95792  1.0000
  C   C652      1.0  0.08787  0.72846  0.94012  1.0000
  H   H1026     1.0  0.13105  0.70269  0.82925  1.0000
  H   H1027     1.0  0.10546  0.75220  0.91564  1.0000
  H   H1028     1.0  0.09397  0.85836  0.74705  1.0000
  C   C653      1.0  0.27150  0.84484  0.77237  1.0000
  C   C654      1.0  0.15772  0.76907  0.93938  1.0000
  C   C655      1.0  0.18226  0.76448  0.95418  1.0000
  C   C656      1.0  0.23591  0.86815  0.82981  1.0000
  H   H1029     1.0  0.24152  0.85380  0.82923  1.0000
  C   C657      1.0  0.15564  0.78813  0.95914  1.0000
  H   H1030     1.0  0.31409  0.96288  0.80814  1.0000
  C   C658      1.0  0.28511  0.85451  0.76776  1.0000
  H   H1031     1.0  0.23289  0.73253  0.85197  1.0000
  H   H1032     1.0  0.24398  0.87163  0.83727  1.0000
  S   S247      1.0  0.31061  0.75141  0.86099  1.0000
  H   H1033     1.0  0.22176  0.86946  0.83777  1.0000
  S   S248      1.0  0.30305  0.78702  0.87779  1.0000
  H   H1034     1.0  0.19556  0.75745  0.95644  1.0000
  H   H1035     1.0  0.20364  0.68533  0.98196  1.0000
  C   C659      1.0  0.17261  0.77874  0.96250  1.0000
  C   C660      1.0  0.14810  0.78312  0.94788  1.0000
  H   H1036     1.0  0.13481  0.79029  0.94565  1.0000
  H   H1037     1.0  0.20093  0.71629  0.93766  1.0000
  H   H1038     1.0  0.26922  0.71252  0.97349  1.0000
  Fe  Fe125     1.0  0.18766  0.74455  0.86948  1.0000
  S   S249      1.0  0.15787  0.74985  0.88085  1.0000
  S   S250      1.0  0.28363  0.86753  0.83850  1.0000
  S   S251      1.0  0.32054  0.85814  0.79495  1.0000
  C   C661      1.0  0.24727  0.72896  0.85310  1.0000
  C   C662      1.0  0.29547  0.78430  0.95418  1.0000
  C   C663      1.0  0.27952  0.84675  0.83982  1.0000
  C   C664      1.0  0.27317  0.83644  0.85653  1.0000
  H   H1039     1.0  0.24788  0.72056  0.86673  1.0000
  H   H1040     1.0  0.26639  0.81116  0.87087  1.0000
  C   C665      1.0  0.27075  0.81936  0.85788  1.0000
  S   S252      1.0  0.29366  0.89830  0.79135  1.0000
  S   S253      1.0  0.27414  0.76072  0.89245  1.0000
  C   C666      1.0  0.28272  0.84028  0.82440  1.0000
  H   H1041     1.0  0.28743  0.84824  0.81145  1.0000
  H   H1042     1.0  0.24491  0.82613  0.95267  1.0000
  H   H1043     1.0  0.23243  0.77443  0.97313  1.0000
  H   H1044     1.0  0.29760  0.84848  0.77229  1.0000
  C   C667      1.0  0.27421  0.81279  0.84247  1.0000
  H   H1045     1.0  0.28413  0.78024  0.96424  1.0000
  H   H1046     1.0  0.08087  0.74254  0.94069  1.0000
  H   H1047     1.0  0.18658  0.79849  0.85908  1.0000
  S   S254      1.0  0.27344  0.79068  0.84444  1.0000
  Fe  Fe126     1.0  0.31284  0.88145  0.77289  1.0000
  S   S255      1.0  0.19486  0.74326  0.89514  1.0000
  H   H1048     1.0  0.24871  0.76824  0.86090  1.0000
  H   H1049     1.0  0.28262  0.81827  0.81377  1.0000
  H   H1050     1.0  0.17285  0.78249  0.87021  1.0000
  H   H1051     1.0  0.18396  0.78968  0.88279  1.0000
  S   S256      1.0  0.31396  0.93796  0.78529  1.0000
  H   H1052     1.0  0.20087  0.67702  0.95512  1.0000
  C   C668      1.0  0.29741  0.78380  0.93636  1.0000
  H   H1053     1.0  0.29571  0.98198  0.78544  1.0000
  Fe  Fe127     1.0  0.30304  0.87623  0.81310  1.0000
  Fe  Fe128     1.0  0.29183  0.77004  0.90375  1.0000
  Fe  Fe129     1.0  0.28796  0.77486  0.86609  1.0000
  Fe  Fe130     1.0  0.16530  0.74568  0.90695  1.0000
  H   H1054     1.0  0.21612  0.70120  0.95090  1.0000
  C   C669      1.0  0.24347  0.75612  0.86282  1.0000
  C   C670      1.0  0.30828  0.79001  0.95907  1.0000
  H   H1055     1.0  0.28062  0.94170  0.77119  1.0000
  H   H1056     1.0  0.18253  0.74917  0.93557  1.0000
  C   C671      1.0  0.28239  0.95168  0.75830  1.0000
  H   H1057     1.0  0.30637  0.92046  0.75726  1.0000
  S   S257      1.0  0.18194  0.78615  0.97596  1.0000
  H   H1058     1.0  0.14820  0.79922  0.96544  1.0000
  H   H1059     1.0  0.31564  0.69791  0.94703  1.0000
  H   H1060     1.0  0.07327  0.66327  0.90226  1.0000
  H   H1061     1.0  0.22444  0.81675  0.93972  1.0000
  C   C672      1.0  0.19070  0.69542  0.98137  1.0000
  H   H1062     1.0  0.11262  0.67644  0.80924  1.0000
  H   H1063     1.0  0.22918  0.76077  0.86146  1.0000
  H   H1064     1.0  0.10732  0.90169  0.73762  1.0000
  C   C673      1.0  0.18773  0.68698  0.95579  1.0000
  C   C674      1.0  0.24262  0.78261  0.97037  1.0000
  C   C675      1.0  0.28148  0.70461  0.96600  1.0000
  H   H1065     1.0  0.27514  0.92213  0.75520  1.0000
  H   H1066     1.0  0.10898  0.74638  0.94663  1.0000
  H   H1067     1.0  0.27065  0.71413  0.93511  1.0000
  C   C676      1.0  0.32748  0.81446  0.83949  1.0000
  H   H1068     1.0  0.26410  0.94099  0.74076  1.0000
  H   H1069     1.0  0.11279  0.66020  0.88922  1.0000
  H   H1070     1.0  0.12758  0.85256  0.74266  1.0000
  H   H1071     1.0  0.23552  0.82279  0.74591  1.0000
  H   H1072     1.0  0.15527  0.94601  0.74970  1.0000
  C   C677      1.0  0.28390  0.98371  0.79679  1.0000
  N   N67       1.0  0.28957  0.98264  0.81327  1.0000
  H   H1073     1.0  0.26470  0.89269  0.74259  1.0000
  H   H1074     1.0  0.33123  0.79956  0.84263  1.0000
  C   C678      1.0  0.30773  0.93100  0.74484  1.0000
  H   H1075     1.0  0.31737  0.93851  0.74557  1.0000
  C   C679      1.0  0.27341  0.98524  0.82788  1.0000
  H   H1076     1.0  0.27716  0.98470  0.84048  1.0000
  N   N68       1.0  0.28999  0.94292  0.74295  1.0000
  H   H1077     1.0  0.16920  0.96215  0.74284  1.0000
  C   C680      1.0  0.27753  0.93232  0.74252  1.0000
  Fe  Fe131     1.0  0.18562  0.86026  0.74178  1.0000
  C   C681      1.0  0.12617  0.86734  0.73915  1.0000
  C   C682      1.0  0.15994  0.95679  0.73848  1.0000
  S   S258      1.0  0.24209  0.98744  0.77702  1.0000
  S   S259      1.0  0.00096  0.65859  0.76819  1.0000
  H   H1078     1.0  0.08179  0.87982  0.73714  1.0000
  H   H1079     1.0  0.64360  0.08298  0.04601  1.0000
  S   S260      1.0  0.55043  0.05469  0.03216  1.0000
  H   H1080     1.0  0.61683  0.04811  0.07300  1.0000
  Fe  Fe132     1.0  0.52999  0.07623  0.01894  1.0000
  S   S261      1.0  0.66004  0.99314  0.13823  1.0000
  Fe  Fe133     1.0  0.56933  0.07331  0.01811  1.0000
  S   S262      1.0  0.58987  0.07797  0.02998  1.0000
  C   C683      1.0  0.48264  0.04428  0.02899  1.0000
  H   H1081     1.0  0.49185  0.04569  0.11070  1.0000
  S   S263      1.0  0.36074  0.08669  0.04221  1.0000
  S   S264      1.0  0.49241  0.00929  0.11202  1.0000
  H   H1082     1.0  0.64692  0.02846  0.07409  1.0000
  C   C684      1.0  0.47247  0.00468  0.12720  1.0000
  C   C685      1.0  0.34284  0.11150  0.99685  1.0000
  C   C686      1.0  0.45649  0.06756  0.03663  1.0000
  S   S265      1.0  0.50105  0.08535  0.03255  1.0000
  H   H1083     1.0  0.50283  0.05093  0.06109  1.0000
  H   H1084     1.0  0.37452  0.06031  0.07332  1.0000
  S   S266      1.0  0.57911  0.06234  0.99336  1.0000
  C   C687      1.0  0.35406  0.10347  0.00907  1.0000
  C   C688      1.0  0.44088  0.00351  0.13282  1.0000
  C   C689      1.0  0.33682  0.04842  0.10192  1.0000
  S   S267      1.0  0.39595  0.99952  0.12546  1.0000
  S   S268      1.0  0.44987  0.03552  0.03660  1.0000
  Fe  Fe134     1.0  0.65151  0.01167  0.11376  1.0000
  Fe  Fe135     1.0  0.55847  0.04561  0.00631  1.0000
  S   S269      1.0  0.62350  0.02144  0.10821  1.0000
  H   H1085     1.0  0.56771  0.00106  0.11878  1.0000
  C   C690      1.0  0.62468  0.11352  0.98751  1.0000
  H   H1086     1.0  0.34195  0.07416  0.00318  1.0000
  N   N69       1.0  0.64204  0.05654  0.06195  1.0000
  H   H1087     1.0  0.36701  0.06028  0.09673  1.0000
  H   H1088     1.0  0.50863  0.05034  0.02490  1.0000
  C   C691      1.0  0.36527  0.02909  0.09154  1.0000
  S   S270      1.0  0.38034  0.01127  0.02785  1.0000
  H   H1089     1.0  0.66481  0.06728  0.04554  1.0000
  H   H1090     1.0  0.48984  0.04043  0.08165  1.0000
  H   H1091     1.0  0.48857  0.08425  0.08982  1.0000
  S   S271      1.0  0.41341  0.07563  0.01381  1.0000
  H   H1092     1.0  0.46231  0.09155  0.03903  1.0000
  H   H1093     1.0  0.45593  0.01593  0.10770  1.0000
  H   H1094     1.0  0.54594  0.99239  0.06629  1.0000
  C   C692      1.0  0.34722  0.04803  0.07060  1.0000
  H   H1095     1.0  0.63556  0.05325  0.09051  1.0000
  H   H1096     1.0  0.36786  0.00303  0.06594  1.0000
  C   C693      1.0  0.58094  0.99787  0.12171  1.0000
  H   H1097     1.0  0.48486  0.99352  0.14987  1.0000
  C   C694      1.0  0.39094  0.99726  0.04477  1.0000
  Fe  Fe136     1.0  0.38595  0.07020  0.02827  1.0000
  H   H1098     1.0  0.35854  0.01789  0.09377  1.0000
  C   C695      1.0  0.33595  0.06808  0.99591  1.0000
  H   H1099     1.0  0.35350  0.07452  0.08122  1.0000
  H   H1100     1.0  0.58793  0.09637  0.99358  1.0000
  C   C696      1.0  0.44114  0.99484  0.15060  1.0000
  Fe  Fe137     1.0  0.40993  0.06355  0.99312  1.0000
  H   H1101     1.0  0.34063  0.04727  0.11467  1.0000
  S   S272      1.0  0.34300  0.00920  0.13327  1.0000
  H   H1102     1.0  0.51403  0.03336  0.07654  1.0000
  H   H1103     1.0  0.50605  0.05997  0.11023  1.0000
  S   S273      1.0  0.54805  0.09583  0.00746  1.0000
  Fe  Fe138     1.0  0.39432  0.03389  0.01999  1.0000
  H   H1104     1.0  0.65797  0.99849  0.21916  1.0000
  H   H1105     1.0  0.64951  0.06584  0.03343  1.0000
  Fe  Fe139     1.0  0.42425  0.04700  0.02631  1.0000
  H   H1106     1.0  0.65559  0.06157  0.07932  1.0000
  S   S274      1.0  0.39717  0.04279  0.04300  1.0000
  C   C697      1.0  0.62333  0.05728  0.06118  1.0000
  H   H1107     1.0  0.35268  0.03394  0.00637  1.0000
  C   C698      1.0  0.46800  0.07841  0.03607  1.0000
  H   H1108     1.0  0.47929  0.00952  0.08078  1.0000
  H   H1109     1.0  0.62292  0.05336  0.04900  1.0000
  H   H1110     1.0  0.44196  0.07226  0.04017  1.0000
  C   C699      1.0  0.49413  0.05525  0.02805  1.0000
  C   C700      1.0  0.46381  0.05037  0.03336  1.0000
  H   H1111     1.0  0.33808  0.06123  0.06677  1.0000
  S   S275      1.0  0.38153  0.06090  0.00626  1.0000
  H   H1112     1.0  0.65375  0.03356  0.05018  1.0000
  C   C701      1.0  0.59242  0.00992  0.11388  1.0000
  C   C702      1.0  0.60948  0.00605  0.11789  1.0000
  C   C703      1.0  0.65030  0.06870  0.04602  1.0000
  H   H1113     1.0  0.51592  0.03850  0.10449  1.0000
  H   H1114     1.0  0.34725  0.04501  0.02443  1.0000
  H   H1115     1.0  0.58801  0.02234  0.10485  1.0000
  H   H1116     1.0  0.36853  0.10233  0.00459  1.0000
  H   H1117     1.0  0.45757  0.01786  0.07477  1.0000
  C   C704      1.0  0.60284  0.09214  0.01378  1.0000
  C   C705      1.0  0.36240  0.06105  0.08453  1.0000
  S   S276      1.0  0.53657  0.06569  0.99413  1.0000
  H   H1118     1.0  0.48836  0.03103  0.02634  1.0000
  C   C706      1.0  0.62824  0.10675  0.00462  1.0000
  C   C707      1.0  0.61721  0.09620  0.01777  1.0000
  H   H1119     1.0  0.44493  0.99910  0.06407  1.0000
  S   S277      1.0  0.42250  0.03530  0.00452  1.0000
  H   H1120     1.0  0.63928  0.10986  0.00782  1.0000
  H   H1121     1.0  0.61968  0.09130  0.03105  1.0000
  H   H1122     1.0  0.61469  0.07099  0.06097  1.0000
  S   S278      1.0  0.56576  0.01752  0.00224  1.0000
  C   C708      1.0  0.55456  0.00381  0.03830  1.0000
  C   C709      1.0  0.56412  0.00032  0.02155  1.0000
  C   C710      1.0  0.59915  0.09918  0.99675  1.0000
  C   C711      1.0  0.65289  0.03806  0.06242  1.0000
  C   C712      1.0  0.34657  0.09722  0.02707  1.0000
  H   H1123     1.0  0.54783  0.01733  0.03954  1.0000
  C   C713      1.0  0.45636  0.00891  0.12129  1.0000
  C   C714      1.0  0.64172  0.06211  0.07821  1.0000
  H   H1124     1.0  0.63374  0.07602  0.07828  1.0000
  C   C715      1.0  0.48682  0.07225  0.03183  1.0000
  N   N70       1.0  0.50391  0.05869  0.08436  1.0000
  C   C716      1.0  0.52058  0.06537  0.07518  1.0000
  C   C717      1.0  0.48796  0.07374  0.08346  1.0000
  C   C718      1.0  0.50449  0.05039  0.10327  1.0000
  C   C719      1.0  0.50260  0.04526  0.07552  1.0000
  H   H1125     1.0  0.53286  0.05430  0.07531  1.0000
  H   H1126     1.0  0.52215  0.07543  0.08154  1.0000
  H   H1127     1.0  0.52042  0.07198  0.06094  1.0000
  H   H1128     1.0  0.48699  0.08023  0.06939  1.0000
  H   H1129     1.0  0.47516  0.06915  0.09027  1.0000
  N   N71       1.0  0.35294  0.04665  0.08713  1.0000
  C   C720      1.0  0.45890  0.99097  0.06050  1.0000
  H   H1130     1.0  0.42869  0.00631  0.12801  1.0000
  H   H1131     1.0  0.36976  0.02758  0.10400  1.0000
  H   H1132     1.0  0.37760  0.02727  0.08067  1.0000
  H   H1133     1.0  0.35902  0.04676  0.05914  1.0000
  H   H1134     1.0  0.47780  0.01533  0.05780  1.0000
  H   H1135     1.0  0.46463  0.99693  0.04637  1.0000
  H   H1136     1.0  0.34002  0.03735  0.07216  1.0000
  N   N72       1.0  0.47015  0.99068  0.07261  1.0000
  C   C721      1.0  0.45686  0.99187  0.15685  1.0000
  C   C722      1.0  0.47127  0.00915  0.07151  1.0000
  C   C723      1.0  0.34127  0.03959  0.01655  1.0000
  C   C724      1.0  0.47265  0.99630  0.14505  1.0000
  C   C725      1.0  0.38199  0.99655  0.06265  1.0000
  Fe  Fe140     1.0  0.36954  0.99089  0.13749  1.0000
  H   H1137     1.0  0.33551  0.02825  0.02573  1.0000
  H   H1138     1.0  0.44808  0.99067  0.09561  1.0000
  H   H1139     1.0  0.42887  0.06443  0.73589  1.0000
  H   H1140     1.0  0.42087  0.13284  0.94689  1.0000
  H   H1141     1.0  0.51797  0.99776  0.89131  1.0000
  H   H1142     1.0  0.34290  0.10815  0.93402  1.0000
  Fe  Fe141     1.0  0.49070  0.01548  0.78615  1.0000
  C   C726      1.0  0.60994  0.10998  0.98373  1.0000
  S   S279      1.0  0.48010  0.03729  0.76450  1.0000
  C   C727      1.0  0.44891  0.12123  0.92130  1.0000
  Fe  Fe142     1.0  0.34621  0.01962  0.78177  1.0000
  H   H1143     1.0  0.57386  0.00664  0.85592  1.0000
  S   S280      1.0  0.63898  0.12559  0.97035  1.0000
  S   S281      1.0  0.50800  0.02170  0.80072  1.0000
  C   C728      1.0  0.33824  0.04204  0.87045  1.0000
  N   N73       1.0  0.45251  0.05521  0.89348  1.0000
  C   C729      1.0  0.42386  0.04118  0.75638  1.0000
  H   H1144     1.0  0.33752  0.13257  0.90764  1.0000
  H   H1145     1.0  0.37947  0.02543  0.86183  1.0000
  H   H1146     1.0  0.46348  0.11837  0.91448  1.0000
  Fe  Fe143     1.0  0.51245  0.09088  0.85757  1.0000
  S   S282      1.0  0.50257  0.07574  0.88511  1.0000
  S   S283      1.0  0.49399  0.09611  0.83901  1.0000
  Fe  Fe144     1.0  0.54845  0.08935  0.86517  1.0000
  S   S284      1.0  0.54174  0.07331  0.89312  1.0000
  Fe  Fe145     1.0  0.53019  0.05806  0.88120  1.0000
  S   S285      1.0  0.53200  0.02853  0.88853  1.0000
  Fe  Fe146     1.0  0.51486  0.09269  0.89411  1.0000
  S   S286      1.0  0.50021  0.10267  0.91898  1.0000
  S   S287      1.0  0.53952  0.07210  0.85300  1.0000
  S   S288      1.0  0.52220  0.10990  0.86686  1.0000
  S   S289      1.0  0.56200  0.09938  0.95558  1.0000
  Fe  Fe147     1.0  0.38791  0.08981  0.85239  1.0000
  S   S290      1.0  0.38055  0.11894  0.85305  1.0000
  S   S291      1.0  0.39889  0.08040  0.82682  1.0000
  Fe  Fe148     1.0  0.39509  0.10989  0.87559  1.0000
  S   S292      1.0  0.41458  0.12238  0.88106  1.0000
  S   S293      1.0  0.40464  0.08144  0.87283  1.0000
  C   C730      1.0  0.60424  0.14314  0.93500  1.0000
  S   S294      1.0  0.65075  0.04537  0.76451  1.0000
  H   H1147     1.0  0.57501  0.01676  0.80747  1.0000
  Fe  Fe149     1.0  0.63283  0.02851  0.76330  1.0000
  S   S295      1.0  0.60379  0.04135  0.76212  1.0000
  S   S296      1.0  0.63874  0.00736  0.78739  1.0000
  S   S297      1.0  0.47731  0.01882  0.84978  1.0000
  H   H1148     1.0  0.40009  0.08155  0.90945  1.0000
  H   H1149     1.0  0.56764  0.03321  0.82079  1.0000
  C   C731      1.0  0.57767  0.13945  0.92826  1.0000
  C   C732      1.0  0.40803  0.07894  0.93364  1.0000
  H   H1150     1.0  0.59735  0.14215  0.94934  1.0000
  H   H1151     1.0  0.39873  0.04781  0.97187  1.0000
  C   C733      1.0  0.59434  0.09020  0.89640  1.0000
  N   N74       1.0  0.56178  0.00748  0.83458  1.0000
  H   H1152     1.0  0.56890  0.09102  0.89082  1.0000
  H   H1153     1.0  0.59623  0.09802  0.79283  1.0000
  H   H1154     1.0  0.54834  0.02427  0.93992  1.0000
  C   C734      1.0  0.39958  0.07419  0.92303  1.0000
  S   S298      1.0  0.57564  0.09588  0.85217  1.0000
  H   H1155     1.0  0.46775  0.06566  0.86758  1.0000
  H   H1156     1.0  0.42437  0.11269  0.96389  1.0000
  H   H1157     1.0  0.34666  0.07149  0.84663  1.0000
  H   H1158     1.0  0.60708  0.11533  0.97064  1.0000
  H   H1159     1.0  0.44163  0.11488  0.91554  1.0000
  H   H1160     1.0  0.41922  0.11203  0.94370  1.0000
  S   S299      1.0  0.36958  0.01109  0.76007  1.0000
  H   H1161     1.0  0.34755  0.03112  0.86407  1.0000
  C   C735      1.0  0.58696  0.99481  0.78037  1.0000
  C   C736      1.0  0.57344  0.01873  0.82107  1.0000
  H   H1162     1.0  0.56393  0.04546  0.96714  1.0000
  H   H1163     1.0  0.58927  0.08819  0.91069  1.0000
  H   H1164     1.0  0.45967  0.07913  0.89397  1.0000
  C   C737      1.0  0.60742  0.09574  0.85941  1.0000
  H   H1165     1.0  0.63276  0.09511  0.86479  1.0000
  H   H1166     1.0  0.61258  0.09805  0.84510  1.0000
  C   C738      1.0  0.47188  0.10437  0.84994  1.0000
  C   C739      1.0  0.46889  0.11234  0.86433  1.0000
  C   C740      1.0  0.45119  0.11849  0.87337  1.0000
  C   C741      1.0  0.43648  0.11612  0.86848  1.0000
  C   C742      1.0  0.43945  0.10819  0.85404  1.0000
  C   C743      1.0  0.45717  0.10250  0.84465  1.0000
  H   H1167     1.0  0.48022  0.11407  0.86828  1.0000
  H   H1168     1.0  0.44891  0.12510  0.88413  1.0000
  H   H1169     1.0  0.42811  0.10669  0.84996  1.0000
  H   H1170     1.0  0.45951  0.09647  0.83346  1.0000
  C   C744      1.0  0.51643  0.10450  0.92901  1.0000
  C   C745      1.0  0.51278  0.10275  0.94752  1.0000
  C   C746      1.0  0.52658  0.10199  0.95577  1.0000
  C   C747      1.0  0.54392  0.10313  0.94544  1.0000
  C   C748      1.0  0.54723  0.10592  0.92686  1.0000
  C   C749      1.0  0.53355  0.10641  0.91866  1.0000
  H   H1171     1.0  0.49953  0.10128  0.95557  1.0000
  H   H1172     1.0  0.52388  0.10020  0.97012  1.0000
  H   H1173     1.0  0.56051  0.10710  0.91882  1.0000
  H   H1174     1.0  0.53629  0.10816  0.90430  1.0000
  C   C750      1.0  0.38222  0.02843  0.83359  1.0000
  C   C751      1.0  0.38332  0.03346  0.84861  1.0000
  C   C752      1.0  0.38893  0.04924  0.84658  1.0000
  C   C753      1.0  0.39371  0.05978  0.82951  1.0000
  C   C754      1.0  0.39388  0.05403  0.81447  1.0000
  C   C755      1.0  0.38827  0.03831  0.81652  1.0000
  C   C756      1.0  0.56812  0.00049  0.78304  1.0000
  H   H1175     1.0  0.38949  0.05327  0.85822  1.0000
  H   H1176     1.0  0.39785  0.06197  0.80121  1.0000
  H   H1177     1.0  0.38858  0.03398  0.80480  1.0000
  H   H1178     1.0  0.54409  0.01048  0.81728  1.0000
  C   C757      1.0  0.56031  0.01870  0.77823  1.0000
  C   C758      1.0  0.57136  0.03124  0.77130  1.0000
  C   C759      1.0  0.59020  0.02555  0.76908  1.0000
  C   C760      1.0  0.59797  0.00728  0.77331  1.0000
  Fe  Fe150     1.0  0.36973  0.01014  0.80893  1.0000
  H   H1179     1.0  0.54579  0.02318  0.78006  1.0000
  H   H1180     1.0  0.56530  0.04536  0.76787  1.0000
  S   S300      1.0  0.47214  0.00417  0.81086  1.0000
  S   S301      1.0  0.37230  0.01053  0.83609  1.0000
  C   C761      1.0  0.49373  0.02061  0.85950  1.0000
  H   H1181     1.0  0.45056  0.13811  0.94555  1.0000
  H   H1182     1.0  0.65863  0.07086  0.84625  1.0000
  C   C762      1.0  0.51763  0.02511  0.87717  1.0000
  C   C763      1.0  0.51085  0.03907  0.86404  1.0000
  C   C764      1.0  0.49899  0.03684  0.85518  1.0000
  H   H1183     1.0  0.47065  0.12099  0.94191  1.0000
  H   H1184     1.0  0.65067  0.08009  0.97842  1.0000
  H   H1185     1.0  0.51446  0.05180  0.86074  1.0000
  H   H1186     1.0  0.49363  0.04786  0.84523  1.0000
  C   C765      1.0  0.45868  0.03808  0.76133  1.0000
  S   S302      1.0  0.41788  0.07621  0.96432  1.0000
  H   H1187     1.0  0.45666  0.04698  0.82434  1.0000
  H   H1188     1.0  0.58047  0.07308  0.82626  1.0000
  C   C766      1.0  0.43097  0.02717  0.76937  1.0000
  C   C767      1.0  0.44840  0.02556  0.77179  1.0000
  N   N75       1.0  0.60713  0.07364  0.80993  1.0000
  H   H1189     1.0  0.42319  0.01750  0.77741  1.0000
  H   H1190     1.0  0.45390  0.01458  0.78159  1.0000
  C   C768      1.0  0.46881  0.04307  0.89920  1.0000
  C   C769      1.0  0.66230  0.04735  0.81540  1.0000
  C   C770      1.0  0.60301  0.09338  0.80430  1.0000
  H   H1191     1.0  0.59444  0.11151  0.94969  1.0000
  H   H1192     1.0  0.61249  0.00273  0.77124  1.0000
  C   C771      1.0  0.64723  0.07571  0.96793  1.0000
  H   H1193     1.0  0.65272  0.10429  0.94153  1.0000
  H   H1194     1.0  0.53709  0.02678  0.83088  1.0000
  H   H1195     1.0  0.57039  0.13759  0.94257  1.0000
  C   C772      1.0  0.43422  0.05361  0.74597  1.0000
  C   C773      1.0  0.50071  0.00640  0.87236  1.0000
  H   H1196     1.0  0.34288  0.07548  0.78983  1.0000
  S   S303      1.0  0.36072  0.03547  0.78981  1.0000
  H   H1197     1.0  0.64408  0.08010  0.93408  1.0000
  C   C774      1.0  0.54354  0.01249  0.83067  1.0000
  C   C775      1.0  0.61230  0.09167  0.88908  1.0000
  C   C776      1.0  0.60131  0.11375  0.93532  1.0000
  H   H1198     1.0  0.60393  0.14938  0.90016  1.0000
  H   H1199     1.0  0.33400  0.12415  0.94808  1.0000
  H   H1200     1.0  0.65376  0.05710  0.94263  1.0000
  S   S304      1.0  0.62637  0.09107  0.90290  1.0000
  H   H1201     1.0  0.57411  0.15389  0.92189  1.0000
  C   C777      1.0  0.61596  0.06812  0.82526  1.0000
  H   H1202     1.0  0.41339  0.00416  0.81506  1.0000
  H   H1203     1.0  0.43391  0.00428  0.82029  1.0000
  H   H1204     1.0  0.61329  0.06958  0.78312  1.0000
  H   H1205     1.0  0.47438  0.07219  0.77893  1.0000
  H   H1206     1.0  0.62297  0.05099  0.79884  1.0000
  H   H1207     1.0  0.44367  0.13595  0.91778  1.0000
  H   H1208     1.0  0.53769  0.06622  0.95594  1.0000
  H   H1209     1.0  0.61553  0.09870  0.80019  1.0000
  H   H1210     1.0  0.45938  0.06180  0.74032  1.0000
  H   H1211     1.0  0.44599  0.06931  0.91458  1.0000
  H   H1212     1.0  0.43603  0.08133  0.89578  1.0000
  H   H1213     1.0  0.63241  0.07047  0.79073  1.0000
  H   H1214     1.0  0.63436  0.08486  0.96506  1.0000
  C   C778      1.0  0.44839  0.07196  0.89976  1.0000
  H   H1215     1.0  0.44404  0.06898  0.86893  1.0000
  H   H1216     1.0  0.65327  0.04261  0.84404  1.0000
  H   H1217     1.0  0.41439  0.00106  0.83789  1.0000
  S   S305      1.0  0.37952  0.05487  0.91652  1.0000
  H   H1218     1.0  0.46688  0.03967  0.91400  1.0000
  H   H1219     1.0  0.34914  0.05434  0.83507  1.0000
  H   H1220     1.0  0.48080  0.04919  0.89355  1.0000
  H   H1221     1.0  0.43399  0.04324  0.91603  1.0000
  C   C779      1.0  0.51277  0.00863  0.88117  1.0000
  Fe  Fe151     1.0  0.35668  0.11144  0.87418  1.0000
  N   N76       1.0  0.44640  0.11445  0.94084  1.0000
  H   H1222     1.0  0.46868  0.09162  0.93928  1.0000
  S   S306      1.0  0.39481  0.00031  0.78979  1.0000
  H   H1223     1.0  0.45449  0.11829  0.96280  1.0000
  H   H1224     1.0  0.47225  0.03032  0.89462  1.0000
  H   H1225     1.0  0.42455  0.05488  0.89699  1.0000
  N   N77       1.0  0.66186  0.07609  0.95162  1.0000
  H   H1226     1.0  0.62077  0.05332  0.82887  1.0000
  H   H1227     1.0  0.62786  0.07418  0.82222  1.0000
  C   C780      1.0  0.45386  0.09494  0.94475  1.0000
  C   C781      1.0  0.43707  0.04631  0.90115  1.0000
  S   S307      1.0  0.65385  0.01409  0.74347  1.0000
  H   H1228     1.0  0.57216  0.13196  0.92193  1.0000
  H   H1229     1.0  0.61606  0.10826  0.93431  1.0000
  S   S308      1.0  0.40222  0.04371  0.75259  1.0000
  N   N78       1.0  0.55692  0.04649  0.94266  1.0000
  C   C782      1.0  0.53826  0.05683  0.94772  1.0000
  C   C783      1.0  0.56355  0.03637  0.95898  1.0000
  C   C784      1.0  0.56879  0.05888  0.93194  1.0000
  C   C785      1.0  0.55707  0.03388  0.93211  1.0000
  H   H1230     1.0  0.53288  0.06497  0.93576  1.0000
  S   S309      1.0  0.35273  0.99518  0.80307  1.0000
  H   H1231     1.0  0.52886  0.04795  0.95573  1.0000
  H   H1232     1.0  0.57749  0.02813  0.95582  1.0000
  H   H1233     1.0  0.55438  0.02450  0.85327  1.0000
  H   H1234     1.0  0.55470  0.02717  0.96770  1.0000
  H   H1235     1.0  0.58293  0.05158  0.92754  1.0000
  H   H1236     1.0  0.56926  0.06828  0.93972  1.0000
  H   H1237     1.0  0.56391  0.06717  0.91979  1.0000
  H   H1238     1.0  0.55193  0.04101  0.91979  1.0000
  C   C786      1.0  0.39041  0.05045  0.94755  1.0000
  H   H1239     1.0  0.57097  0.02596  0.92791  1.0000
  C   C787      1.0  0.60646  0.13510  0.90733  1.0000
  Fe  Fe152     1.0  0.38493  0.02467  0.77013  1.0000
  Fe  Fe153     1.0  0.49070  0.00810  0.82520  1.0000
  H   H1240     1.0  0.62138  0.13002  0.90548  1.0000
  H   H1241     1.0  0.41467  0.09007  0.92820  1.0000
  C   C788      1.0  0.39061  0.06008  0.92995  1.0000
  H   H1242     1.0  0.60159  0.12752  0.90051  1.0000
  Fe  Fe154     1.0  0.52456  0.99407  0.79915  1.0000
  H   H1243     1.0  0.45843  0.04719  0.86854  1.0000
  C   C789      1.0  0.45137  0.06175  0.82198  1.0000
  H   H1244     1.0  0.44837  0.04715  0.79682  1.0000
  H   H1245     1.0  0.43695  0.06422  0.82928  1.0000
  S   S310      1.0  0.65251  0.12127  0.86121  1.0000
  C   C790      1.0  0.45582  0.05942  0.87377  1.0000
  H   H1246     1.0  0.59635  0.10564  0.92920  1.0000
  C   C791      1.0  0.61886  0.09425  0.87059  1.0000
  H   H1247     1.0  0.42855  0.06437  0.80136  1.0000
  H   H1248     1.0  0.45903  0.06723  0.82817  1.0000
  H   H1249     1.0  0.60200  0.15759  0.92833  1.0000
  S   S311      1.0  0.37037  0.10540  0.89682  1.0000
  N   N79       1.0  0.45320  0.06990  0.80269  1.0000
  C   C792      1.0  0.44320  0.06189  0.79500  1.0000
  C   C793      1.0  0.66214  0.06744  0.83343  1.0000
  N   N80       1.0  0.59743  0.13289  0.92647  1.0000
  C   C794      1.0  0.47251  0.06652  0.79358  1.0000
  H   H1250     1.0  0.44448  0.06751  0.78040  1.0000
  H   H1251     1.0  0.47845  0.05194  0.79524  1.0000
  H   H1252     1.0  0.43979  0.03354  0.89679  1.0000
  H   H1253     1.0  0.58729  0.01539  0.82364  1.0000
  Fe  Fe155     1.0  0.37894  0.07746  0.89253  1.0000
  S   S312      1.0  0.36286  0.08292  0.87182  1.0000
  C   C795      1.0  0.58287  0.09163  0.88518  1.0000
  H   H1254     1.0  0.60658  0.07236  0.83732  1.0000
  C   C796      1.0  0.44575  0.08940  0.80013  1.0000
  H   H1255     1.0  0.43123  0.09245  0.80705  1.0000
  H   H1256     1.0  0.48056  0.07238  0.79896  1.0000
  C   C797      1.0  0.42687  0.11823  0.94920  1.0000
  H   H1257     1.0  0.38362  0.03942  0.95291  1.0000
  H   H1258     1.0  0.45316  0.09595  0.80550  1.0000
  H   H1259     1.0  0.44661  0.09586  0.78573  1.0000
  H   H1260     1.0  0.61903  0.13812  0.93441  1.0000
  C   C798      1.0  0.56039  0.01026  0.85247  1.0000
  C   C799      1.0  0.39886  0.05526  0.95828  1.0000
  C   C800      1.0  0.40755  0.06960  0.95130  1.0000
  H   H1261     1.0  0.49654  0.99383  0.87574  1.0000
  C   C801      1.0  0.65891  0.05151  0.83211  1.0000
  H   H1262     1.0  0.58339  0.07081  0.80379  1.0000
  H   H1263     1.0  0.59388  0.09966  0.81538  1.0000
  C   C802      1.0  0.58943  0.09435  0.86665  1.0000
  H   H1264     1.0  0.44751  0.08786  0.93881  1.0000
  C   C803      1.0  0.61946  0.06588  0.79498  1.0000
  H   H1265     1.0  0.59288  0.05236  0.81983  1.0000
  H   H1266     1.0  0.45146  0.08917  0.95939  1.0000
  H   H1267     1.0  0.34704  0.06312  0.98510  1.0000
  C   C804      1.0  0.59020  0.06716  0.81519  1.0000
  Fe  Fe156     1.0  0.65185  0.09840  0.88511  1.0000
  C   C805      1.0  0.66509  0.09439  0.94478  1.0000
  C   C806      1.0  0.45591  0.12338  0.94811  1.0000
  S   S313      1.0  0.65716  0.02768  0.81438  1.0000
  H   H1268     1.0  0.64453  0.06207  0.97372  1.0000
  H   H1269     1.0  0.55166  0.00201  0.86304  1.0000
  Fe  Fe157     1.0  0.65807  0.02327  0.78742  1.0000
  C   C807      1.0  0.65652  0.07077  0.93786  1.0000
  C   C808      1.0  0.42219  0.99778  0.82482  1.0000
  Fe  Fe158     1.0  0.66131  0.99424  0.76783  1.0000
  H   H1270     1.0  0.34873  0.11648  0.98298  1.0000
  H   H1271     1.0  0.34369  0.11552  0.84368  1.0000
  H   H1272     1.0  0.53435  0.00429  0.84065  1.0000
  H   H1273     1.0  0.33844  0.09744  0.77590  1.0000
  H   H1274     1.0  0.34661  0.04875  0.87449  1.0000
  C   C809      1.0  0.45152  0.05209  0.74845  1.0000
  H   H1275     1.0  0.33643  0.06303  0.76766  1.0000
  Fe  Fe159     1.0  0.66541  0.12273  0.97747  1.0000
  C   C810      1.0  0.33902  0.06402  0.84258  1.0000
  Fe  Fe160     1.0  0.55641  0.08345  0.98371  1.0000
  H   H1276     1.0  0.33327  0.00567  0.75804  1.0000
  H   H1277     1.0  0.65586  0.62642  0.88734  1.0000
  H   H1278     1.0  0.66072  0.63401  0.86343  1.0000
  H   H1279     1.0  0.64470  0.72255  0.03182  1.0000
  H   H1280     1.0  0.52354  0.73734  0.04648  1.0000
  H   H1281     1.0  0.54946  0.73286  0.06011  1.0000
  H   H1282     1.0  0.65138  0.68975  0.03413  1.0000
  H   H1283     1.0  0.58481  0.85132  0.98941  1.0000
  H   H1284     1.0  0.55105  0.81712  0.99088  1.0000
  H   H1285     1.0  0.53832  0.84926  0.98915  1.0000
  H   H1286     1.0  0.61805  0.92672  0.08864  1.0000
  H   H1287     1.0  0.57979  0.97994  0.00706  1.0000
  N   N81       1.0  0.43510  0.86035  0.13942  1.0000
  C   C811      1.0  0.53440  0.89689  0.08169  1.0000
  H   H1288     1.0  0.62682  0.97246  0.07253  1.0000
  H   H1289     1.0  0.46011  0.85229  0.02996  1.0000
  Fe  Fe161     1.0  0.52237  0.82612  0.09095  1.0000
  S   S314      1.0  0.52151  0.80583  0.11661  1.0000
  S   S315      1.0  0.53832  0.81551  0.06696  1.0000
  Fe  Fe162     1.0  0.49971  0.85605  0.10892  1.0000
  S   S316      1.0  0.49723  0.83831  0.13641  1.0000
  S   S317      1.0  0.48729  0.88539  0.10393  1.0000
  Fe  Fe163     1.0  0.52670  0.82687  0.12677  1.0000
  S   S318      1.0  0.54995  0.81923  0.14010  1.0000
  Fe  Fe164     1.0  0.49227  0.81927  0.12324  1.0000
  S   S319      1.0  0.47175  0.80256  0.13727  1.0000
  S   S320      1.0  0.52963  0.84638  0.10045  1.0000
  S   S321      1.0  0.49258  0.83777  0.09638  1.0000
  Fe  Fe165     1.0  0.52404  0.94676  0.13216  1.0000
  S   S322      1.0  0.51399  0.92240  0.14883  1.0000
  H   H1290     1.0  0.43980  0.94923  0.18807  1.0000
  Fe  Fe166     1.0  0.37812  0.85910  0.06579  1.0000
  Fe  Fe167     1.0  0.39075  0.83284  0.09761  1.0000
  S   S323      1.0  0.40640  0.80480  0.10517  1.0000
  S   S324      1.0  0.40355  0.85258  0.07551  1.0000
  Fe  Fe168     1.0  0.59940  0.76625  0.03714  1.0000
  S   S325      1.0  0.59275  0.79518  0.02417  1.0000
  C   C812      1.0  0.59628  0.88616  0.16635  1.0000
  Fe  Fe169     1.0  0.61515  0.79756  0.03484  1.0000
  S   S326      1.0  0.60821  0.82209  0.04624  1.0000
  S   S327      1.0  0.62025  0.76894  0.04993  1.0000
  H   H1291     1.0  0.34098  0.96915  0.11879  1.0000
  Fe  Fe170     1.0  0.61361  0.87921  0.11822  1.0000
  S   S328      1.0  0.63146  0.87816  0.09116  1.0000
  S   S329      1.0  0.58335  0.88696  0.12263  1.0000
  H   H1292     1.0  0.59916  0.93935  0.07879  1.0000
  S   S330      1.0  0.57253  0.96660  0.14361  1.0000
  H   H1293     1.0  0.60752  0.79677  0.09765  1.0000
  Fe  Fe171     1.0  0.64814  0.89216  0.09881  1.0000
  Fe  Fe172     1.0  0.64526  0.87001  0.13642  1.0000
  C   C813      1.0  0.57153  0.96864  0.03509  1.0000
  H   H1294     1.0  0.45419  0.87621  0.02550  1.0000
  S   S331      1.0  0.62849  0.89593  0.12437  1.0000
  S   S332      1.0  0.62836  0.85344  0.13276  1.0000
  C   C814      1.0  0.45349  0.92071  0.15975  1.0000
  C   C815      1.0  0.48853  0.97991  0.06725  1.0000
  C   C816      1.0  0.44519  0.86493  0.00127  1.0000
  S   S333      1.0  0.51010  0.76401  0.01850  1.0000
  H   H1295     1.0  0.37863  0.81677  0.03524  1.0000
  C   C817      1.0  0.35362  0.93638  0.11071  1.0000
  Fe  Fe173     1.0  0.35986  0.78073  0.00754  1.0000
  H   H1296     1.0  0.43219  0.92915  0.19071  1.0000
  H   H1297     1.0  0.42628  0.84222  0.12992  1.0000
  H   H1298     1.0  0.46287  0.91056  0.19164  1.0000
  S   S334      1.0  0.38205  0.92470  0.16055  1.0000
  C   C818      1.0  0.43857  0.84673  0.15568  1.0000
  H   H1299     1.0  0.44874  0.84944  0.16122  1.0000
  C   C819      1.0  0.60219  0.78925  0.09117  1.0000
  H   H1300     1.0  0.34593  0.85782  0.06067  1.0000
  H   H1301     1.0  0.57957  0.81980  0.09842  1.0000
  C   C820      1.0  0.62174  0.82327  0.05988  1.0000
  C   C821      1.0  0.63827  0.81114  0.06108  1.0000
  C   C822      1.0  0.64880  0.81256  0.07201  1.0000
  C   C823      1.0  0.64281  0.82603  0.08183  1.0000
  C   C824      1.0  0.62597  0.83771  0.08106  1.0000
  C   C825      1.0  0.61554  0.83642  0.07004  1.0000
  H   H1302     1.0  0.64310  0.80089  0.05336  1.0000
  H   H1303     1.0  0.47975  0.80646  0.05715  1.0000
  H   H1304     1.0  0.62098  0.84776  0.08896  1.0000
  H   H1305     1.0  0.60264  0.84565  0.06937  1.0000
  H   H1306     1.0  0.37225  0.89496  0.15440  1.0000
  H   H1307     1.0  0.38007  0.88239  0.12732  1.0000
  C   C826      1.0  0.55930  0.83787  0.13589  1.0000
  C   C827      1.0  0.54813  0.85440  0.13846  1.0000
  C   C828      1.0  0.55567  0.86932  0.13498  1.0000
  C   C829      1.0  0.57428  0.86789  0.12823  1.0000
  C   C830      1.0  0.58539  0.85143  0.12536  1.0000
  C   C831      1.0  0.57796  0.83635  0.12951  1.0000
  H   H1308     1.0  0.53374  0.85553  0.14354  1.0000
  H   H1309     1.0  0.54710  0.88194  0.13751  1.0000
  H   H1310     1.0  0.59968  0.85029  0.11972  1.0000
  H   H1311     1.0  0.58666  0.82362  0.12743  1.0000
  C   C832      1.0  0.45447  0.80313  0.12714  1.0000
  C   C833      1.0  0.44452  0.78980  0.13428  1.0000
  C   C834      1.0  0.43012  0.79013  0.12711  1.0000
  C   C835      1.0  0.42521  0.80414  0.11312  1.0000
  C   C836      1.0  0.43530  0.81742  0.10574  1.0000
  C   C837      1.0  0.45016  0.81672  0.11253  1.0000
  H   H1312     1.0  0.44785  0.77921  0.14552  1.0000
  H   H1313     1.0  0.42241  0.77982  0.13282  1.0000
  H   H1314     1.0  0.43169  0.82816  0.09477  1.0000
  H   H1315     1.0  0.45791  0.82692  0.10674  1.0000
  C   C838      1.0  0.50617  0.91238  0.13645  1.0000
  C   C839      1.0  0.50778  0.89388  0.14105  1.0000
  C   C840      1.0  0.50208  0.88556  0.13099  1.0000
  C   C841      1.0  0.49404  0.89578  0.11679  1.0000
  C   C842      1.0  0.49182  0.91438  0.11256  1.0000
  C   C843      1.0  0.49808  0.92266  0.12226  1.0000
  H   H1316     1.0  0.51389  0.88589  0.15211  1.0000
  H   H1317     1.0  0.50400  0.87122  0.13426  1.0000
  H   H1318     1.0  0.48546  0.92235  0.10165  1.0000
  H   H1319     1.0  0.49616  0.93700  0.11902  1.0000
  H   H1320     1.0  0.56550  0.77865  0.02210  1.0000
  Fe  Fe174     1.0  0.50041  0.79040  0.00088  1.0000
  N   N82       1.0  0.37709  0.79653  0.05952  1.0000
  N   N83       1.0  0.45605  0.93234  0.16994  1.0000
  C   C844      1.0  0.38104  0.90062  0.14234  1.0000
  C   C845      1.0  0.50912  0.84249  0.02176  1.0000
  C   C846      1.0  0.50853  0.85214  0.03415  1.0000
  C   C847      1.0  0.51759  0.84392  0.04815  1.0000
  C   C848      1.0  0.52771  0.82632  0.04927  1.0000
  C   C849      1.0  0.52847  0.81682  0.03675  1.0000
  C   C850      1.0  0.51884  0.82475  0.02327  1.0000
  H   H1321     1.0  0.50098  0.86586  0.03302  1.0000
  H   H1322     1.0  0.51694  0.85126  0.05792  1.0000
  H   H1323     1.0  0.53624  0.80319  0.03772  1.0000
  C   C851      1.0  0.58647  0.98200  0.13368  1.0000
  S   S335      1.0  0.47963  0.81159  0.01332  1.0000
  H   H1324     1.0  0.40838  0.85686  0.14184  1.0000
  S   S336      1.0  0.36387  0.88060  0.08089  1.0000
  C   C852      1.0  0.38542  0.89355  0.12703  1.0000
  H   H1325     1.0  0.59553  0.91174  0.18239  1.0000
  C   C853      1.0  0.62305  0.95987  0.07302  1.0000
  S   S337      1.0  0.51658  0.96278  0.10642  1.0000
  H   H1326     1.0  0.54205  0.90158  0.11041  1.0000
  S   S338      1.0  0.52124  0.97030  0.14348  1.0000
  N   N84       1.0  0.49197  0.78722  0.07768  1.0000
  H   H1327     1.0  0.43750  0.88180  0.14939  1.0000
  H   H1328     1.0  0.56026  0.91263  0.09874  1.0000
  C   C854      1.0  0.33866  0.93764  0.14130  1.0000
  H   H1329     1.0  0.57115  0.91563  0.06602  1.0000
  H   H1330     1.0  0.59619  0.93311  0.10265  1.0000
  H   H1331     1.0  0.52373  0.90934  0.07968  1.0000
  N   N85       1.0  0.56643  0.83654  0.98798  1.0000
  H   H1332     1.0  0.41058  0.88013  0.01366  1.0000
  C   C855      1.0  0.42873  0.84751  0.02717  1.0000
  H   H1333     1.0  0.47685  0.94209  0.14856  1.0000
  C   C856      1.0  0.47666  0.77815  0.08517  1.0000
  Fe  Fe175     1.0  0.40490  0.97427  0.11532  1.0000
  C   C857      1.0  0.33345  0.84248  0.03131  1.0000
  S   S339      1.0  0.56137  0.95412  0.07049  1.0000
  H   H1334     1.0  0.37986  0.77899  0.08501  1.0000
  Fe  Fe176     1.0  0.54605  0.96216  0.09616  1.0000
  C   C858      1.0  0.65855  0.71526  0.02843  1.0000
  H   H1335     1.0  0.47097  0.93018  0.18949  1.0000
  S   S340      1.0  0.49819  0.85251  0.00408  1.0000
  H   H1336     1.0  0.55969  0.87428  0.09801  1.0000
  C   C859      1.0  0.46844  0.92174  0.18186  1.0000
  C   C860      1.0  0.38551  0.79009  0.07518  1.0000
  C   C861      1.0  0.50015  0.78714  0.09224  1.0000
  C   C862      1.0  0.38512  0.81118  0.04689  1.0000
  C   C863      1.0  0.55631  0.76973  0.02749  1.0000
  C   C864      1.0  0.59354  0.96875  0.09132  1.0000
  H   H1337     1.0  0.42597  0.84630  0.16628  1.0000
  H   H1338     1.0  0.63074  0.94072  0.10485  1.0000
  H   H1339     1.0  0.53894  0.78374  0.00898  1.0000
  H   H1340     1.0  0.60739  0.79321  0.07655  1.0000
  H   H1341     1.0  0.58148  0.76942  0.08803  1.0000
  H   H1342     1.0  0.57931  0.81808  0.07654  1.0000
  N   N86       1.0  0.61019  0.95450  0.08989  1.0000
  C   C865      1.0  0.34662  0.85404  0.04851  1.0000
  S   S341      1.0  0.37685  0.97533  0.16359  1.0000
  H   H1343     1.0  0.45452  0.95601  0.14880  1.0000
  S   S342      1.0  0.63632  0.79246  0.01036  1.0000
  S   S343      1.0  0.54511  0.98727  0.10404  1.0000
  H   H1344     1.0  0.62824  0.98687  0.13269  1.0000
  H   H1345     1.0  0.66175  0.80341  0.07263  1.0000
  H   H1346     1.0  0.39987  0.80655  0.04160  1.0000
  H   H1347     1.0  0.62261  0.96402  0.10516  1.0000
  C   C866      1.0  0.60569  0.93768  0.09001  1.0000
  C   C867      1.0  0.43842  0.93982  0.18076  1.0000
  H   H1348     1.0  0.35086  0.79252  0.07499  1.0000
  H   H1349     1.0  0.52889  0.88792  0.09427  1.0000
  H   H1350     1.0  0.39778  0.73462  0.99717  1.0000
  H   H1351     1.0  0.56142  0.90603  0.05410  1.0000
  C   C868      1.0  0.36214  0.85133  0.01829  1.0000
  C   C869      1.0  0.42098  0.77735  0.00252  1.0000
  C   C870      1.0  0.53259  0.74648  0.04118  1.0000
  C   C871      1.0  0.58158  0.83786  0.99467  1.0000
  H   H1352     1.0  0.42510  0.89250  0.01646  1.0000
  C   C872      1.0  0.54725  0.74394  0.04891  1.0000
  C   C873      1.0  0.54770  0.90984  0.09742  1.0000
  H   H1353     1.0  0.41476  0.87892  0.15360  1.0000
  C   C874      1.0  0.56489  0.88373  0.08570  1.0000
  C   C875      1.0  0.45219  0.86049  0.12581  1.0000
  Fe  Fe177     1.0  0.55051  0.96887  0.12989  1.0000
  S   S344      1.0  0.55368  0.94381  0.12091  1.0000
  S   S345      1.0  0.61941  0.75806  0.01311  1.0000
  H   H1354     1.0  0.57817  0.95508  0.03376  1.0000
  H   H1355     1.0  0.57842  0.83535  0.00954  1.0000
  C   C876      1.0  0.34819  0.84447  0.01691  1.0000
  Fe  Fe178     1.0  0.63980  0.76345  0.02445  1.0000
  H   H1356     1.0  0.35430  0.81459  0.07187  1.0000
  C   C877      1.0  0.57578  0.78410  0.08551  1.0000
  C   C878      1.0  0.57497  0.81254  0.09108  1.0000
  H   H1357     1.0  0.60814  0.77476  0.09533  1.0000
  H   H1358     1.0  0.46662  0.91453  0.15179  1.0000
  C   C879      1.0  0.55919  0.75550  0.04212  1.0000
  Fe  Fe179     1.0  0.38832  0.87213  0.09269  1.0000
  H   H1359     1.0  0.56077  0.78624  0.08899  1.0000
  N   N87       1.0  0.58221  0.79303  0.09571  1.0000
  H   H1360     1.0  0.57969  0.78948  0.07084  1.0000
  H   H1361     1.0  0.46689  0.95557  0.16470  1.0000
  H   H1362     1.0  0.55995  0.81576  0.09439  1.0000
  C   C880      1.0  0.58740  0.91673  0.15064  1.0000
  H   H1363     1.0  0.49025  0.79440  0.10222  1.0000
  H   H1364     1.0  0.39505  0.77669  0.04534  1.0000
  H   H1365     1.0  0.51921  0.81716  0.01392  1.0000
  S   S346      1.0  0.41529  0.95729  0.13924  1.0000
  C   C881      1.0  0.38785  0.91518  0.14191  1.0000
  N   N88       1.0  0.55135  0.90072  0.08261  1.0000
  C   C882      1.0  0.40212  0.78298  0.00505  1.0000
  H   H1366     1.0  0.56086  0.78927  0.11907  1.0000
  H   H1367     1.0  0.51190  0.79368  0.08698  1.0000
  H   H1368     1.0  0.38332  0.80092  0.08232  1.0000
  C   C883      1.0  0.55843  0.91242  0.06563  1.0000
  H   H1369     1.0  0.35065  0.80797  0.05378  1.0000
  C   C884      1.0  0.57589  0.78630  0.11507  1.0000
  C   C885      1.0  0.44845  0.86402  0.03067  1.0000
  C   C886      1.0  0.41887  0.98087  0.05402  1.0000
  S   S347      1.0  0.33738  0.78472  0.03136  1.0000
  H   H1370     1.0  0.58064  0.79276  0.12308  1.0000
  S   S348      1.0  0.40347  0.89194  0.09246  1.0000
  H   H1371     1.0  0.43980  0.83540  0.02592  1.0000
  C   C887      1.0  0.39679  0.90093  0.11146  1.0000
  H   H1372     1.0  0.39817  0.82737  0.00115  1.0000
  C   C888      1.0  0.40457  0.81343  0.00139  1.0000
  S   S349      1.0  0.65045  0.87058  0.16257  1.0000
  H   H1373     1.0  0.44470  0.92839  0.15019  1.0000
  H   H1374     1.0  0.58084  0.77159  0.11906  1.0000
  H   H1375     1.0  0.50512  0.77328  0.09949  1.0000
  C   C889      1.0  0.40360  0.91539  0.11113  1.0000
  C   C890      1.0  0.39913  0.92250  0.12629  1.0000
  H   H1376     1.0  0.41245  0.92111  0.09912  1.0000
  H   H1377     1.0  0.40466  0.93355  0.12583  1.0000
  H   H1378     1.0  0.55233  0.86379  0.98847  1.0000
  Fe  Fe180     1.0  0.61435  0.78746  0.00103  1.0000
  C   C891      1.0  0.66235  0.69670  0.02974  1.0000
  H   H1379     1.0  0.63579  0.94943  0.07146  1.0000
  H   H1380     1.0  0.33842  0.97751  0.16096  1.0000
  H   H1381     1.0  0.42044  0.73793  0.99004  1.0000
  H   H1382     1.0  0.55396  0.91275  0.16830  1.0000
  Fe  Fe181     1.0  0.64729  0.85311  0.10587  1.0000
  H   H1383     1.0  0.56452  0.89537  0.15622  1.0000
  S   S350      1.0  0.37752  0.85180  0.11602  1.0000
  S   S351      1.0  0.42265  0.97177  0.08853  1.0000
  N   N89       1.0  0.43569  0.86407  0.02017  1.0000
  S   S352      1.0  0.57719  0.75193  0.05259  1.0000
  C   C892      1.0  0.52938  0.76093  0.02692  1.0000
  N   N90       1.0  0.33635  0.94284  0.12267  1.0000
  H   H1384     1.0  0.57713  0.92953  0.15059  1.0000
  H   H1385     1.0  0.60072  0.91962  0.14955  1.0000
  H   H1386     1.0  0.51087  0.76349  0.07092  1.0000
  H   H1387     1.0  0.40041  0.78515  0.07119  1.0000
  C   C893      1.0  0.56209  0.97208  0.05184  1.0000
  Fe  Fe182     1.0  0.35405  0.85850  0.10273  1.0000
  S   S353      1.0  0.36639  0.83755  0.08648  1.0000
  H   H1388     1.0  0.44617  0.78550  0.99756  1.0000
  H   H1389     1.0  0.54621  0.84778  0.00863  1.0000
  C   C894      1.0  0.35737  0.80316  0.06533  1.0000
  H   H1390     1.0  0.44708  0.90970  0.16876  1.0000
  C   C895      1.0  0.56460  0.90018  0.16800  1.0000
  C   C896      1.0  0.38035  0.78166  0.05058  1.0000
  H   H1391     1.0  0.42861  0.94761  0.17225  1.0000
  H   H1392     1.0  0.37356  0.85286  0.00716  1.0000
  C   C897      1.0  0.41013  0.98071  0.07187  1.0000
  H   H1393     1.0  0.43618  0.86428  0.99304  1.0000
  H   H1394     1.0  0.42577  0.88875  0.13158  1.0000
  H   H1395     1.0  0.46223  0.86454  0.13037  1.0000
  C   C898      1.0  0.60352  0.97813  0.13765  1.0000
  H   H1396     1.0  0.59691  0.88082  0.15467  1.0000
  H   H1397     1.0  0.56852  0.87683  0.07443  1.0000
  C   C899      1.0  0.58208  0.90957  0.18276  1.0000
  H   H1398     1.0  0.59321  0.87562  0.17853  1.0000
  H   H1399     1.0  0.43309  0.97481  0.05057  1.0000
  Fe  Fe183     1.0  0.49586  0.83028  0.99357  1.0000
  H   H1400     1.0  0.58812  0.91232  0.13840  1.0000
  H   H1401     1.0  0.57829  0.89976  0.19536  1.0000
  H   H1402     1.0  0.53656  0.89013  0.07059  1.0000
  H   H1403     1.0  0.45702  0.85349  0.99997  1.0000
  C   C900      1.0  0.46390  0.94714  0.15741  1.0000
  S   S354      1.0  0.37996  0.86215  0.03673  1.0000
  H   H1404     1.0  0.50022  0.77776  0.05324  1.0000
  C   C901      1.0  0.39399  0.80100  0.00460  1.0000
  H   H1405     1.0  0.34875  0.84097  0.00462  1.0000
  C   C902      1.0  0.48537  0.80589  0.06866  1.0000
  H   H1406     1.0  0.54860  0.92541  0.06290  1.0000
  H   H1407     1.0  0.37371  0.78594  0.03904  1.0000
  H   H1408     1.0  0.35784  0.92153  0.11403  1.0000
  C   C903      1.0  0.42180  0.85599  0.13238  1.0000
  H   H1409     1.0  0.57759  0.88597  0.08733  1.0000
  H   H1410     1.0  0.45843  0.84703  0.12285  1.0000
  N   N91       1.0  0.58259  0.90313  0.16694  1.0000
  H   H1411     1.0  0.46047  0.96892  0.09235  1.0000
  H   H1412     1.0  0.45005  0.87010  0.11304  1.0000
  C   C904      1.0  0.36151  0.85579  0.03421  1.0000
  C   C905      1.0  0.50574  0.77771  0.06466  1.0000
  S   S355      1.0  0.34476  0.76869  0.99569  1.0000
  H   H1413     1.0  0.56049  0.88997  0.18011  1.0000
  H   H1414     1.0  0.48117  0.76402  0.09208  1.0000
  Fe  Fe184     1.0  0.38737  0.95229  0.14990  1.0000
  H   H1415     1.0  0.47018  0.77800  0.07451  1.0000
  H   H1416     1.0  0.49645  0.81328  0.06343  1.0000
  H   H1417     1.0  0.47460  0.81331  0.07799  1.0000
  Fe  Fe185     1.0  0.46583  0.81512  0.99128  1.0000
  H   H1418     1.0  0.53782  0.92288  0.09533  1.0000
  H   H1419     1.0  0.57212  0.92254  0.18339  1.0000
  H   H1420     1.0  0.51769  0.78394  0.05903  1.0000
  C   C906      1.0  0.42795  0.87821  0.14375  1.0000
  H   H1421     1.0  0.61009  0.88792  0.16532  1.0000
  H   H1422     1.0  0.58372  0.96530  0.10408  1.0000
  S   S356      1.0  0.37781  0.96729  0.12493  1.0000
  H   H1423     1.0  0.41872  0.84738  0.01978  1.0000
  H   H1424     1.0  0.41975  0.86531  0.11949  1.0000
  S   S357      1.0  0.38870  0.76742  0.00939  1.0000
  H   H1425     1.0  0.38343  0.82243  0.05329  1.0000
  C   C907      1.0  0.54125  0.77260  0.02004  1.0000
  H   H1426     1.0  0.44397  0.83307  0.15279  1.0000
  C   C908      1.0  0.43163  0.78984  0.99942  1.0000
  H   H1427     1.0  0.37491  0.77014  0.05979  1.0000
  H   H1428     1.0  0.61720  0.96204  0.06122  1.0000
  H   H1429     1.0  0.59651  0.98169  0.09101  1.0000
  H   H1430     1.0  0.57457  0.80798  0.99079  1.0000
  S   S358      1.0  0.65657  0.82808  0.09484  1.0000
  H   H1431     1.0  0.46605  0.78495  0.09512  1.0000
  H   H1432     1.0  0.48182  0.91578  0.17413  1.0000
  S   S359      1.0  0.35202  0.80869  0.99189  1.0000
  C   C909      1.0  0.42335  0.80790  0.99886  1.0000
  H   H1433     1.0  0.34894  0.94382  0.14297  1.0000
  C   C910      1.0  0.42040  0.87973  0.02151  1.0000
  H   H1434     1.0  0.60889  0.94835  0.11816  1.0000
  C   C911      1.0  0.61847  0.95177  0.10518  1.0000
  H   H1435     1.0  0.60786  0.96586  0.14690  1.0000
  H   H1436     1.0  0.41274  0.87932  0.03559  1.0000
  H   H1437     1.0  0.45761  0.97727  0.06113  1.0000
  S   S360      1.0  0.65878  0.91597  0.08136  1.0000
  H   H1438     1.0  0.45036  0.87740  0.99532  1.0000
  H   H1439     1.0  0.42171  0.84617  0.04141  1.0000
  H   H1440     1.0  0.37951  0.80539  0.00734  1.0000
  H   H1441     1.0  0.38490  0.98861  0.08992  1.0000
  S   S361      1.0  0.43575  0.82396  0.99575  1.0000
  C   C912      1.0  0.46192  0.98272  0.09114  1.0000
  H   H1442     1.0  0.59413  0.82790  0.99061  1.0000
  Fe  Fe186     1.0  0.40419  0.98187  0.15047  1.0000
  C   C913      1.0  0.55012  0.84994  0.99379  1.0000
  H   H1443     1.0  0.58671  0.97096  0.08019  1.0000
  C   C914      1.0  0.56272  0.81843  0.99525  1.0000
  H   H1444     1.0  0.59515  0.76868  0.98882  1.0000
  H   H1445     1.0  0.55956  0.81522  0.01009  1.0000
  H   H1446     1.0  0.49748  0.97978  0.07588  1.0000
  H   H1447     1.0  0.41598  0.71709  0.98977  1.0000
  H   H1448     1.0  0.47018  0.98204  0.10064  1.0000
  H   H1449     1.0  0.36478  0.94173  0.11180  1.0000
  H   H1450     1.0  0.44170  0.86355  0.04498  1.0000
  H   H1451     1.0  0.66176  0.90599  0.11829  1.0000
  H   H1452     1.0  0.34323  0.92290  0.14562  1.0000
  H   H1453     1.0  0.49497  0.98543  0.05321  1.0000
  C   C915      1.0  0.39164  0.98842  0.07621  1.0000
  H   H1454     1.0  0.45698  0.98567  0.17072  1.0000
  H   H1455     1.0  0.35258  0.94046  0.09647  1.0000
  H   H1456     1.0  0.48822  0.96581  0.06822  1.0000
  C   C916      1.0  0.57245  0.98270  0.01998  1.0000
  Fe  Fe187     1.0  0.51597  0.98636  0.11672  1.0000
  H   H1457     1.0  0.42735  0.76337  0.00304  1.0000
  H   H1458     1.0  0.65506  0.73963  0.99329  1.0000
  S   S362      1.0  0.42235  0.98685  0.16497  1.0000
  C   C917      1.0  0.61509  0.99003  0.12962  1.0000
  C   C918      1.0  0.40936  0.98943  0.04046  1.0000
  C   C919      1.0  0.55348  0.98966  0.05345  1.0000
  C   C920      1.0  0.41073  0.73184  0.98723  1.0000
  S   S363      1.0  0.66595  0.86714  0.11099  1.0000
  H   H1459     1.0  0.41639  0.99037  0.02660  1.0000
  H   H1460     1.0  0.57484  0.84708  0.73070  1.0000
  H   H1461     1.0  0.63472  0.91783  0.69587  1.0000
  C   C921      1.0  0.57283  0.89097  0.72795  1.0000
  N   N92       1.0  0.63719  0.89928  0.67977  1.0000
  S   S364      1.0  0.53637  0.85288  0.73535  1.0000
  H   H1462     1.0  0.61748  0.88694  0.70051  1.0000
  S   S365      1.0  0.58651  0.90546  0.72655  1.0000
  H   H1463     1.0  0.64884  0.87145  0.68869  1.0000
  H   H1464     1.0  0.61314  0.89233  0.67853  1.0000
  H   H1465     1.0  0.59458  0.86751  0.72789  1.0000
  H   H1466     1.0  0.60906  0.90970  0.69034  1.0000
  H   H1467     1.0  0.54847  0.91172  0.72828  1.0000
  H   H1468     1.0  0.65763  0.90733  0.68693  1.0000
  H   H1469     1.0  0.40512  0.92744  0.73469  1.0000
  H   H1470     1.0  0.62897  0.92610  0.66511  1.0000
  C   C922      1.0  0.61843  0.89696  0.68758  1.0000
  C   C923      1.0  0.54304  0.88598  0.73092  1.0000
  C   C924      1.0  0.64361  0.90515  0.69243  1.0000
  C   C925      1.0  0.55427  0.89761  0.72885  1.0000
  H   H1471     1.0  0.65171  0.91492  0.65661  1.0000
  H   H1472     1.0  0.52868  0.89118  0.73178  1.0000
  H   H1473     1.0  0.64387  0.89496  0.70514  1.0000
  C   C926      1.0  0.58025  0.87274  0.72861  1.0000
  H   H1474     1.0  0.64475  0.87730  0.66657  1.0000
  H   H1475     1.0  0.66336  0.88330  0.67053  1.0000
  H   H1476     1.0  0.43794  0.91619  0.72553  1.0000
  H   H1477     1.0  0.42613  0.94799  0.72817  1.0000
  C   C927      1.0  0.55042  0.86774  0.73165  1.0000
  C   C928      1.0  0.56909  0.86118  0.73021  1.0000
  H   H1478     1.0  0.63287  0.90898  0.65302  1.0000
  S   S366      1.0  0.63104  0.86733  0.73584  1.0000
  C   C929      1.0  0.63770  0.91293  0.66287  1.0000
  C   C930      1.0  0.64904  0.88209  0.67622  1.0000
  H   H1479     1.0  0.66184  0.67271  0.88032  1.0000
  H   H1480     1.0  0.43221  0.97259  0.85292  1.0000
  H   H1481     1.0  0.41580  0.95553  0.83355  1.0000
  H   H1482     1.0  0.55902  0.76904  0.95660  1.0000
  H   H1483     1.0  0.64518  0.73232  0.96210  1.0000
  H   H1484     1.0  0.64499  0.71597  0.90108  1.0000
  C   C931      1.0  0.54770  0.77249  0.94968  1.0000
  H   H1485     1.0  0.43009  0.98037  0.79827  1.0000
  S   S367      1.0  0.50893  0.98106  0.82531  1.0000
  H   H1486     1.0  0.49576  0.74667  0.88734  1.0000
  H   H1487     1.0  0.64892  0.77915  0.95593  1.0000
  H   H1488     1.0  0.38842  0.76272  0.97484  1.0000
  H   H1489     1.0  0.53952  0.78593  0.95166  1.0000
  H   H1490     1.0  0.52252  0.73602  0.93034  1.0000
  S   S368      1.0  0.48611  0.74288  0.92558  1.0000
  N   N93       1.0  0.40812  0.73920  0.96876  1.0000
  S   S369      1.0  0.60092  0.72958  0.89562  1.0000
  H   H1491     1.0  0.52552  0.76657  0.93309  1.0000
  C   C932      1.0  0.54766  0.74153  0.95251  1.0000
  C   C933      1.0  0.50711  0.74179  0.91029  1.0000
  C   C934      1.0  0.52303  0.73892  0.91621  1.0000
  C   C935      1.0  0.33490  0.94310  0.78210  1.0000
  C   C936      1.0  0.57352  0.94946  0.74316  1.0000
  H   H1492     1.0  0.55174  0.73827  0.90834  1.0000
  S   S370      1.0  0.48545  0.88259  0.73674  1.0000
  H   H1493     1.0  0.56008  0.83899  0.96281  1.0000
  Fe  Fe188     1.0  0.48126  0.89736  0.75809  1.0000
  H   H1494     1.0  0.56618  0.91996  0.76728  1.0000
  H   H1495     1.0  0.57053  0.96404  0.73710  1.0000
  Fe  Fe189     1.0  0.48651  0.86344  0.78666  1.0000
  S   S371      1.0  0.49050  0.84577  0.76783  1.0000
  S   S372      1.0  0.48924  0.85295  0.81512  1.0000
  C   C937      1.0  0.57123  0.83994  0.96826  1.0000
  S   S373      1.0  0.44478  0.86043  0.74945  1.0000
  Fe  Fe190     1.0  0.46735  0.86613  0.75770  1.0000
  C   C938      1.0  0.55241  0.95403  0.77082  1.0000
  S   S374      1.0  0.50543  0.88038  0.76856  1.0000
  S   S375      1.0  0.46172  0.88220  0.77833  1.0000
  H   H1496     1.0  0.39874  0.71664  0.96797  1.0000
  N   N94       1.0  0.53662  0.75883  0.95652  1.0000
  S   S376      1.0  0.36888  0.85654  0.80176  1.0000
  S   S377      1.0  0.61429  0.91609  0.78805  1.0000
  C   C939      1.0  0.59387  0.75868  0.96691  1.0000
  S   S378      1.0  0.57745  0.77142  0.89456  1.0000
  H   H1497     1.0  0.41533  0.92873  0.77698  1.0000
  H   H1498     1.0  0.58344  0.98411  0.83720  1.0000
  C   C940      1.0  0.35243  0.96560  0.77498  1.0000
  C   C941      1.0  0.66382  0.71110  0.87667  1.0000
  C   C942      1.0  0.65936  0.93603  0.76651  1.0000
  H   H1499     1.0  0.39673  0.79391  0.92593  1.0000
  S   S379      1.0  0.64576  0.87232  0.76899  1.0000
  Fe  Fe191     1.0  0.45548  0.77561  0.87456  1.0000
  Fe  Fe192     1.0  0.60897  0.89132  0.74080  1.0000
  S   S380      1.0  0.46704  0.77844  0.84519  1.0000
  Fe  Fe193     1.0  0.44332  0.79779  0.90240  1.0000
  Fe  Fe194     1.0  0.62342  0.74135  0.87605  1.0000
  S   S381      1.0  0.51107  0.81440  0.93408  1.0000
  H   H1500     1.0  0.53646  0.84873  0.77285  1.0000
  S   S382      1.0  0.47050  0.78328  0.89014  1.0000
  S   S383      1.0  0.42859  0.79229  0.88508  1.0000
  H   H1501     1.0  0.43718  0.89865  0.74533  1.0000
  S   S384      1.0  0.47573  0.92722  0.75143  1.0000
  H   H1502     1.0  0.42413  0.90588  0.77504  1.0000
  Fe  Fe195     1.0  0.50086  0.81220  0.96348  1.0000
  Fe  Fe196     1.0  0.46423  0.75930  0.91101  1.0000
  C   C943      1.0  0.47858  0.95204  0.76754  1.0000
  C   C944      1.0  0.47953  0.92797  0.80047  1.0000
  H   H1503     1.0  0.60575  0.77829  0.92295  1.0000
  S   S385      1.0  0.62764  0.90744  0.74133  1.0000
  H   H1504     1.0  0.51243  0.77752  0.95077  1.0000
  S   S386      1.0  0.59257  0.74567  0.93926  1.0000
  C   C945      1.0  0.60502  0.78511  0.96342  1.0000
  S   S387      1.0  0.48054  0.83557  0.97242  1.0000
  Fe  Fe197     1.0  0.49176  0.97808  0.80881  1.0000
  H   H1505     1.0  0.58850  0.74736  0.97550  1.0000
  C   C946      1.0  0.42545  0.73468  0.95600  1.0000
  H   H1506     1.0  0.36071  0.82039  0.82388  1.0000
  H   H1507     1.0  0.40629  0.82069  0.90603  1.0000
  N   N95       1.0  0.38745  0.82025  0.93137  1.0000
  H   H1508     1.0  0.40290  0.97584  0.82252  1.0000
  C   C947      1.0  0.33506  0.81598  0.86624  1.0000
  H   H1509     1.0  0.61328  0.84006  0.83895  1.0000
  C   C948      1.0  0.47017  0.83619  0.90803  1.0000
  C   C949      1.0  0.60765  0.78798  0.94485  1.0000
  S   S388      1.0  0.60219  0.80885  0.86294  1.0000
  C   C950      1.0  0.48089  0.80506  0.93284  1.0000
  H   H1510     1.0  0.58109  0.96914  0.76155  1.0000
  H   H1511     1.0  0.39693  0.81082  0.95588  1.0000
  C   C951      1.0  0.40179  0.75886  0.96588  1.0000
  H   H1512     1.0  0.35959  0.83362  0.93211  1.0000
  S   S389      1.0  0.62172  0.76197  0.89099  1.0000
  C   C952      1.0  0.38417  0.80278  0.93178  1.0000
  C   C953      1.0  0.49144  0.81790  0.92633  1.0000
  H   H1513     1.0  0.60623  0.80228  0.80261  1.0000
  H   H1514     1.0  0.65074  0.91256  0.76686  1.0000
  C   C954      1.0  0.62973  0.93008  0.78174  1.0000
  H   H1515     1.0  0.34330  0.76323  0.90087  1.0000
  H   H1516     1.0  0.34866  0.91597  0.79145  1.0000
  H   H1517     1.0  0.33879  0.80113  0.87033  1.0000
  H   H1518     1.0  0.61310  0.79925  0.93626  1.0000
  C   C955      1.0  0.50791  0.74479  0.89202  1.0000
  S   S390      1.0  0.60535  0.75998  0.85829  1.0000
  C   C956      1.0  0.38594  0.76291  0.90281  1.0000
  H   H1519     1.0  0.63047  0.77562  0.82262  1.0000
  C   C957      1.0  0.36712  0.95247  0.77999  1.0000
  C   C958      1.0  0.36595  0.93449  0.78555  1.0000
  C   C959      1.0  0.34976  0.92979  0.78664  1.0000
  H   H1520     1.0  0.38115  0.73474  0.97528  1.0000
  C   C960      1.0  0.48612  0.83348  0.91390  1.0000
  H   H1521     1.0  0.37730  0.92430  0.78953  1.0000
  C   C961      1.0  0.48393  0.83190  0.82365  1.0000
  C   C962      1.0  0.49034  0.81880  0.81347  1.0000
  C   C963      1.0  0.48559  0.80213  0.82031  1.0000
  C   C964      1.0  0.47425  0.79865  0.83724  1.0000
  C   C965      1.0  0.46798  0.81174  0.84743  1.0000
  C   C966      1.0  0.47302  0.82824  0.84075  1.0000
  H   H1522     1.0  0.49918  0.82141  0.80044  1.0000
  H   H1523     1.0  0.49067  0.79196  0.81248  1.0000
  H   H1524     1.0  0.45886  0.80940  0.86031  1.0000
  H   H1525     1.0  0.46799  0.83838  0.84863  1.0000
  C   C967      1.0  0.38889  0.86099  0.78653  1.0000
  C   C968      1.0  0.39142  0.86126  0.76844  1.0000
  C   C969      1.0  0.40852  0.86176  0.75701  1.0000
  C   C970      1.0  0.42302  0.86244  0.76350  1.0000
  C   C971      1.0  0.42020  0.86327  0.78136  1.0000
  C   C972      1.0  0.40324  0.86222  0.79292  1.0000
  H   H1526     1.0  0.38047  0.86016  0.76343  1.0000
  H   H1527     1.0  0.39735  0.84203  0.91179  1.0000
  H   H1528     1.0  0.43127  0.86383  0.78651  1.0000
  H   H1529     1.0  0.40133  0.86204  0.80691  1.0000
  C   C973      1.0  0.47753  0.93435  0.76952  1.0000
  H   H1530     1.0  0.47709  0.90868  0.78763  1.0000
  C   C974      1.0  0.35741  0.76367  0.89627  1.0000
  N   N96       1.0  0.52128  0.80176  0.87629  1.0000
  C   C975      1.0  0.52968  0.81394  0.88064  1.0000
  C   C976      1.0  0.53426  0.79276  0.86244  1.0000
  C   C977      1.0  0.50483  0.81206  0.86963  1.0000
  C   C978      1.0  0.51636  0.78815  0.89254  1.0000
  H   H1531     1.0  0.52029  0.82080  0.89120  1.0000
  H   H1532     1.0  0.53355  0.82446  0.86873  1.0000
  H   H1533     1.0  0.54212  0.80655  0.88572  1.0000
  H   H1534     1.0  0.54694  0.78505  0.86692  1.0000
  H   H1535     1.0  0.52853  0.78304  0.85924  1.0000
  H   H1536     1.0  0.53803  0.80254  0.84982  1.0000
  H   H1537     1.0  0.49854  0.80330  0.86567  1.0000
  H   H1538     1.0  0.50784  0.82287  0.85769  1.0000
  H   H1539     1.0  0.49440  0.81841  0.88002  1.0000
  H   H1540     1.0  0.50952  0.77908  0.88987  1.0000
  H   H1541     1.0  0.50686  0.79439  0.90341  1.0000
  H   H1542     1.0  0.52849  0.77976  0.89763  1.0000
  C   C979      1.0  0.43829  0.97453  0.80862  1.0000
  H   H1543     1.0  0.47816  0.96137  0.75481  1.0000
  S   S391      1.0  0.62152  0.83092  0.77867  1.0000
  S   S392      1.0  0.43813  0.77456  0.92493  1.0000
  C   C980      1.0  0.37045  0.83154  0.93935  1.0000
  S   S393      1.0  0.56024  0.74619  0.86956  1.0000
  H   H1544     1.0  0.37899  0.79575  0.94566  1.0000
  C   C981      1.0  0.53952  0.74012  0.90381  1.0000
  Fe  Fe198     1.0  0.62556  0.85890  0.76589  1.0000
  H   H1545     1.0  0.63349  0.96997  0.78661  1.0000
  S   S394      1.0  0.48255  0.95237  0.81676  1.0000
  Fe  Fe199     1.0  0.62240  0.89611  0.77068  1.0000
  H   H1546     1.0  0.40362  0.97318  0.84527  1.0000
  H   H1547     1.0  0.59789  0.79379  0.83564  1.0000
  C   C982      1.0  0.60557  0.81600  0.83954  1.0000
  N   N97       1.0  0.65880  0.75087  0.96511  1.0000
  H   H1548     1.0  0.40817  0.76559  0.88002  1.0000
  N   N98       1.0  0.44151  0.80984  0.79816  1.0000
  C   C983      1.0  0.44900  0.79048  0.80379  1.0000
  C   C984      1.0  0.43540  0.81809  0.81388  1.0000
  C   C985      1.0  0.42601  0.81244  0.79006  1.0000
  C   C986      1.0  0.45565  0.81833  0.78493  1.0000
  H   H1549     1.0  0.46094  0.78803  0.80965  1.0000
  H   H1550     1.0  0.45348  0.78375  0.79234  1.0000
  H   H1551     1.0  0.43892  0.78368  0.81421  1.0000
  H   H1552     1.0  0.44685  0.81685  0.81997  1.0000
  H   H1553     1.0  0.42927  0.83260  0.81020  1.0000
  H   H1554     1.0  0.42518  0.81162  0.82444  1.0000
  H   H1555     1.0  0.41501  0.80633  0.79973  1.0000
  H   H1556     1.0  0.43013  0.80642  0.77814  1.0000
  H   H1557     1.0  0.42010  0.82688  0.78552  1.0000
  H   H1558     1.0  0.46019  0.81294  0.77259  1.0000
  H   H1559     1.0  0.46774  0.81623  0.79044  1.0000
  H   H1560     1.0  0.45066  0.83302  0.78082  1.0000
  H   H1561     1.0  0.36215  0.80115  0.84215  1.0000
  Fe  Fe200     1.0  0.64941  0.88259  0.73920  1.0000
  C   C987      1.0  0.60362  0.77605  0.93729  1.0000
  H   H1562     1.0  0.40023  0.76487  0.95193  1.0000
  H   H1563     1.0  0.59310  0.98075  0.78403  1.0000
  S   S395      1.0  0.50879  0.98886  0.78247  1.0000
  C   C988      1.0  0.33642  0.96089  0.77585  1.0000
  C   C989      1.0  0.48094  0.94554  0.79842  1.0000
  C   C990      1.0  0.59703  0.76121  0.94832  1.0000
  S   S396      1.0  0.60192  0.88169  0.77039  1.0000
  C   C991      1.0  0.58381  0.95440  0.76680  1.0000
  Fe  Fe201     1.0  0.34242  0.87168  0.79396  1.0000
  H   H1564     1.0  0.61163  0.95018  0.79551  1.0000
  H   H1565     1.0  0.49412  0.84357  0.90904  1.0000
  H   H1566     1.0  0.44053  0.94476  0.74319  1.0000
  C   C992      1.0  0.61588  0.83698  0.81228  1.0000
  H   H1567     1.0  0.55026  0.95173  0.78560  1.0000
  C   C993      1.0  0.60768  0.81059  0.81052  1.0000
  H   H1568     1.0  0.64978  0.76548  0.80782  1.0000
  H   H1569     1.0  0.59818  0.94872  0.76100  1.0000
  C   C994      1.0  0.41190  0.97030  0.83218  1.0000
  H   H1570     1.0  0.52121  0.74693  0.98173  1.0000
  C   C995      1.0  0.65712  0.79308  0.81558  1.0000
  H   H1571     1.0  0.41144  0.76514  0.96855  1.0000
  N   N99       1.0  0.33839  0.82206  0.84658  1.0000
  C   C996      1.0  0.55616  0.86973  0.77637  1.0000
  S   S397      1.0  0.45136  0.75006  0.89444  1.0000
  C   C997      1.0  0.39386  0.82918  0.91264  1.0000
  C   C998      1.0  0.60315  0.80566  0.82923  1.0000
  H   H1572     1.0  0.37236  0.84490  0.93914  1.0000
  H   H1573     1.0  0.41435  0.80901  0.93595  1.0000
  C   C999      1.0  0.45990  0.82308  0.91426  1.0000
  H   H1574     1.0  0.54669  0.82855  0.78642  1.0000
  H   H1575     1.0  0.63431  0.78557  0.84757  1.0000
  H   H1576     1.0  0.64360  0.80238  0.81671  1.0000
  H   H1577     1.0  0.47981  0.91865  0.81323  1.0000
  H   H1578     1.0  0.43923  0.92069  0.77029  1.0000
  H   H1579     1.0  0.56006  0.83933  0.76625  1.0000
  H   H1580     1.0  0.52509  0.86366  0.79857  1.0000
  H   H1581     1.0  0.43078  0.71997  0.95790  1.0000
  C   C1000     1.0  0.54017  0.74355  0.88550  1.0000
  H   H1582     1.0  0.58252  0.95203  0.78148  1.0000
  H   H1583     1.0  0.64641  0.65813  0.89034  1.0000
  H   H1584     1.0  0.35340  0.97943  0.77044  1.0000
  S   S398      1.0  0.44109  0.82522  0.90573  1.0000
  H   H1585     1.0  0.41667  0.95317  0.74985  1.0000
  H   H1586     1.0  0.64776  0.76408  0.85535  1.0000
  C   C1001     1.0  0.48042  0.95762  0.78197  1.0000
  H   H1587     1.0  0.45746  0.79736  0.93146  1.0000
  H   H1588     1.0  0.42386  0.73976  0.94192  1.0000
  H   H1589     1.0  0.52492  0.74795  0.86554  1.0000
  C   C1002     1.0  0.59772  0.77069  0.97446  1.0000
  C   C1003     1.0  0.65459  0.95224  0.77205  1.0000
  C   C1004     1.0  0.61434  0.82609  0.80202  1.0000
  H   H1590     1.0  0.58130  0.83965  0.78390  1.0000
  H   H1591     1.0  0.56763  0.82954  0.80418  1.0000
  C   C1005     1.0  0.47799  0.92233  0.78599  1.0000
  C   C1006     1.0  0.53759  0.85580  0.80332  1.0000
  Fe  Fe202     1.0  0.60167  0.77975  0.87474  1.0000
  C   C1007     1.0  0.61156  0.83189  0.83103  1.0000
  H   H1592     1.0  0.56818  0.86770  0.76527  1.0000
  H   H1593     1.0  0.62092  0.84903  0.80580  1.0000
  N   N100      1.0  0.42799  0.97824  0.82624  1.0000
  C   C1008     1.0  0.56948  0.84257  0.79502  1.0000
  H   H1594     1.0  0.57328  0.85036  0.80246  1.0000
  H   H1595     1.0  0.46602  0.84821  0.89840  1.0000
  C   C1009     1.0  0.38381  0.76644  0.87224  1.0000
  H   H1596     1.0  0.55373  0.77375  0.93513  1.0000
  C   C1010     1.0  0.46534  0.80750  0.92657  1.0000
  C   C1011     1.0  0.42586  0.91982  0.76891  1.0000
  C   C1012     1.0  0.64833  0.77728  0.84602  1.0000
  N   N101      1.0  0.55303  0.85247  0.78820  1.0000
  H   H1597     1.0  0.55860  0.87845  0.78375  1.0000
  H   H1598     1.0  0.53437  0.84309  0.81220  1.0000
  C   C1013     1.0  0.35779  0.81602  0.83872  1.0000
  H   H1599     1.0  0.37387  0.80430  0.92405  1.0000
  S   S399      1.0  0.39864  0.76041  0.91857  1.0000
  C   C1014     1.0  0.54891  0.84178  0.77803  1.0000
  H   H1600     1.0  0.54440  0.87722  0.77022  1.0000
  H   H1601     1.0  0.54035  0.86347  0.81158  1.0000
  H   H1602     1.0  0.45174  0.97620  0.83549  1.0000
  H   H1603     1.0  0.63678  0.75532  0.95234  1.0000
  H   H1604     1.0  0.57398  0.92368  0.78488  1.0000
  N   N102      1.0  0.57124  0.94617  0.76273  1.0000
  H   H1605     1.0  0.48481  0.79303  0.94247  1.0000
  H   H1606     1.0  0.44285  0.95989  0.80920  1.0000
  H   H1607     1.0  0.55915  0.73649  0.95941  1.0000
  H   H1608     1.0  0.38350  0.83202  0.90464  1.0000
  C   C1015     1.0  0.40133  0.81746  0.94165  1.0000
  H   H1609     1.0  0.40436  0.83036  0.94139  1.0000
  H   H1610     1.0  0.66456  0.69430  0.92067  1.0000
  H   H1611     1.0  0.57414  0.85348  0.96227  1.0000
  H   H1612     1.0  0.43601  0.74061  0.95750  1.0000
  H   H1613     1.0  0.33631  0.79893  0.91828  1.0000
  S   S400      1.0  0.65015  0.72618  0.86247  1.0000
  C   C1016     1.0  0.39444  0.73146  0.96594  1.0000
  H   H1614     1.0  0.34121  0.84804  0.84685  1.0000
  H   H1615     1.0  0.53952  0.73111  0.95687  1.0000
  C   C1017     1.0  0.36558  0.76541  0.87810  1.0000
  H   H1616     1.0  0.57128  0.98592  0.82070  1.0000
  H   H1617     1.0  0.48120  0.97130  0.78038  1.0000
  S   S401      1.0  0.38653  0.95892  0.77990  1.0000
  H   H1618     1.0  0.65178  0.66592  0.86648  1.0000
  C   C1018     1.0  0.65803  0.70853  0.89524  1.0000
  C   C1019     1.0  0.64439  0.76718  0.82183  1.0000
  Fe  Fe203     1.0  0.33539  0.79700  0.98159  1.0000
  C   C1020     1.0  0.53005  0.75677  0.97606  1.0000
  N   N103      1.0  0.42449  0.92504  0.74999  1.0000
  H   H1619     1.0  0.39556  0.93357  0.75583  1.0000
  C   C1021     1.0  0.52443  0.74551  0.87967  1.0000
  H   H1620     1.0  0.45061  0.98019  0.80384  1.0000
  S   S402      1.0  0.33833  0.80371  0.95193  1.0000
  C   C1022     1.0  0.63723  0.95751  0.78224  1.0000
  H   H1621     1.0  0.44467  0.95564  0.84042  1.0000
  H   H1622     1.0  0.55359  0.74276  0.93795  1.0000
  H   H1623     1.0  0.39019  0.76780  0.85820  1.0000
  Fe  Fe204     1.0  0.42567  0.76757  0.90647  1.0000
  S   S403      1.0  0.48482  0.79194  0.98063  1.0000
  C   C1023     1.0  0.36760  0.76233  0.90862  1.0000
  H   H1624     1.0  0.54251  0.94822  0.76799  1.0000
  H   H1625     1.0  0.64321  0.75376  0.83054  1.0000
  C   C1024     1.0  0.64239  0.74626  0.96384  1.0000
  C   C1025     1.0  0.62489  0.94631  0.78727  1.0000
  H   H1626     1.0  0.36125  0.76079  0.92269  1.0000
  H   H1627     1.0  0.58943  0.92051  0.76428  1.0000
  H   H1628     1.0  0.34316  0.82137  0.87200  1.0000
  C   C1026     1.0  0.64689  0.92508  0.77115  1.0000
  H   H1629     1.0  0.36643  0.82163  0.84361  1.0000
  H   H1630     1.0  0.41062  0.86112  0.74320  1.0000
  S   S404      1.0  0.61174  0.79913  0.97255  1.0000
  H   H1631     1.0  0.33576  0.84680  0.82708  1.0000
  C   C1027     1.0  0.57530  0.92670  0.77015  1.0000
  H   H1632     1.0  0.36524  0.82517  0.95347  1.0000
  Fe  Fe205     1.0  0.58257  0.75022  0.87927  1.0000
  C   C1028     1.0  0.39399  0.76521  0.88458  1.0000
  C   C1029     1.0  0.43960  0.97033  0.83939  1.0000
  C   C1030     1.0  0.56976  0.98844  0.83412  1.0000
  H   H1633     1.0  0.51227  0.75469  0.95263  1.0000
  H   H1634     1.0  0.56110  0.97958  0.84389  1.0000
  H   H1635     1.0  0.54899  0.96878  0.76568  1.0000
  S   S405      1.0  0.35326  0.76637  0.86249  1.0000
  C   C1031     1.0  0.65753  0.66124  0.87864  1.0000
  C   C1032     1.0  0.52104  0.76460  0.94787  1.0000
  Fe  Fe206     1.0  0.59776  0.75175  0.90930  1.0000
  Fe  Fe207     1.0  0.50803  0.86402  0.74902  1.0000
  C   C1033     1.0  0.43859  0.91275  0.73985  1.0000
  H   H1636     1.0  0.39209  0.73675  0.95213  1.0000
  S   S406      1.0  0.33666  0.89318  0.76985  1.0000
  H   H1637     1.0  0.40387  0.91036  0.75494  1.0000
  H   H1638     1.0  0.58349  0.83003  0.96345  1.0000
  N   N104      1.0  0.65605  0.77528  0.82739  1.0000
  H   H1639     1.0  0.64394  0.77135  0.97964  1.0000
  S   S407      1.0  0.55482  0.98457  0.79360  1.0000
  H   H1640     1.0  0.65642  0.78384  0.85055  1.0000
  C   C1034     1.0  0.40647  0.92403  0.74880  1.0000
  H   H1641     1.0  0.63154  0.74740  0.97611  1.0000
  C   C1035     1.0  0.42705  0.94355  0.74243  1.0000
  H   H1642     1.0  0.66221  0.79228  0.80128  1.0000
  C   C1036     1.0  0.65438  0.76953  0.96727  1.0000
  H   H1643     1.0  0.52207  0.76965  0.97957  1.0000
  H   H1644     1.0  0.54143  0.75214  0.98310  1.0000
  S   S408      1.0  0.51810  0.80880  0.98272  1.0000
  H   H1645     1.0  0.45236  0.91328  0.74034  1.0000
  C   C1037     1.0  0.66551  0.73870  0.98072  1.0000
  H   H1646     1.0  0.56436  0.94323  0.73965  1.0000
  Fe  Fe208     1.0  0.37726  0.98761  0.78194  1.0000
  C   C1038     1.0  0.33323  0.84180  0.84180  1.0000
  H   H1647     1.0  0.58759  0.94361  0.73670  1.0000
  C   C1039     1.0  0.81952  0.03843  0.19699  1.0000
  Fe  Fe209     1.0  0.97325  0.23768  0.13316  1.0000
  H   H1648     1.0  0.83845  0.04749  0.17292  1.0000
  H   H1649     1.0  0.83454  0.18521  0.12474  1.0000
  C   C1040     1.0  0.73142  0.18483  0.98925  1.0000
  H   H1650     1.0  0.71265  0.04555  0.03224  1.0000
  Fe  Fe210     1.0  0.68985  0.01458  0.09465  1.0000
  C   C1041     1.0  0.84141  0.05539  0.19546  1.0000
  C   C1042     1.0  0.73273  0.03255  0.15882  1.0000
  S   S409      1.0  0.71750  0.19884  0.01949  1.0000
  H   H1651     1.0  0.69250  0.13159  0.05556  1.0000
  H   H1652     1.0  0.92967  0.32270  0.11633  1.0000
  H   H1653     1.0  0.82038  0.21647  0.08699  1.0000
  H   H1654     1.0  0.86081  0.29750  0.09487  1.0000
  Fe  Fe211     1.0  0.86343  0.22217  0.11725  1.0000
  S   S410      1.0  0.88292  0.21330  0.09333  1.0000
  S   S411      1.0  0.87010  0.20531  0.14325  1.0000
  H   H1655     1.0  0.86749  0.18077  0.11984  1.0000
  H   H1656     1.0  0.86595  0.14041  0.13169  1.0000
  C   C1043     1.0  0.85644  0.15392  0.10008  1.0000
  H   H1657     1.0  0.68958  0.18460  0.01614  1.0000
  H   H1658     1.0  0.74060  0.03133  0.13102  1.0000
  C   C1044     1.0  0.83275  0.20660  0.06292  1.0000
  H   H1659     1.0  0.70945  0.12443  0.06871  1.0000
  H   H1660     1.0  0.76834  0.29330  0.10064  1.0000
  C   C1045     1.0  0.69250  0.05962  0.07101  1.0000
  H   H1661     1.0  0.90823  0.08439  0.22586  1.0000
  H   H1662     1.0  0.87757  0.28265  0.07009  1.0000
  S   S412      1.0  0.85509  0.20376  0.06486  1.0000
  C   C1046     1.0  0.70337  0.99274  0.21378  1.0000
  S   S413      1.0  0.70688  0.02473  0.06800  1.0000
  Fe  Fe212     1.0  0.84102  0.12564  0.20211  1.0000
  S   S414      1.0  0.86613  0.11383  0.18413  1.0000
  S   S415      1.0  0.82255  0.14943  0.18883  1.0000
  Fe  Fe213     1.0  0.85845  0.08763  0.19805  1.0000
  S   S416      1.0  0.85717  0.06835  0.18279  1.0000
  Fe  Fe214     1.0  0.87932  0.10981  0.20690  1.0000
  S   S417      1.0  0.90493  0.11950  0.20186  1.0000
  S   S418      1.0  0.83225  0.09978  0.21445  1.0000
  S   S419      1.0  0.85456  0.12359  0.22412  1.0000
  C   C1047     1.0  0.70318  0.02660  0.17434  1.0000
  N   N105      1.0  0.85398  0.16375  0.11406  1.0000
  H   H1663     1.0  0.84520  0.14702  0.10275  1.0000
  H   H1664     1.0  0.83696  0.18710  0.10138  1.0000
  C   C1048     1.0  0.71498  0.13436  0.02353  1.0000
  C   C1049     1.0  0.91978  0.10767  0.21611  1.0000
  C   C1050     1.0  0.93306  0.11563  0.21715  1.0000
  S   S420      1.0  0.67097  0.13906  0.99330  1.0000
  H   H1665     1.0  0.78957  0.28686  0.03644  1.0000
  H   H1666     1.0  0.93442  0.12865  0.20885  1.0000
  H   H1667     1.0  0.97773  0.21871  0.08919  1.0000
  H   H1668     1.0  0.79415  0.25245  0.06465  1.0000
  C   C1051     1.0  0.85344  0.15119  0.13166  1.0000
  H   H1669     1.0  0.87033  0.18173  0.09645  1.0000
  H   H1670     1.0  0.88234  0.16277  0.11002  1.0000
  H   H1671     1.0  0.85677  0.16317  0.08666  1.0000
  Fe  Fe215     1.0  0.67863  0.01116  0.13466  1.0000
  C   C1052     1.0  0.85621  0.19052  0.15625  1.0000
  C   C1053     1.0  0.86334  0.17558  0.16834  1.0000
  C   C1054     1.0  0.85286  0.16318  0.17857  1.0000
  C   C1055     1.0  0.83511  0.16572  0.17687  1.0000
  C   C1056     1.0  0.82780  0.18086  0.16500  1.0000
  C   C1057     1.0  0.83838  0.19326  0.15465  1.0000
  H   H1672     1.0  0.87709  0.17344  0.16968  1.0000
  H   H1673     1.0  0.85857  0.15166  0.18780  1.0000
  H   H1674     1.0  0.81401  0.18295  0.16377  1.0000
  H   H1675     1.0  0.83270  0.20502  0.14561  1.0000
  H   H1676     1.0  0.80922  0.20059  0.03588  1.0000
  C   C1058     1.0  0.70021  0.07294  0.03400  1.0000
  C   C1059     1.0  0.97694  0.18360  0.19106  1.0000
  H   H1677     1.0  0.72386  0.14139  0.01182  1.0000
  C   C1060     1.0  0.98278  0.17018  0.20510  1.0000
  H   H1678     1.0  0.70070  0.14143  0.02316  1.0000
  H   H1679     1.0  0.96267  0.18824  0.19126  1.0000
  H   H1680     1.0  0.71658  0.12064  0.02170  1.0000
  C   C1061     1.0  0.74903  0.27346  0.03757  1.0000
  C   C1062     1.0  0.69995  0.17321  0.99281  1.0000
  C   C1063     1.0  0.69077  0.08459  0.04541  1.0000
  S   S421      1.0  0.68121  0.01651  0.15998  1.0000
  H   H1681     1.0  0.78736  0.09534  0.21022  1.0000
  C   C1064     1.0  0.71733  0.15224  0.04234  1.0000
  S   S422      1.0  0.77782  0.23752  0.01038  1.0000
  H   H1682     1.0  0.82500  0.17128  0.11745  1.0000
  H   H1683     1.0  0.74015  0.10983  0.03926  1.0000
  C   C1065     1.0  0.92174  0.22977  0.12195  1.0000
  C   C1066     1.0  0.70081  0.02344  0.15888  1.0000
  C   C1067     1.0  0.70559  0.05460  0.04110  1.0000
  H   H1684     1.0  0.72091  0.03327  0.18645  1.0000
  H   H1685     1.0  0.81088  0.25679  0.07329  1.0000
  C   C1068     1.0  0.71918  0.03089  0.17440  1.0000
  C   C1069     1.0  0.99327  0.20242  0.06188  1.0000
  H   H1686     1.0  0.84168  0.14476  0.13564  1.0000
  C   C1070     1.0  0.73017  0.02995  0.14313  1.0000
  Fe  Fe216     1.0  0.77912  0.01830  0.21513  1.0000
  C   C1071     1.0  0.86921  0.17264  0.10993  1.0000
  H   H1687     1.0  0.86936  0.14365  0.09917  1.0000
  N   N106      1.0  0.79672  0.09935  0.18165  1.0000
  H   H1688     1.0  0.98211  0.19644  0.07141  1.0000
  C   C1072     1.0  0.94437  0.10698  0.22922  1.0000
  S   S423      1.0  0.75153  0.03400  0.21102  1.0000
  C   C1073     1.0  0.83685  0.17741  0.11446  1.0000
  H   H1689     1.0  0.98481  0.20119  0.16585  1.0000
  H   H1690     1.0  0.94040  0.18943  0.15067  1.0000
  C   C1074     1.0  0.67170  0.00119  0.21296  1.0000
  H   H1691     1.0  0.74057  0.31371  0.00900  1.0000
  H   H1692     1.0  0.74362  0.31980  0.09661  1.0000
  H   H1693     1.0  0.80479  0.07648  0.16966  1.0000
  C   C1075     1.0  0.79640  0.08808  0.19983  1.0000
  S   S424      1.0  0.76907  0.19773  0.01647  1.0000
  N   N107      1.0  0.71934  0.13381  0.04053  1.0000
  H   H1694     1.0  0.81011  0.08385  0.20273  1.0000
  Fe  Fe217     1.0  0.75943  0.02326  0.18608  1.0000
  H   H1695     1.0  0.92965  0.18395  0.20004  1.0000
  C   C1076     1.0  0.70103  0.18210  0.00522  1.0000
  S   S425      1.0  0.87432  0.08213  0.21903  1.0000
  H   H1696     1.0  0.79492  0.12323  0.19031  1.0000
  C   C1077     1.0  0.93054  0.17177  0.19536  1.0000
  C   C1078     1.0  0.83372  0.04699  0.18711  1.0000
  H   H1697     1.0  0.76422  0.30341  0.13645  1.0000
  H   H1698     1.0  0.96342  0.31436  0.10561  1.0000
  C   C1079     1.0  0.86782  0.30872  0.08824  1.0000
  S   S426      1.0  0.73825  0.22960  0.03370  1.0000
  H   H1699     1.0  0.84079  0.19729  0.03838  1.0000
  C   C1080     1.0  0.89705  0.28904  0.08948  1.0000
  C   C1081     1.0  0.93728  0.23562  0.12052  1.0000
  C   C1082     1.0  0.82952  0.20219  0.04846  1.0000
  C   C1083     1.0  0.70143  0.04788  0.05959  1.0000
  H   H1700     1.0  0.70316  0.07798  0.01969  1.0000
  H   H1701     1.0  0.85231  0.15818  0.14232  1.0000
  S   S427      1.0  0.74035  0.27905  0.00503  1.0000
  C   C1084     1.0  0.71426  0.02524  0.14318  1.0000
  H   H1702     1.0  0.94154  0.19813  0.16856  1.0000
  H   H1703     1.0  0.90854  0.20098  0.17978  1.0000
  H   H1704     1.0  0.94409  0.16292  0.19646  1.0000
  H   H1705     1.0  0.95586  0.17702  0.16497  1.0000
  C   C1085     1.0  0.94205  0.18556  0.16474  1.0000
  N   N108      1.0  0.92790  0.17631  0.17686  1.0000
  S   S428      1.0  0.94638  0.23056  0.13939  1.0000
  C   C1086     1.0  0.82114  0.04625  0.22356  1.0000
  S   S429      1.0  0.67789  0.09615  0.99281  1.0000
  C   C1087     1.0  0.71669  0.18804  0.00342  1.0000
  H   H1706     1.0  0.84136  0.06090  0.22035  1.0000
  C   C1088     1.0  0.81169  0.20410  0.04699  1.0000
  C   C1089     1.0  0.90988  0.18819  0.17598  1.0000
  H   H1707     1.0  0.92023  0.16459  0.20486  1.0000
  S   S430      1.0  0.70194  0.99610  0.11725  1.0000
  H   H1708     1.0  0.94249  0.15031  0.17207  1.0000
  C   C1090     1.0  0.92913  0.15969  0.17140  1.0000
  H   H1709     1.0  0.90736  0.19173  0.16223  1.0000
  H   H1710     1.0  0.89884  0.18173  0.18507  1.0000
  H   H1711     1.0  0.78915  0.21856  0.08512  1.0000
  H   H1712     1.0  0.92728  0.16254  0.15749  1.0000
  H   H1713     1.0  0.69256  0.02590  0.18626  1.0000
  H   H1714     1.0  0.85916  0.31901  0.07971  1.0000
  H   H1715     1.0  0.91856  0.15242  0.18026  1.0000
  C   C1091     1.0  0.68720  0.07799  0.06392  1.0000
  C   C1092     1.0  0.70689  0.12476  0.05561  1.0000
  H   H1716     1.0  0.74790  0.13028  0.02930  1.0000
  C   C1093     1.0  0.77825  0.10467  0.17831  1.0000
  H   H1717     1.0  0.81343  0.03219  0.19047  1.0000
  Fe  Fe218     1.0  0.76748  0.21671  0.03335  1.0000
  C   C1094     1.0  0.98949  0.19115  0.17678  1.0000
  H   H1718     1.0  0.68971  0.05456  0.08530  1.0000
  C   C1095     1.0  0.91404  0.23383  0.10713  1.0000
  H   H1719     1.0  0.96093  0.22601  0.06497  1.0000
  C   C1096     1.0  0.80329  0.11550  0.18003  1.0000
  C   C1097     1.0  0.80041  0.21419  0.07476  1.0000
  S   S431      1.0  0.75303  0.03717  0.15932  1.0000
  Fe  Fe219     1.0  0.85864  0.22070  0.08136  1.0000
  C   C1098     1.0  0.80897  0.08907  0.16845  1.0000
  H   H1720     1.0  0.80926  0.09696  0.15452  1.0000
  C   C1099     1.0  0.79714  0.20982  0.06033  1.0000
  Fe  Fe220     1.0  0.74053  0.21239  0.01487  1.0000
  H   H1721     1.0  0.76868  0.11247  0.18805  1.0000
  H   H1722     1.0  0.77794  0.11313  0.16466  1.0000
  H   H1723     1.0  0.82312  0.08520  0.17036  1.0000
  S   S432      1.0  0.77477  0.21080  0.06000  1.0000
  H   H1724     1.0  0.81747  0.11197  0.18179  1.0000
  S   S433      1.0  0.99768  0.21921  0.12097  1.0000
  H   H1725     1.0  0.79169  0.07566  0.20153  1.0000
  H   H1726     1.0  0.93926  0.32211  0.15067  1.0000
  S   S434      1.0  0.74819  0.99887  0.19930  1.0000
  S   S435      1.0  0.78790  0.00980  0.18892  1.0000
  H   H1727     1.0  0.77292  0.09275  0.17950  1.0000
  H   H1728     1.0  0.90209  0.22915  0.10848  1.0000
  H   H1729     1.0  0.70341  0.16037  0.04181  1.0000
  S   S436      1.0  0.83880  0.22708  0.10622  1.0000
  C   C1100     1.0  0.81315  0.03820  0.21522  1.0000
  H   H1730     1.0  0.70836  0.11068  0.05482  1.0000
  H   H1731     1.0  0.78608  0.29341  0.11059  1.0000
  H   H1732     1.0  0.72685  0.15930  0.03140  1.0000
  H   H1733     1.0  0.72013  0.15243  0.05517  1.0000
  H   H1734     1.0  0.82035  0.31749  0.07861  1.0000
  C   C1101     1.0  0.73819  0.12382  0.04059  1.0000
  C   C1102     1.0  0.81813  0.21296  0.07585  1.0000
  C   C1103     1.0  0.93736  0.24971  0.08933  1.0000
  Fe  Fe221     1.0  0.77656  0.22006  0.99337  1.0000
  H   H1735     1.0  0.79221  0.26480  0.03340  1.0000
  H   H1736     1.0  0.95430  0.11345  0.23016  1.0000
  H   H1737     1.0  0.91552  0.22218  0.13456  1.0000
  S   S437      1.0  0.99200  0.11086  0.23369  1.0000
  Fe  Fe222     1.0  0.88433  0.24204  0.08345  1.0000
  S   S438      1.0  0.86626  0.25075  0.10805  1.0000
  S   S439      1.0  0.68243  0.10719  0.03667  1.0000
  Fe  Fe223     1.0  0.74293  0.00812  0.22467  1.0000
  S   S440      1.0  0.67257  0.99654  0.09480  1.0000
  N   N109      1.0  0.98982  0.22179  0.06105  1.0000
  H   H1738     1.0  0.86848  0.31475  0.09897  1.0000
  H   H1739     1.0  0.79188  0.27428  0.06819  1.0000
  H   H1740     1.0  0.71238  0.02313  0.13109  1.0000
  C   C1104     1.0  0.89473  0.31771  0.06879  1.0000
  S   S441      1.0  0.98431  0.23808  0.15584  1.0000
  N   N110      1.0  0.81224  0.26782  0.04524  1.0000
  C   C1105     1.0  0.82565  0.25201  0.04001  1.0000
  C   C1106     1.0  0.80184  0.26258  0.06365  1.0000
  C   C1107     1.0  0.75294  0.27911  0.05096  1.0000
  Fe  Fe224     1.0  0.74876  0.24907  0.00947  1.0000
  H   H1741     1.0  0.83413  0.25554  0.02639  1.0000
  H   H1742     1.0  0.95718  0.25008  0.10305  1.0000
  H   H1743     1.0  0.89759  0.28914  0.05565  1.0000
  H   H1744     1.0  0.89099  0.27717  0.09613  1.0000
  C   C1108     1.0  0.82679  0.30327  0.12728  1.0000
  C   C1109     1.0  0.82638  0.29040  0.11860  1.0000
  C   C1110     1.0  0.82391  0.29559  0.10109  1.0000
  C   C1111     1.0  0.82224  0.31356  0.09215  1.0000
  H   H1745     1.0  0.82835  0.29929  0.14097  1.0000
  H   H1746     1.0  0.82758  0.27653  0.12560  1.0000
  C   C1112     1.0  0.74456  0.28591  0.02231  1.0000
  H   H1747     1.0  0.74952  0.25945  0.03910  1.0000
  H   H1748     1.0  0.98543  0.23909  0.07893  1.0000
  C   C1113     1.0  0.79976  0.27489  0.03289  1.0000
  C   C1114     1.0  0.82162  0.28179  0.04440  1.0000
  H   H1749     1.0  0.87582  0.30402  0.05469  1.0000
  C   C1115     1.0  0.92171  0.24392  0.09085  1.0000
  H   H1750     1.0  0.82918  0.28655  0.03060  1.0000
  H   H1751     1.0  0.80711  0.27892  0.01886  1.0000
  H   H1752     1.0  0.83147  0.27678  0.05321  1.0000
  H   H1753     1.0  0.70366  0.00657  0.21398  1.0000
  C   C1116     1.0  0.97266  0.23097  0.05531  1.0000
  S   S442      1.0  0.82224  0.27988  0.09046  1.0000
  Fe  Fe225     1.0  0.68550  0.11259  0.00701  1.0000
  S   S443      1.0  0.71234  0.11360  0.98822  1.0000
  S   S444      1.0  0.76978  0.99308  0.23060  1.0000
  Fe  Fe226     1.0  0.84375  0.25483  0.09443  1.0000
  C   C1117     1.0  0.75284  0.29716  0.04885  1.0000
  N   N111      1.0  0.88596  0.30243  0.07760  1.0000
  H   H1754     1.0  0.97297  0.22890  0.04201  1.0000
  H   H1755     1.0  0.80311  0.12467  0.16671  1.0000
  H   H1756     1.0  0.96988  0.24566  0.05427  1.0000
  H   H1757     1.0  0.91089  0.28407  0.08188  1.0000
  C   C1118     1.0  0.74832  0.30955  0.03367  1.0000
  C   C1119     1.0  0.94522  0.24546  0.10416  1.0000
  H   H1758     1.0  0.74363  0.18919  0.98789  1.0000
  H   H1759     1.0  0.81891  0.24148  0.04002  1.0000
  H   H1760     1.0  0.74197  0.12317  0.05321  1.0000
  H   H1761     1.0  0.83493  0.24588  0.04939  1.0000
  H   H1762     1.0  0.75659  0.26941  0.06261  1.0000
  S   S445      1.0  0.91112  0.25001  0.07278  1.0000
  S   S446      1.0  0.86209  0.24871  0.06884  1.0000
  C   C1120     1.0  0.74401  0.30397  0.02057  1.0000
  H   H1763     1.0  0.94317  0.25776  0.07685  1.0000
  H   H1764     1.0  0.81190  0.29368  0.04884  1.0000
  S   S447      1.0  0.98141  0.26286  0.11613  1.0000
  C   C1121     1.0  0.77665  0.30190  0.10191  1.0000
  C   C1122     1.0  0.88415  0.29424  0.06388  1.0000
  S   S448      1.0  0.74815  0.23332  0.99047  1.0000
  S   S449      1.0  0.76052  0.30407  0.06386  1.0000
  H   H1765     1.0  0.96337  0.31687  0.14325  1.0000
  C   C1123     1.0  0.91824  0.09074  0.22681  1.0000
  C   C1124     1.0  0.83535  0.05464  0.21378  1.0000
  H   H1766     1.0  0.98804  0.23889  0.19362  1.0000
  S   S450      1.0  0.79528  0.02808  0.22822  1.0000
  S   S451      1.0  0.96654  0.16128  0.22287  1.0000
  Fe  Fe227     1.0  0.99520  0.26133  0.13761  1.0000
  H   H1767     1.0  0.71926  0.31420  0.99202  1.0000
  C   C1125     1.0  0.98854  0.22459  0.07891  1.0000
  H   H1768     1.0  0.99445  0.22000  0.21097  1.0000
  Fe  Fe228     1.0  0.84848  0.09622  0.23457  1.0000
  H   H1769     1.0  0.95003  0.30549  0.13745  1.0000
  S   S452      1.0  0.99299  0.28523  0.14833  1.0000
  H   H1770     1.0  0.67094  0.01536  0.21291  1.0000
  H   H1771     1.0  0.74616  0.32276  0.13325  1.0000
  H   H1772     1.0  0.74820  0.32350  0.03195  1.0000
  H   H1773     1.0  0.67492  0.00010  0.19875  1.0000
  C   C1126     1.0  0.82535  0.32123  0.11828  1.0000
  H   H1774     1.0  0.99456  0.19977  0.04857  1.0000
  H   H1775     1.0  0.89842  0.29468  0.10017  1.0000
  H   H1776     1.0  0.68763  0.16907  0.99408  1.0000
  H   H1777     1.0  0.74616  0.30260  0.12731  1.0000
  H   H1778     1.0  0.90848  0.31341  0.06067  1.0000
  C   C1127     1.0  0.75496  0.31132  0.12736  1.0000
  H   H1779     1.0  0.66698  0.03690  0.06348  1.0000
  H   H1780     1.0  0.99915  0.21746  0.18849  1.0000
  S   S453      1.0  0.66800  0.03123  0.11185  1.0000
  H   H1781     1.0  0.68000  0.08701  0.07278  1.0000
  H   H1782     1.0  0.99382  0.32129  0.14777  1.0000
  H   H1783     1.0  0.78503  0.30602  0.08836  1.0000
  H   H1784     1.0  0.78670  0.32139  0.11841  1.0000
  C   C1128     1.0  0.95045  0.31869  0.13926  1.0000
  N   N112      1.0  0.76524  0.31755  0.10914  1.0000
  H   H1785     1.0  0.82859  0.99778  0.22676  1.0000
  H   H1786     1.0  0.70724  0.99168  0.19957  1.0000
  C   C1129     1.0  0.99875  0.22675  0.19677  1.0000
  H   H1787     1.0  0.94949  0.05917  0.35019  1.0000
  H   H1788     1.0  0.83100  0.11896  0.26532  1.0000
  C   C1130     1.0  0.80529  0.09484  0.48400  1.0000
  C   C1131     1.0  0.85047  0.01099  0.41021  1.0000
  C   C1132     1.0  0.73651  0.00558  0.28771  1.0000
  C   C1133     1.0  0.71909  0.00525  0.26707  1.0000
  C   C1134     1.0  0.87990  0.11410  0.29242  1.0000
  H   H1789     1.0  0.83961  0.00670  0.29872  1.0000
  S   S454      1.0  0.99498  0.13412  0.26106  1.0000
  H   H1790     1.0  0.94077  0.05027  0.33698  1.0000
  H   H1791     1.0  0.80959  0.05169  0.26732  1.0000
  Fe  Fe229     1.0  0.97525  0.11954  0.28196  1.0000
  S   S455      1.0  0.96247  0.12306  0.31016  1.0000
  Fe  Fe230     1.0  0.97208  0.09878  0.25679  1.0000
  C   C1135     1.0  0.95043  0.08056  0.31727  1.0000
  S   S456      1.0  0.95635  0.12472  0.26391  1.0000
  C   C1136     1.0  0.82275  0.00859  0.43224  1.0000
  H   H1792     1.0  0.92055  0.06871  0.42509  1.0000
  S   S457      1.0  0.83952  0.08151  0.26277  1.0000
  H   H1793     1.0  0.80765  0.01154  0.28332  1.0000
  H   H1794     1.0  0.88651  0.12109  0.29818  1.0000
  H   H1795     1.0  0.97504  0.06122  0.29507  1.0000
  C   C1137     1.0  0.82421  0.03533  0.40907  1.0000
  H   H1796     1.0  0.85408  0.02016  0.26722  1.0000
  H   H1797     1.0  0.91563  0.09916  0.29009  1.0000
  H   H1798     1.0  0.93932  0.06565  0.43485  1.0000
  H   H1799     1.0  0.77661  0.09086  0.47495  1.0000
  C   C1138     1.0  0.72144  0.00421  0.30190  1.0000
  H   H1800     1.0  0.90746  0.12702  0.26838  1.0000
  H   H1801     1.0  0.87206  0.10647  0.26497  1.0000
  H   H1802     1.0  0.87756  0.08624  0.28122  1.0000
  C   C1139     1.0  0.83378  0.11044  0.27785  1.0000
  C   C1140     1.0  0.83830  0.09181  0.27990  1.0000
  C   C1141     1.0  0.84177  0.08089  0.29612  1.0000
  H   H1803     1.0  0.84559  0.06652  0.29761  1.0000
  H   H1804     1.0  0.68038  0.00483  0.24180  1.0000
  N   N113      1.0  0.82618  0.02798  0.28028  1.0000
  H   H1805     1.0  0.83504  0.02856  0.30318  1.0000
  Fe  Fe231     1.0  0.74988  0.00081  0.32889  1.0000
  C   C1142     1.0  0.84026  0.02878  0.43263  1.0000
  C   C1143     1.0  0.82013  0.01527  0.27408  1.0000
  H   H1806     1.0  0.88794  0.05863  0.46802  1.0000
  N   N114      1.0  0.89276  0.10593  0.27796  1.0000
  H   H1807     1.0  0.95532  0.12039  0.47348  1.0000
  C   C1144     1.0  0.97661  0.11362  0.32556  1.0000
  H   H1808     1.0  0.85948  0.01998  0.40139  1.0000
  H   H1809     1.0  0.84779  0.04197  0.27226  1.0000
  H   H1810     1.0  0.92998  0.11965  0.33919  1.0000
  H   H1811     1.0  0.92096  0.08796  0.45230  1.0000
  H   H1812     1.0  0.89266  0.09044  0.25985  1.0000
  H   H1813     1.0  0.88906  0.13020  0.25779  1.0000
  S   S458      1.0  0.98946  0.09248  0.27656  1.0000
  S   S459      1.0  0.71734  0.00547  0.24551  1.0000
  H   H1814     1.0  0.81188  0.04299  0.41679  1.0000
  H   H1815     1.0  0.80688  0.09803  0.46922  1.0000
  C   C1145     1.0  0.84299  0.03231  0.26793  1.0000
  C   C1146     1.0  0.82964  0.01973  0.29837  1.0000
  C   C1147     1.0  0.81199  0.04460  0.28084  1.0000
  H   H1816     1.0  0.88357  0.14693  0.34948  1.0000
  H   H1817     1.0  0.95613  0.05093  0.30491  1.0000
  C   C1148     1.0  0.88334  0.09688  0.27071  1.0000
  H   H1818     1.0  0.82998  0.99750  0.44147  1.0000
  H   H1819     1.0  0.81578  0.05413  0.28628  1.0000
  H   H1820     1.0  0.96073  0.08756  0.48069  1.0000
  C   C1149     1.0  0.90776  0.09271  0.28515  1.0000
  H   H1821     1.0  0.93121  0.04664  0.43555  1.0000
  C   C1150     1.0  0.90001  0.12001  0.26355  1.0000
  H   H1822     1.0  0.90964  0.11429  0.25240  1.0000
  H   H1823     1.0  0.91744  0.08588  0.27472  1.0000
  S   S460      1.0  0.77298  0.01056  0.30834  1.0000
  H   H1824     1.0  0.81700  0.01720  0.30822  1.0000
  H   H1825     1.0  0.81975  0.02988  0.40001  1.0000
  H   H1826     1.0  0.87418  0.10384  0.30354  1.0000
  C   C1151     1.0  0.70407  0.00380  0.28129  1.0000
  C   C1152     1.0  0.84062  0.08845  0.31032  1.0000
  S   S461      1.0  0.75267  0.01166  0.48163  1.0000
  H   H1827     1.0  0.84736  0.01825  0.44237  1.0000
  C   C1153     1.0  0.91308  0.14036  0.36263  1.0000
  H   H1828     1.0  0.84650  0.00490  0.40132  1.0000
  H   H1829     1.0  0.90270  0.08215  0.29637  1.0000
  H   H1830     1.0  0.93770  0.07874  0.31532  1.0000
  C   C1154     1.0  0.95343  0.05240  0.33880  1.0000
  H   H1831     1.0  0.89101  0.06425  0.44427  1.0000
  H   H1832     1.0  0.82901  0.13240  0.29071  1.0000
  H   H1833     1.0  0.81778  0.00263  0.42398  1.0000
  H   H1834     1.0  0.76858  0.01117  0.37821  1.0000
  Fe  Fe232     1.0  0.77702  0.01497  0.45941  1.0000
  S   S462      1.0  0.77604  0.02608  0.43042  1.0000
  H   H1835     1.0  0.95565  0.12147  0.34761  1.0000
  H   H1836     1.0  0.79509  0.01959  0.35877  1.0000
  Fe  Fe233     1.0  0.77785  0.01936  0.33056  1.0000
  S   S463      1.0  0.86387  0.10409  0.46550  1.0000
  Fe  Fe234     1.0  0.88230  0.07798  0.36024  1.0000
  S   S464      1.0  0.85933  0.10077  0.36711  1.0000
  S   S465      1.0  0.91117  0.08022  0.35368  1.0000
  Fe  Fe235     1.0  0.85755  0.05423  0.36238  1.0000
  S   S466      1.0  0.83266  0.07521  0.36876  1.0000
  S   S467      1.0  0.85250  0.02756  0.36394  1.0000
  Fe  Fe236     1.0  0.84766  0.09429  0.34765  1.0000
  Fe  Fe237     1.0  0.84683  0.07922  0.38755  1.0000
  S   S468      1.0  0.83258  0.07613  0.41653  1.0000
  S   S469      1.0  0.87157  0.07280  0.33950  1.0000
  S   S470      1.0  0.87094  0.05707  0.38230  1.0000
  S   S471      1.0  0.92469  0.10881  0.41363  1.0000
  S   S472      1.0  0.96052  0.08694  0.44185  1.0000
  C   C1155     1.0  0.98011  0.10711  0.35614  1.0000
  H   H1837     1.0  0.81938  0.05805  0.31673  1.0000
  Fe  Fe238     1.0  0.97891  0.06465  0.42945  1.0000
  S   S473      1.0  0.97875  0.03582  0.44178  1.0000
  Fe  Fe239     1.0  0.98374  0.10062  0.43044  1.0000
  H   H1838     1.0  0.84089  0.03867  0.25416  1.0000
  H   H1839     1.0  0.78121  0.06438  0.35599  1.0000
  H   H1840     1.0  0.90356  0.13171  0.37100  1.0000
  C   C1156     1.0  0.91493  0.08746  0.37082  1.0000
  C   C1157     1.0  0.90083  0.09114  0.38537  1.0000
  C   C1158     1.0  0.90371  0.09797  0.39848  1.0000
  C   C1159     1.0  0.92077  0.10077  0.39717  1.0000
  H   H1841     1.0  0.88770  0.08871  0.38664  1.0000
  H   H1842     1.0  0.89283  0.10083  0.40971  1.0000
  H   H1843     1.0  0.90019  0.08430  0.46773  1.0000
  C   C1160     1.0  0.85641  0.09508  0.45191  1.0000
  C   C1161     1.0  0.85782  0.10349  0.43382  1.0000
  C   C1162     1.0  0.85127  0.09721  0.42268  1.0000
  C   C1163     1.0  0.84288  0.08272  0.42973  1.0000
  C   C1164     1.0  0.84191  0.07394  0.44772  1.0000
  C   C1165     1.0  0.84888  0.07998  0.45878  1.0000
  H   H1844     1.0  0.86373  0.11513  0.42848  1.0000
  H   H1845     1.0  0.85208  0.10401  0.40881  1.0000
  H   H1846     1.0  0.83584  0.06243  0.45306  1.0000
  H   H1847     1.0  0.84819  0.07316  0.47263  1.0000
  C   C1166     1.0  0.80562  0.03927  0.33673  1.0000
  C   C1167     1.0  0.83433  0.04424  0.33732  1.0000
  C   C1168     1.0  0.83481  0.03137  0.35323  1.0000
  C   C1169     1.0  0.82075  0.02228  0.36086  1.0000
  C   C1170     1.0  0.80612  0.02631  0.35263  1.0000
  H   H1848     1.0  0.84557  0.05067  0.33120  1.0000
  S   S474      1.0  0.95552  0.08014  0.25653  1.0000
  S   S475      1.0  0.78699  0.03036  0.47273  1.0000
  C   C1171     1.0  0.77292  0.01751  0.40089  1.0000
  H   H1849     1.0  0.84294  0.08001  0.32290  1.0000
  H   H1850     1.0  0.77033  0.03178  0.39538  1.0000
  H   H1851     1.0  0.78433  0.08173  0.32447  1.0000
  H   H1852     1.0  0.75718  0.09930  0.36464  1.0000
  H   H1853     1.0  0.80229  0.06857  0.35622  1.0000
  N   N115      1.0  0.78291  0.09205  0.34712  1.0000
  H   H1854     1.0  0.80609  0.10000  0.34878  1.0000
  H   H1855     1.0  0.94661  0.08852  0.32770  1.0000
  H   H1856     1.0  0.93575  0.05727  0.46767  1.0000
  H   H1857     1.0  0.85856  0.00006  0.41880  1.0000
  H   H1858     1.0  0.92286  0.16840  0.33732  1.0000
  H   H1859     1.0  0.89282  0.15826  0.32733  1.0000
  C   C1172     1.0  0.81970  0.04826  0.32914  1.0000
  C   C1173     1.0  0.72820  0.00102  0.42921  1.0000
  N   N116      1.0  0.91429  0.06314  0.45380  1.0000
  C   C1174     1.0  0.99466  0.10479  0.32044  1.0000
  C   C1175     1.0  0.90899  0.08225  0.45457  1.0000
  C   C1176     1.0  0.92332  0.05273  0.46861  1.0000
  C   C1177     1.0  0.89794  0.05672  0.45541  1.0000
  H   H1860     1.0  0.72306  0.01345  0.43450  1.0000
  H   H1861     1.0  0.72114  0.00239  0.41849  1.0000
  H   H1862     1.0  0.86830  0.12405  0.28754  1.0000
  H   H1863     1.0  0.69149  0.00310  0.27889  1.0000
  S   S476      1.0  0.98883  0.11530  0.44821  1.0000
  C   C1178     1.0  0.92561  0.15566  0.33292  1.0000
  H   H1864     1.0  0.90129  0.09041  0.44417  1.0000
  C   C1179     1.0  0.96810  0.05347  0.30775  1.0000
  H   H1865     1.0  0.92759  0.03823  0.46844  1.0000
  H   H1866     1.0  0.84954  0.03780  0.42463  1.0000
  H   H1867     1.0  0.90130  0.04226  0.45523  1.0000
  H   H1868     1.0  0.69350  0.00238  0.30950  1.0000
  H   H1869     1.0  0.92851  0.06887  0.24697  1.0000
  S   S477      1.0  0.97031  0.07499  0.40352  1.0000
  H   H1870     1.0  0.75915  0.11206  0.34198  1.0000
  C   C1180     1.0  0.99798  0.09806  0.35122  1.0000
  C   C1181     1.0  0.73527  0.00631  0.27030  1.0000
  H   H1871     1.0  0.82098  0.01236  0.37326  1.0000
  Fe  Fe240     1.0  0.99273  0.08961  0.39494  1.0000
  C   C1182     1.0  0.83255  0.11801  0.29222  1.0000
  C   C1183     1.0  0.70521  0.00341  0.29861  1.0000
  H   H1872     1.0  0.92557  0.15899  0.31843  1.0000
  H   H1873     1.0  0.81699  0.02105  0.26063  1.0000
  S   S478      1.0  0.78754  0.04439  0.32617  1.0000
  C   C1184     1.0  0.77662  0.01087  0.41795  1.0000
  Fe  Fe241     1.0  0.95386  0.09862  0.41497  1.0000
  C   C1185     1.0  0.93483  0.09692  0.38275  1.0000
  H   H1874     1.0  0.94292  0.08771  0.35834  1.0000
  H   H1875     1.0  0.83055  0.00262  0.27346  1.0000
  H   H1876     1.0  0.79887  0.04180  0.28943  1.0000
  H   H1877     1.0  0.95682  0.08886  0.30467  1.0000
  C   C1186     1.0  0.93196  0.09032  0.36955  1.0000
  C   C1187     1.0  0.92686  0.06092  0.43656  1.0000
  S   S479      1.0  0.83559  0.11585  0.32638  1.0000
  S   S480      1.0  0.97548  0.11440  0.40433  1.0000
  H   H1878     1.0  0.91428  0.05408  0.48188  1.0000
  H   H1879     1.0  0.78700  0.10443  0.31906  1.0000
  H   H1880     1.0  0.93262  0.10622  0.47051  1.0000
  H   H1881     1.0  0.78254  0.07430  0.37305  1.0000
  C   C1188     1.0  0.91653  0.12800  0.33719  1.0000
  H   H1882     1.0  0.78812  0.11819  0.34280  1.0000
  H   H1883     1.0  0.93965  0.14844  0.33409  1.0000
  H   H1884     1.0  0.91695  0.13074  0.32266  1.0000
  C   C1189     1.0  0.77199  0.00583  0.39109  1.0000
  N   N117      1.0  0.91231  0.14471  0.34357  1.0000
  H   H1885     1.0  0.78619  0.10552  0.36553  1.0000
  H   H1886     1.0  0.97457  0.10841  0.36979  1.0000
  S   S481      1.0  0.75290  0.01257  0.35012  1.0000
  C   C1190     1.0  0.96944  0.11471  0.34343  1.0000
  H   H1887     1.0  0.94783  0.09948  0.38154  1.0000
  C   C1191     1.0  0.79008  0.09110  0.32814  1.0000
  C   C1192     1.0  0.78742  0.07407  0.35861  1.0000
  N   N118      1.0  0.83444  0.02093  0.42103  1.0000
  S   S482      1.0  0.72264  0.00250  0.32401  1.0000
  C   C1193     1.0  0.79111  0.10450  0.35129  1.0000
  H   H1888     1.0  0.90959  0.15261  0.36806  1.0000
  H   H1889     1.0  0.75654  0.08937  0.34727  1.0000
  H   H1890     1.0  0.92684  0.13306  0.36469  1.0000
  H   H1891     1.0  0.81065  0.01577  0.44058  1.0000
  C   C1194     1.0  0.89393  0.15483  0.34154  1.0000
  C   C1195     1.0  0.83607  0.10692  0.30847  1.0000
  C   C1196     1.0  0.76305  0.09851  0.35041  1.0000
  H   H1892     1.0  0.80501  0.08633  0.32523  1.0000
  H   H1893     1.0  0.89027  0.16756  0.34620  1.0000
  H   H1894     1.0  0.90638  0.11971  0.34446  1.0000
  C   C1197     1.0  0.99547  0.10692  0.48190  1.0000
  H   H1895     1.0  0.83259  0.04498  0.40057  1.0000
  C   C1198     1.0  0.99522  0.10048  0.46736  1.0000
  H   H1896     1.0  0.82847  0.03691  0.44047  1.0000
  H   H1897     1.0  0.80472  0.06733  0.47102  1.0000
  H   H1898     1.0  0.74681  0.00786  0.25940  1.0000
  H   H1899     1.0  0.74907  0.00622  0.29007  1.0000
  H   H1900     1.0  0.99245  0.12119  0.48104  1.0000
  N   N119      1.0  0.96276  0.06318  0.32237  1.0000
  H   H1901     1.0  0.97545  0.07366  0.33662  1.0000
  H   H1902     1.0  0.74272  0.00039  0.42280  1.0000
  H   H1903     1.0  0.96220  0.03905  0.34284  1.0000
  C   C1199     1.0  0.92976  0.08194  0.23870  1.0000
  C   C1200     1.0  0.97903  0.06625  0.32573  1.0000
  C   C1201     1.0  0.92598  0.10600  0.48481  1.0000
  Fe  Fe242     1.0  0.97743  0.13666  0.24224  1.0000
  H   H1904     1.0  0.91506  0.11833  0.48535  1.0000
  H   H1905     1.0  0.73046  0.99576  0.46327  1.0000
  C   C1202     1.0  0.80380  0.06458  0.48565  1.0000
  S   S483      1.0  0.83126  0.00251  0.48393  1.0000
  C   C1203     1.0  0.78009  0.99238  0.42492  1.0000
  Fe  Fe243     1.0  0.80240  0.00377  0.48471  1.0000
  H   H1906     1.0  0.70032  0.99824  0.45755  1.0000
  H   H1907     1.0  0.81597  0.04650  0.23751  1.0000
  H   H1908     1.0  0.98867  0.05345  0.32961  1.0000
  S   S484      1.0  0.79657  0.99359  0.33966  1.0000
  H   H1909     1.0  0.79897  0.99326  0.24559  1.0000
  H   H1910     1.0  0.97755  0.04035  0.31102  1.0000
  H   H1911     1.0  0.98643  0.07435  0.31366  1.0000
  C   C1204     1.0  0.94266  0.09018  0.24012  1.0000
  C   C1205     1.0  0.99914  0.02543  0.44858  1.0000
  H   H1912     1.0  0.99907  0.07716  0.45731  1.0000
  C   C1206     1.0  0.68074  0.99091  0.24127  1.0000
  C   C1207     1.0  0.99931  0.08208  0.46845  1.0000
  H   H1913     1.0  0.86015  0.01215  0.49214  1.0000
  Fe  Fe244     1.0  0.76444  0.02445  0.49615  1.0000
  S   S485      1.0  0.74882  0.04754  0.50907  1.0000
  C   C1208     1.0  0.96032  0.12097  0.73174  1.0000
  C   C1209     1.0  0.92976  0.10520  0.51402  1.0000
  Fe  Fe245     1.0  0.84863  0.06435  0.52760  1.0000
  S   S486      1.0  0.83632  0.09264  0.51597  1.0000
  S   S487      1.0  0.83021  0.04533  0.53954  1.0000
  Fe  Fe246     1.0  0.88554  0.07169  0.52082  1.0000
  S   S488      1.0  0.87647  0.10076  0.50904  1.0000
  S   S489      1.0  0.91520  0.06045  0.51913  1.0000
  Fe  Fe247     1.0  0.85206  0.09952  0.53153  1.0000
  Fe  Fe248     1.0  0.86168  0.09122  0.49460  1.0000
  S   S490      1.0  0.86241  0.07121  0.54489  1.0000
  S   S491      1.0  0.87261  0.06216  0.50466  1.0000
  Fe  Fe249     1.0  0.96903  0.06944  0.57584  1.0000
  S   S492      1.0  0.97455  0.09027  0.55088  1.0000
  S   S493      1.0  0.94100  0.06459  0.58541  1.0000
  C   C1210     1.0  0.93010  0.10817  0.58708  1.0000
  Fe  Fe250     1.0  0.76914  0.03357  0.60202  1.0000
  S   S494      1.0  0.76621  0.05638  0.57833  1.0000
  S   S495      1.0  0.79526  0.01875  0.61014  1.0000
  H   H1914     1.0  0.90380  0.13781  0.58368  1.0000
  C   C1211     1.0  0.91171  0.01433  0.62797  1.0000
  C   C1212     1.0  0.93909  0.13460  0.56732  1.0000
  H   H1915     1.0  0.72685  0.03950  0.61296  1.0000
  C   C1213     1.0  0.91323  0.13731  0.59198  1.0000
  H   H1916     1.0  0.79612  0.05382  0.49206  1.0000
  H   H1917     1.0  0.98310  0.05691  0.64458  1.0000
  S   S496      1.0  0.77000  0.00123  0.64848  1.0000
  C   C1214     1.0  0.99325  0.12788  0.61313  1.0000
  C   C1215     1.0  0.91987  0.04202  0.62538  1.0000
  C   C1216     1.0  0.70367  0.06351  0.63076  1.0000
  S   S497      1.0  0.99326  0.04870  0.56742  1.0000
  H   H1918     1.0  0.83915  0.13580  0.64113  1.0000
  C   C1217     1.0  0.94335  0.12589  0.59764  1.0000
  H   H1919     1.0  0.93152  0.02815  0.59626  1.0000
  H   H1920     1.0  0.94292  0.99968  0.63903  1.0000
  H   H1921     1.0  0.92473  0.27864  0.71730  1.0000
  C   C1218     1.0  0.83129  0.01464  0.49907  1.0000
  H   H1922     1.0  0.81721  0.16088  0.67741  1.0000
  N   N120      1.0  0.70678  0.06397  0.61150  1.0000
  H   H1923     1.0  0.86334  0.09872  0.56651  1.0000
  Fe  Fe251     1.0  0.99706  0.13793  0.69259  1.0000
  C   C1219     1.0  0.92214  0.06048  0.53815  1.0000
  C   C1220     1.0  0.90949  0.06565  0.55303  1.0000
  C   C1221     1.0  0.91530  0.06653  0.56775  1.0000
  C   C1222     1.0  0.93378  0.06276  0.56735  1.0000
  C   C1223     1.0  0.94645  0.05776  0.55243  1.0000
  C   C1224     1.0  0.94062  0.05637  0.53795  1.0000
  H   H1924     1.0  0.89525  0.06907  0.55322  1.0000
  H   H1925     1.0  0.90547  0.07051  0.57925  1.0000
  H   H1926     1.0  0.96076  0.05477  0.55207  1.0000
  H   H1927     1.0  0.95049  0.05228  0.52653  1.0000
  H   H1928     1.0  0.85577  0.24848  0.72765  1.0000
  C   C1225     1.0  0.93891  0.02132  0.60720  1.0000
  Fe  Fe252     1.0  0.74599  0.01741  0.63712  1.0000
  N   N121      1.0  0.83915  0.15512  0.65527  1.0000
  C   C1226     1.0  0.75356  0.04892  0.52882  1.0000
  C   C1227     1.0  0.74855  0.06564  0.53330  1.0000
  C   C1228     1.0  0.75261  0.06765  0.54848  1.0000
  C   C1229     1.0  0.76111  0.05284  0.55973  1.0000
  C   C1230     1.0  0.76568  0.03592  0.55566  1.0000
  C   C1231     1.0  0.76216  0.03400  0.54001  1.0000
  H   H1929     1.0  0.74174  0.07716  0.52483  1.0000
  H   H1930     1.0  0.74905  0.08074  0.55157  1.0000
  H   H1931     1.0  0.77215  0.02443  0.56439  1.0000
  H   H1932     1.0  0.76577  0.02101  0.53676  1.0000
  H   H1933     1.0  0.92209  0.09443  0.51985  1.0000
  C   C1232     1.0  0.81497  0.02147  0.50992  1.0000
  C   C1233     1.0  0.81480  0.03062  0.52254  1.0000
  C   C1234     1.0  0.83090  0.03359  0.52388  1.0000
  C   C1235     1.0  0.84727  0.02711  0.51282  1.0000
  H   H1934     1.0  0.94640  0.28356  0.73261  1.0000
  H   H1935     1.0  0.93667  0.10659  0.72499  1.0000
  H   H1936     1.0  0.80216  0.03557  0.53114  1.0000
  H   H1937     1.0  0.85981  0.02905  0.51412  1.0000
  C   C1236     1.0  0.87546  0.29300  0.71461  1.0000
  H   H1938     1.0  0.90709  0.13152  0.60600  1.0000
  S   S498      1.0  0.75655  0.00983  0.61045  1.0000
  C   C1237     1.0  0.79993  0.07102  0.60728  1.0000
  H   H1939     1.0  0.78761  0.08127  0.60450  1.0000
  H   H1940     1.0  0.79614  0.05778  0.61195  1.0000
  H   H1941     1.0  0.82380  0.09234  0.59628  1.0000
  H   H1942     1.0  0.99612  0.03514  0.65278  1.0000
  H   H1943     1.0  0.71674  0.04535  0.59408  1.0000
  H   H1944     1.0  0.84119  0.15722  0.58440  1.0000
  H   H1945     1.0  0.95233  0.12615  0.56210  1.0000
  S   S499      1.0  0.98238  0.07893  0.59171  1.0000
  H   H1946     1.0  0.94339  0.12329  0.70589  1.0000
  H   H1947     1.0  0.95684  0.11698  0.59411  1.0000
  Fe  Fe253     1.0  0.90879  0.08675  0.63862  1.0000
  S   S500      1.0  0.89169  0.11335  0.64267  1.0000
  H   H1948     1.0  0.83764  0.14686  0.68354  1.0000
  H   H1949     1.0  0.71831  0.99487  0.69742  1.0000
  C   C1238     1.0  0.88276  0.27880  0.70582  1.0000
  H   H1950     1.0  0.90327  0.02112  0.61786  1.0000
  H   H1951     1.0  0.94400  0.15536  0.73152  1.0000
  H   H1952     1.0  0.92113  0.10786  0.57868  1.0000
  H   H1953     1.0  0.94781  0.15137  0.70962  1.0000
  H   H1954     1.0  0.93961  0.19761  0.63480  1.0000
  H   H1955     1.0  0.94889  0.02046  0.63698  1.0000
  H   H1956     1.0  0.83100  0.08966  0.57365  1.0000
  S   S501      1.0  0.93878  0.08380  0.63222  1.0000
  S   S502      1.0  0.75646  0.04238  0.62773  1.0000
  S   S503      1.0  0.86538  0.13506  0.60634  1.0000
  H   H1957     1.0  0.94387  0.26422  0.70618  1.0000
  H   H1958     1.0  0.94153  0.14801  0.56611  1.0000
  H   H1959     1.0  0.91221  0.04909  0.61471  1.0000
  C   C1239     1.0  0.81960  0.08908  0.58559  1.0000
  H   H1960     1.0  0.71639  0.05771  0.63573  1.0000
  C   C1240     1.0  0.95834  0.09695  0.64676  1.0000
  C   C1241     1.0  0.84177  0.24620  0.73240  1.0000
  H   H1961     1.0  0.80365  0.07357  0.61866  1.0000
  H   H1962     1.0  0.79705  0.07748  0.57341  1.0000
  H   H1963     1.0  0.96476  0.26780  0.72222  1.0000
  H   H1964     1.0  0.80756  0.07148  0.51534  1.0000
  C   C1242     1.0  0.79385  0.07644  0.51231  1.0000
  Fe  Fe254     1.0  0.78151  0.99536  0.62101  1.0000
  H   H1965     1.0  0.92082  0.12728  0.71914  1.0000
  H   H1966     1.0  0.67933  0.06339  0.61314  1.0000
  N   N122      1.0  0.81497  0.07131  0.59132  1.0000
  H   H1967     1.0  0.80799  0.09991  0.58190  1.0000
  N   N123      1.0  0.79483  0.08080  0.49287  1.0000
  H   H1968     1.0  0.96801  0.19450  0.66615  1.0000
  H   H1969     1.0  0.79765  0.00212  0.54250  1.0000
  H   H1970     1.0  0.92523  0.15546  0.72291  1.0000
  C   C1243     1.0  0.80945  0.06767  0.57670  1.0000
  H   H1971     1.0  0.83564  0.05999  0.60653  1.0000
  H   H1972     1.0  0.94443  0.00712  0.60620  1.0000
  N   N124      1.0  0.92698  0.02292  0.62488  1.0000
  C   C1244     1.0  0.83095  0.05746  0.59572  1.0000
  H   H1973     1.0  0.98143  0.16199  0.57048  1.0000
  H   H1974     1.0  0.94362  0.09973  0.58268  1.0000
  H   H1975     1.0  0.99736  0.08295  0.63334  1.0000
  H   H1976     1.0  0.82027  0.06835  0.56429  1.0000
  H   H1977     1.0  0.80645  0.05412  0.58027  1.0000
  H   H1978     1.0  0.67417  0.02975  0.70637  1.0000
  H   H1979     1.0  0.94566  0.13933  0.59647  1.0000
  C   C1245     1.0  0.93735  0.01414  0.63897  1.0000
  H   H1980     1.0  0.84248  0.05707  0.58391  1.0000
  H   H1981     1.0  0.82786  0.04391  0.60041  1.0000
  C   C1246     1.0  0.95309  0.26912  0.73379  1.0000
  H   H1982     1.0  0.69823  0.07710  0.63364  1.0000
  H   H1983     1.0  0.69394  0.05500  0.63899  1.0000
  H   H1984     1.0  0.96062  0.23724  0.72435  1.0000
  H   H1985     1.0  0.78705  0.08830  0.51831  1.0000
  H   H1986     1.0  0.95055  0.02773  0.60444  1.0000
  C   C1247     1.0  0.81334  0.04223  0.64733  1.0000
  S   S504      1.0  0.85660  0.09627  0.64800  1.0000
  Fe  Fe255     1.0  0.87546  0.11020  0.62545  1.0000
  S   S505      1.0  0.89434  0.08516  0.61890  1.0000
  C   C1248     1.0  0.93949  0.14876  0.72344  1.0000
  H   H1987     1.0  0.92999  0.13606  0.55836  1.0000
  H   H1988     1.0  0.91647  0.99998  0.62733  1.0000
  S   S506      1.0  0.83713  0.12186  0.54556  1.0000
  H   H1989     1.0  0.87389  0.10375  0.59088  1.0000
  H   H1990     1.0  0.93759  0.12051  0.61194  1.0000
  C   C1249     1.0  0.85844  0.11143  0.57047  1.0000
  C   C1250     1.0  0.88785  0.26138  0.71553  1.0000
  H   H1991     1.0  0.83924  0.12711  0.66445  1.0000
  H   H1992     1.0  0.80240  0.01985  0.50857  1.0000
  N   N125      1.0  0.93143  0.12653  0.58601  1.0000
  Fe  Fe256     1.0  0.78159  0.02582  0.63671  1.0000
  C   C1251     1.0  0.82745  0.03024  0.63885  1.0000
  C   C1252     1.0  0.71396  0.04560  0.60847  1.0000
  C   C1253     1.0  0.68952  0.07158  0.60560  1.0000
  C   C1254     1.0  0.84600  0.14441  0.58062  1.0000
  C   C1255     1.0  0.86439  0.11428  0.58429  1.0000
  H   H1993     1.0  0.83003  0.15191  0.56075  1.0000
  H   H1994     1.0  0.90253  0.01514  0.64129  1.0000
  C   C1256     1.0  0.80493  0.99400  0.57479  1.0000
  H   H1995     1.0  0.91372  0.15129  0.59127  1.0000
  C   C1257     1.0  0.85818  0.13083  0.58931  1.0000
  C   C1258     1.0  0.84594  0.12500  0.56205  1.0000
  H   H1996     1.0  0.96306  0.08646  0.50268  1.0000
  C   C1259     1.0  0.84748  0.01746  0.50050  1.0000
  C   C1260     1.0  0.72000  0.07511  0.60116  1.0000
  H   H1997     1.0  0.82450  0.01985  0.63457  1.0000
  H   H1998     1.0  0.92477  0.10148  0.60101  1.0000
  C   C1261     1.0  0.99676  0.16468  0.72025  1.0000
  H   H1999     1.0  0.81776  0.05918  0.48801  1.0000
  C   C1262     1.0  0.83970  0.14142  0.56722  1.0000
  C   C1263     1.0  0.99691  0.04802  0.64293  1.0000
  H   H2000     1.0  0.99123  0.06867  0.66593  1.0000
  H   H2001     1.0  0.85640  0.02198  0.63006  1.0000
  H   H2002     1.0  0.73312  0.06981  0.60543  1.0000
  H   H2003     1.0  0.91049  0.04377  0.63837  1.0000
  H   H2004     1.0  0.93091  0.04904  0.62331  1.0000
  H   H2005     1.0  0.83508  0.25168  0.72086  1.0000
  H   H2006     1.0  0.96328  0.18735  0.63226  1.0000
  H   H2007     1.0  0.95469  0.20810  0.63948  1.0000
  H   H2008     1.0  0.82251  0.28025  0.73132  1.0000
  H   H2009     1.0  0.71499  0.08914  0.60289  1.0000
  C   C1264     1.0  0.99002  0.14630  0.61217  1.0000
  H   H2010     1.0  0.98315  0.17270  0.59598  1.0000
  Fe  Fe257     1.0  0.87683  0.07108  0.64296  1.0000
  H   H2011     1.0  0.93524  0.20868  0.67002  1.0000
  C   C1265     1.0  0.84548  0.03144  0.63636  1.0000
  H   H2012     1.0  0.93947  0.10320  0.52255  1.0000
  C   C1266     1.0  0.94558  0.08664  0.65011  1.0000
  H   H2013     1.0  0.96344  0.10368  0.63323  1.0000
  C   C1267     1.0  0.99228  0.12176  0.59854  1.0000
  C   C1268     1.0  0.93287  0.26465  0.71843  1.0000
  C   C1269     1.0  0.83222  0.15853  0.67350  1.0000
  H   H2014     1.0  0.81892  0.14069  0.65782  1.0000
  H   H2015     1.0  0.81647  0.17311  0.64526  1.0000
  S   S507      1.0  0.71674  0.01818  0.65088  1.0000
  C   C1270     1.0  0.84938  0.04479  0.64207  1.0000
  C   C1271     1.0  0.83387  0.13899  0.65462  1.0000
  H   H2016     1.0  0.97420  0.10674  0.65822  1.0000
  S   S508      1.0  0.87202  0.04599  0.63895  1.0000
  C   C1272     1.0  0.83523  0.05690  0.65029  1.0000
  Fe  Fe258     1.0  0.99016  0.09815  0.56596  1.0000
  H   H2017     1.0  0.87076  0.30635  0.70719  1.0000
  H   H2018     1.0  0.80440  0.00838  0.56819  1.0000
  C   C1273     1.0  0.83150  0.17058  0.64226  1.0000
  H   H2019     1.0  0.73607  0.03076  0.66913  1.0000
  H   H2020     1.0  0.72306  0.07534  0.58662  1.0000
  S   S509      1.0  0.86224  0.10911  0.68986  1.0000
  H   H2021     1.0  0.89932  0.11322  0.67518  1.0000
  Fe  Fe259     1.0  0.87431  0.09771  0.66509  1.0000
  H   H2022     1.0  0.92996  0.18823  0.68439  1.0000
  C   C1274     1.0  0.96453  0.18177  0.66663  1.0000
  C   C1275     1.0  0.94548  0.07933  0.68172  1.0000
  C   C1276     1.0  0.69274  0.02519  0.68160  1.0000
  C   C1277     1.0  0.71025  0.02532  0.67111  1.0000
  C   C1278     1.0  0.72252  0.03062  0.67712  1.0000
  Fe  Fe260     1.0  0.89280  0.17972  0.71696  1.0000
  H   H2023     1.0  0.72699  0.03946  0.69838  1.0000
  H   H2024     1.0  0.80639  0.06474  0.65970  1.0000
  C   C1279     1.0  0.68767  0.02992  0.69829  1.0000
  H   H2025     1.0  0.70446  0.03670  0.61615  1.0000
  S   S510      1.0  0.69450  0.04005  0.72564  1.0000
  C   C1280     1.0  0.71738  0.03552  0.69371  1.0000
  H   H2026     1.0  0.83656  0.16821  0.62841  1.0000
  H   H2027     1.0  0.97655  0.17382  0.65886  1.0000
  S   S511      1.0  0.89281  0.07092  0.66243  1.0000
  C   C1281     1.0  0.90145  0.13519  0.68455  1.0000
  H   H2028     1.0  0.86525  0.14064  0.66017  1.0000
  S   S512      1.0  0.90445  0.16321  0.69595  1.0000
  N   N126      1.0  0.94825  0.18504  0.65946  1.0000
  C   C1282     1.0  0.86616  0.13495  0.70428  1.0000
  H   H2029     1.0  0.85247  0.13492  0.71190  1.0000
  H   H2030     1.0  0.91983  0.11808  0.51511  1.0000
  C   C1283     1.0  0.89288  0.14748  0.69552  1.0000
  C   C1284     1.0  0.87458  0.12297  0.69291  1.0000
  C   C1285     1.0  0.87529  0.14719  0.70560  1.0000
  H   H2031     1.0  0.82983  0.99884  0.54459  1.0000
  C   C1286     1.0  0.89239  0.12289  0.68336  1.0000
  C   C1287     1.0  0.93273  0.19558  0.67022  1.0000
  C   C1288     1.0  0.98845  0.17765  0.73053  1.0000
  H   H2032     1.0  0.68366  0.08543  0.60774  1.0000
  H   H2033     1.0  0.78617  0.06579  0.51940  1.0000
  H   H2034     1.0  0.69141  0.07208  0.59114  1.0000
  H   H2035     1.0  0.86865  0.15655  0.71421  1.0000
  N   N127      1.0  0.94123  0.12941  0.73110  1.0000
  H   H2036     1.0  0.91519  0.13509  0.67697  1.0000
  S   S513      1.0  0.87078  0.20462  0.71611  1.0000
  S   S514      1.0  0.78053  0.99870  0.50930  1.0000
  S   S515      1.0  0.98648  0.12743  0.56448  1.0000
  H   H2037     1.0  0.94076  0.07219  0.69517  1.0000
  H   H2038     1.0  0.92892  0.07022  0.67027  1.0000
  C   C1289     1.0  0.70004  0.03494  0.70444  1.0000
  S   S516      1.0  0.91289  0.19319  0.71979  1.0000
  H   H2039     1.0  0.95539  0.15957  0.65209  1.0000
  S   S517      1.0  0.96860  0.08881  0.69553  1.0000
  C   C1290     1.0  0.94415  0.16779  0.66036  1.0000
  Fe  Fe261     1.0  0.98902  0.10590  0.68512  1.0000
  C   C1291     1.0  0.95853  0.08934  0.67834  1.0000
  Fe  Fe262     1.0  0.89034  0.21718  0.72135  1.0000
  C   C1292     1.0  0.93881  0.07818  0.66763  1.0000
  S   S518      1.0  0.97737  0.13505  0.67876  1.0000
  S   S519      1.0  0.99125  0.15490  0.62972  1.0000
  S   S520      1.0  0.98339  0.15744  0.71051  1.0000
  C   C1293     1.0  0.81728  0.05553  0.65301  1.0000
  H   H2040     1.0  0.86479  0.14958  0.63702  1.0000
  C   C1294     1.0  0.85907  0.15227  0.65068  1.0000
  N   N128      1.0  0.93919  0.10487  0.49527  1.0000
  H   H2041     1.0  0.88385  0.28125  0.69157  1.0000
  C   C1295     1.0  0.96449  0.09863  0.66092  1.0000
  S   S521      1.0  0.89533  0.24369  0.70443  1.0000
  H   H2042     1.0  0.94188  0.15976  0.67431  1.0000
  H   H2043     1.0  0.68317  0.02118  0.67696  1.0000
  H   H2044     1.0  0.93799  0.13321  0.48776  1.0000
  H   H2045     1.0  0.83527  0.18299  0.64231  1.0000
  H   H2046     1.0  0.83809  0.06703  0.65497  1.0000
  H   H2047     1.0  0.92869  0.01526  0.65244  1.0000
  H   H2048     1.0  0.83627  0.17036  0.67466  1.0000
  C   C1296     1.0  0.95156  0.19501  0.64067  1.0000
  H   H2049     1.0  0.92013  0.19819  0.66535  1.0000
  H   H2050     1.0  0.86360  0.16408  0.65119  1.0000
  H   H2051     1.0  0.93166  0.16978  0.65552  1.0000
  C   C1297     1.0  0.98559  0.15848  0.59683  1.0000
  S   S522      1.0  0.79060  0.04117  0.65111  1.0000
  C   C1298     1.0  0.98464  0.15242  0.58237  1.0000
  H   H2052     1.0  0.96257  0.17431  0.68082  1.0000
  H   H2053     1.0  0.92394  0.25610  0.71834  1.0000
  H   H2054     1.0  0.96919  0.12286  0.71816  1.0000
  C   C1299     1.0  0.98808  0.13410  0.58309  1.0000
  H   H2055     1.0  0.95808  0.11975  0.49518  1.0000
  H   H2056     1.0  0.99497  0.10759  0.59917  1.0000
  C   C1300     1.0  0.87371  0.28988  0.73305  1.0000
  H   H2057     1.0  0.94685  0.07615  0.49986  1.0000
  H   H2058     1.0  0.99659  0.11842  0.62498  1.0000
  H   H2059     1.0  0.76826  0.07679  0.49571  1.0000
  H   H2060     1.0  0.68562  0.99459  0.71083  1.0000
  H   H2061     1.0  0.79114  0.99274  0.58280  1.0000
  C   C1301     1.0  0.77635  0.08726  0.48952  1.0000
  C   C1302     1.0  0.95305  0.08803  0.49460  1.0000
  S   S523      1.0  0.90896  0.31836  0.73587  1.0000
  H   H2062     1.0  0.76893  0.09925  0.49514  1.0000
  C   C1303     1.0  0.94800  0.12025  0.48761  1.0000
  H   H2063     1.0  0.70396  0.00087  0.72763  1.0000
  H   H2064     1.0  0.97401  0.18302  0.73237  1.0000
  C   C1304     1.0  0.93523  0.12128  0.71985  1.0000
  H   H2065     1.0  0.91941  0.09434  0.49004  1.0000
  H   H2066     1.0  0.98971  0.30944  0.72798  1.0000
  C   C1305     1.0  0.88651  0.25828  0.73392  1.0000
  N   N129      1.0  0.94020  0.25837  0.73477  1.0000
  H   H2067     1.0  0.79867  0.10743  0.48879  1.0000
  H   H2068     1.0  0.84288  0.23147  0.73607  1.0000
  H   H2069     1.0  0.81912  0.09056  0.48670  1.0000
  C   C1306     1.0  0.94963  0.23934  0.73632  1.0000
  C   C1307     1.0  0.72369  0.14304  0.91709  1.0000
  C   C1308     1.0  0.78265  0.18665  0.93715  1.0000
  C   C1309     1.0  0.73981  0.12141  0.93846  1.0000
  C   C1310     1.0  0.71701  0.23810  0.94316  1.0000
  H   H2070     1.0  0.96126  0.26969  0.83252  1.0000
  H   H2071     1.0  0.72719  0.24502  0.93320  1.0000
  S   S524      1.0  0.69039  0.12531  0.95579  1.0000
  H   H2072     1.0  0.85914  0.19374  0.78380  1.0000
  C   C1311     1.0  0.92408  0.21517  0.78083  1.0000
  H   H2073     1.0  0.78941  0.13549  0.84092  1.0000
  N   N130      1.0  0.80646  0.15327  0.82405  1.0000
  H   H2074     1.0  0.91725  0.27443  0.74942  1.0000
  H   H2075     1.0  0.82675  0.16881  0.81197  1.0000
  H   H2076     1.0  0.71606  0.15110  0.92729  1.0000
  S   S525      1.0  0.94943  0.22955  0.78577  1.0000
  H   H2077     1.0  0.70025  0.07258  0.83674  1.0000
  C   C1312     1.0  0.84213  0.19990  0.80856  1.0000
  H   H2078     1.0  0.91535  0.13299  0.74935  1.0000
  Fe  Fe263     1.0  0.67248  0.02885  0.74704  1.0000
  C   C1313     1.0  0.95496  0.19809  0.77536  1.0000
  C   C1314     1.0  0.81115  0.14474  0.80865  1.0000
  H   H2079     1.0  0.71383  0.21158  0.91790  1.0000
  H   H2080     1.0  0.79837  0.28211  0.86875  1.0000
  H   H2081     1.0  0.70645  0.09786  0.90261  1.0000
  S   S526      1.0  0.71272  0.16083  0.96183  1.0000
  H   H2082     1.0  0.82320  0.28085  0.75348  1.0000
  C   C1315     1.0  0.91839  0.20243  0.77593  1.0000
  C   C1316     1.0  0.80597  0.26522  0.96181  1.0000
  S   S527      1.0  0.83466  0.19865  0.76078  1.0000
  H   H2083     1.0  0.72342  0.18515  0.86697  1.0000
  C   C1317     1.0  0.80989  0.27322  0.83670  1.0000
  Fe  Fe264     1.0  0.76308  0.18273  0.86717  1.0000
  H   H2084     1.0  0.93093  0.11230  0.75571  1.0000
  C   C1318     1.0  0.69940  0.15438  0.87023  1.0000
  H   H2085     1.0  0.74496  0.04084  0.83322  1.0000
  C   C1319     1.0  0.81050  0.24890  0.86265  1.0000
  S   S528      1.0  0.68142  0.00804  0.77022  1.0000
  H   H2086     1.0  0.81890  0.16676  0.83565  1.0000
  Fe  Fe265     1.0  0.97937  0.22718  0.77658  1.0000
  C   C1320     1.0  0.67862  0.06356  0.95590  1.0000
  C   C1321     1.0  0.82438  0.20454  0.81827  1.0000
  C   C1322     1.0  0.79688  0.20986  0.93737  1.0000
  C   C1323     1.0  0.79200  0.20624  0.95606  1.0000
  Fe  Fe266     1.0  0.90262  0.18452  0.74911  1.0000
  C   C1324     1.0  0.94238  0.21304  0.78048  1.0000
  S   S529      1.0  0.75773  0.15946  0.86049  1.0000
  S   S530      1.0  0.82067  0.20609  0.84058  1.0000
  S   S531      1.0  0.67509  0.09828  0.81973  1.0000
  H   H2087     1.0  0.73283  0.12916  0.94901  1.0000
  H   H2088     1.0  0.79796  0.14625  0.85263  1.0000
  H   H2089     1.0  0.97223  0.22769  0.81585  1.0000
  H   H2090     1.0  0.96910  0.19641  0.77495  1.0000
  H   H2091     1.0  0.79953  0.13994  0.80777  1.0000
  S   S532      1.0  0.74813  0.19485  0.89077  1.0000
  H   H2092     1.0  0.80435  0.22014  0.93022  1.0000
  H   H2093     1.0  0.97711  0.25717  0.81710  1.0000
  C   C1325     1.0  0.79199  0.20021  0.92791  1.0000
  H   H2094     1.0  0.71123  0.12685  0.86902  1.0000
  H   H2095     1.0  0.68982  0.22091  0.95283  1.0000
  H   H2096     1.0  0.66735  0.07079  0.92542  1.0000
  H   H2097     1.0  0.81498  0.15430  0.79581  1.0000
  H   H2098     1.0  0.70354  0.24738  0.94306  1.0000
  H   H2099     1.0  0.72474  0.15239  0.90377  1.0000
  Fe  Fe267     1.0  0.67386  0.10115  0.84745  1.0000
  H   H2100     1.0  0.70343  0.02479  0.85944  1.0000
  C   C1326     1.0  0.72189  0.07484  0.94018  1.0000
  S   S533      1.0  0.79741  0.21874  0.96786  1.0000
  H   H2101     1.0  0.82279  0.13305  0.80966  1.0000
  H   H2102     1.0  0.80259  0.24216  0.87535  1.0000
  C   C1327     1.0  0.71379  0.13961  0.86836  1.0000
  C   C1328     1.0  0.84540  0.19784  0.79097  1.0000
  H   H2103     1.0  0.89079  0.24488  0.74140  1.0000
  H   H2104     1.0  0.96534  0.12701  0.73990  1.0000
  C   C1329     1.0  0.82219  0.15950  0.82468  1.0000
  H   H2105     1.0  0.83392  0.14817  0.82684  1.0000
  C   C1330     1.0  0.80148  0.14020  0.84077  1.0000
  S   S534      1.0  0.72258  0.07701  0.96123  1.0000
  H   H2106     1.0  0.81273  0.12828  0.84267  1.0000
  H   H2107     1.0  0.83396  0.25287  0.77437  1.0000
  C   C1331     1.0  0.79099  0.16868  0.82208  1.0000
  C   C1332     1.0  0.72078  0.17243  0.86741  1.0000
  H   H2108     1.0  0.77865  0.16439  0.82227  1.0000
  H   H2109     1.0  0.79399  0.17855  0.80933  1.0000
  H   H2110     1.0  0.67654  0.04971  0.96179  1.0000
  C   C1333     1.0  0.73515  0.15780  0.86472  1.0000
  H   H2111     1.0  0.74268  0.12997  0.86346  1.0000
  H   H2112     1.0  0.80969  0.26734  0.92681  1.0000
  H   H2113     1.0  0.95894  0.17350  0.76705  1.0000
  C   C1334     1.0  0.73162  0.14137  0.86537  1.0000
  C   C1335     1.0  0.70290  0.17073  0.87005  1.0000
  H   H2114     1.0  0.78742  0.17577  0.83318  1.0000
  S   S535      1.0  0.88412  0.16912  0.74641  1.0000
  C   C1336     1.0  0.81319  0.20581  0.79245  1.0000
  C   C1337     1.0  0.83093  0.20080  0.78289  1.0000
  H   H2115     1.0  0.80196  0.20827  0.78620  1.0000
  C   C1338     1.0  0.94919  0.18512  0.77089  1.0000
  H   H2116     1.0  0.79590  0.20294  0.91353  1.0000
  S   S536      1.0  0.78993  0.17457  0.87478  1.0000
  C   C1339     1.0  0.80991  0.20759  0.81015  1.0000
  H   H2117     1.0  0.79621  0.21149  0.81739  1.0000
  H   H2118     1.0  0.70310  0.04268  0.86924  1.0000
  H   H2119     1.0  0.69179  0.18217  0.87160  1.0000
  C   C1340     1.0  0.93093  0.18734  0.77103  1.0000
  Fe  Fe268     1.0  0.79400  0.20150  0.85844  1.0000
  H   H2120     1.0  0.85339  0.19750  0.81478  1.0000
  H   H2121     1.0  0.91431  0.22669  0.78484  1.0000
  C   C1341     1.0  0.71368  0.04183  0.82514  1.0000
  S   S537      1.0  0.71547  0.06584  0.88853  1.0000
  C   C1342     1.0  0.81338  0.25067  0.75382  1.0000
  H   H2122     1.0  0.93621  0.26912  0.81905  1.0000
  H   H2123     1.0  0.75558  0.23670  0.90284  1.0000
  H   H2124     1.0  0.70361  0.19937  0.95012  1.0000
  Fe  Fe269     1.0  0.77538  0.18836  0.89722  1.0000
  S   S538      1.0  0.77592  0.17473  0.92568  1.0000
  C   C1343     1.0  0.77832  0.18269  0.95583  1.0000
  S   S539      1.0  0.92392  0.17129  0.76496  1.0000
  H   H2125     1.0  0.74548  0.15494  0.92920  1.0000
  H   H2126     1.0  0.77167  0.17182  0.96305  1.0000
  H   H2127     1.0  0.75450  0.15519  0.90584  1.0000
  H   H2128     1.0  0.71539  0.13372  0.91737  1.0000
  H   H2129     1.0  0.73185  0.11142  0.93983  1.0000
  S   S540      1.0  0.76827  0.20873  0.84890  1.0000
  S   S541      1.0  0.88171  0.21002  0.75114  1.0000
  H   H2130     1.0  0.74333  0.11260  0.90729  1.0000
  H   H2131     1.0  0.70815  0.10209  0.93156  1.0000
  H   H2132     1.0  0.75318  0.11384  0.94143  1.0000
  Fe  Fe270     1.0  0.69265  0.08672  0.87864  1.0000
  H   H2133     1.0  0.90423  0.20401  0.77643  1.0000
  H   H2134     1.0  0.70013  0.04886  0.82226  1.0000
  N   N131      1.0  0.74176  0.13328  0.92046  1.0000
  H   H2135     1.0  0.76477  0.11479  0.90912  1.0000
  C   C1344     1.0  0.75114  0.12242  0.90692  1.0000
  C   C1345     1.0  0.70209  0.03949  0.85687  1.0000
  C   C1346     1.0  0.96282  0.22766  0.82909  1.0000
  C   C1347     1.0  0.71395  0.06516  0.83879  1.0000
  C   C1348     1.0  0.75239  0.14628  0.91936  1.0000
  H   H2136     1.0  0.76599  0.13951  0.92222  1.0000
  H   H2137     1.0  0.75299  0.13099  0.89320  1.0000
  C   C1349     1.0  0.71901  0.06978  0.90773  1.0000
  H   H2138     1.0  0.71591  0.06856  0.85063  1.0000
  N   N132      1.0  0.71597  0.04569  0.84134  1.0000
  S   S542      1.0  0.78236  0.21451  0.88186  1.0000
  C   C1350     1.0  0.78262  0.19273  0.96527  1.0000
  S   S543      1.0  0.67232  0.10480  0.89532  1.0000
  S   S544      1.0  0.69686  0.10795  0.85372  1.0000
  H   H2139     1.0  0.72384  0.07049  0.82691  1.0000
  C   C1351     1.0  0.66919  0.05910  0.79999  1.0000
  H   H2140     1.0  0.75255  0.31043  0.97839  1.0000
  H   H2141     1.0  0.77990  0.28861  0.85774  1.0000
  H   H2142     1.0  0.71487  0.02728  0.82662  1.0000
  H   H2143     1.0  0.70610  0.20965  0.96637  1.0000
  H   H2144     1.0  0.95865  0.26480  0.74610  1.0000
  N   N133      1.0  0.71750  0.22097  0.93911  1.0000
  C   C1352     1.0  0.72935  0.05822  0.93550  1.0000
  H   H2145     1.0  0.73588  0.04715  0.94461  1.0000
  H   H2146     1.0  0.78610  0.27022  0.92755  1.0000
  H   H2147     1.0  0.93034  0.25684  0.76300  1.0000
  Fe  Fe271     1.0  0.75623  0.22006  0.87353  1.0000
  H   H2148     1.0  0.68820  0.04599  0.85466  1.0000
  H   H2149     1.0  0.70016  0.23329  0.92044  1.0000
  H   H2150     1.0  0.71634  0.32194  0.95324  1.0000
  C   C1353     1.0  0.73415  0.03635  0.84462  1.0000
  H   H2151     1.0  0.77028  0.27492  0.97474  1.0000
  H   H2152     1.0  0.98679  0.30635  0.75163  1.0000
  H   H2153     1.0  0.84303  0.23236  0.76669  1.0000
  C   C1354     1.0  0.71243  0.08667  0.91194  1.0000
  H   H2154     1.0  0.73313  0.04263  0.91611  1.0000
  H   H2155     1.0  0.95276  0.25683  0.80376  1.0000
  C   C1355     1.0  0.71365  0.22429  0.92125  1.0000
  Fe  Fe272     1.0  0.88017  0.31941  0.75104  1.0000
  S   S545      1.0  0.80487  0.31568  0.84399  1.0000
  H   H2156     1.0  0.93362  0.24807  0.81721  1.0000
  C   C1356     1.0  0.70365  0.21237  0.95270  1.0000
  H   H2157     1.0  0.71993  0.23598  0.95656  1.0000
  C   C1357     1.0  0.72783  0.05567  0.91936  1.0000
  H   H2158     1.0  0.72384  0.23070  0.91059  1.0000
  C   C1358     1.0  0.71365  0.08915  0.92825  1.0000
  H   H2159     1.0  0.82003  0.27833  0.84005  1.0000
  H   H2160     1.0  0.73615  0.03905  0.85683  1.0000
  H   H2161     1.0  0.72392  0.04633  0.81313  1.0000
  H   H2162     1.0  0.73621  0.02161  0.84658  1.0000
  Fe  Fe273     1.0  0.70334  0.09994  0.97236  1.0000
  H   H2163     1.0  0.91832  0.31798  0.82164  1.0000
  S   S546      1.0  0.99141  0.24552  0.78399  1.0000
  S   S547      1.0  0.67182  0.07809  0.87103  1.0000
  C   C1359     1.0  0.71453  0.17026  0.97849  1.0000
  H   H2164     1.0  0.99219  0.19371  0.74634  1.0000
  Fe  Fe274     1.0  0.76432  0.31435  0.90344  1.0000
  C   C1360     1.0  0.67287  0.07486  0.80139  1.0000
  S   S548      1.0  0.67713  0.15262  0.87242  1.0000
  H   H2165     1.0  0.81739  0.26402  0.82753  1.0000
  H   H2166     1.0  0.66925  0.09879  0.95478  1.0000
  C   C1361     1.0  0.94366  0.25544  0.81730  1.0000
  C   C1362     1.0  0.72987  0.31820  0.95661  1.0000
  H   H2167     1.0  0.93390  0.13305  0.75807  1.0000
  H   H2168     1.0  0.77667  0.25092  0.85984  1.0000
  H   H2169     1.0  0.73625  0.19572  0.93723  1.0000
  H   H2170     1.0  0.79246  0.24752  0.83940  1.0000
  H   H2171     1.0  0.81760  0.23864  0.85451  1.0000
  H   H2172     1.0  0.80768  0.25044  0.96646  1.0000
  Fe  Fe275     1.0  0.69737  0.13887  0.97326  1.0000
  C   C1363     1.0  0.73561  0.20910  0.93943  1.0000
  S   S549      1.0  0.88669  0.30949  0.77814  1.0000
  Fe  Fe276     1.0  0.86385  0.19537  0.74604  1.0000
  Fe  Fe277     1.0  0.91490  0.31092  0.76306  1.0000
  S   S550      1.0  0.93978  0.29123  0.76962  1.0000
  H   H2173     1.0  0.67847  0.08380  0.78948  1.0000
  H   H2174     1.0  0.78711  0.29897  0.95673  1.0000
  C   C1364     1.0  0.96762  0.25588  0.83039  1.0000
  S   S551      1.0  0.75153  0.29180  0.92059  1.0000
  S   S552      1.0  0.79447  0.30664  0.89604  1.0000
  C   C1365     1.0  0.92521  0.26038  0.75056  1.0000
  Fe  Fe278     1.0  0.67525  0.12578  0.86999  1.0000
  H   H2175     1.0  0.95281  0.21990  0.82981  1.0000
  H   H2176     1.0  0.96224  0.10631  0.73737  1.0000
  C   C1366     1.0  0.74855  0.27959  0.90688  1.0000
  C   C1367     1.0  0.74068  0.28842  0.89223  1.0000
  C   C1368     1.0  0.73771  0.27856  0.88169  1.0000
  H   H2177     1.0  0.73637  0.30286  0.88931  1.0000
  H   H2178     1.0  0.73120  0.28543  0.87063  1.0000
  N   N134      1.0  0.83165  0.25455  0.74770  1.0000
  C   C1369     1.0  0.94281  0.29687  0.78802  1.0000
  C   C1370     1.0  0.96018  0.29464  0.79059  1.0000
  C   C1371     1.0  0.96248  0.30167  0.80385  1.0000
  C   C1372     1.0  0.94740  0.31052  0.81474  1.0000
  C   C1373     1.0  0.93002  0.31146  0.81302  1.0000
  C   C1374     1.0  0.92774  0.30497  0.79944  1.0000
  H   H2179     1.0  0.97187  0.28820  0.78189  1.0000
  H   H2180     1.0  0.97594  0.30036  0.80557  1.0000
  H   H2181     1.0  0.80296  0.29566  0.93634  1.0000
  H   H2182     1.0  0.91426  0.30646  0.79772  1.0000
  H   H2183     1.0  0.95597  0.23440  0.74806  1.0000
  H   H2184     1.0  0.93061  0.23809  0.85031  1.0000
  N   N135      1.0  0.79175  0.27290  0.95136  1.0000
  H   H2185     1.0  0.76323  0.27474  0.95523  1.0000
  H   H2186     1.0  0.91579  0.25161  0.75244  1.0000
  H   H2187     1.0  0.94017  0.23064  0.73799  1.0000
  H   H2188     1.0  0.77511  0.25452  0.96734  1.0000
  H   H2189     1.0  0.82100  0.25336  0.86611  1.0000
  H   H2190     1.0  0.68359  0.06766  0.96558  1.0000
  C   C1375     1.0  0.94125  0.24529  0.84910  1.0000
  S   S553      1.0  0.73889  0.24777  0.87229  1.0000
  H   H2191     1.0  0.80147  0.28502  0.82924  1.0000
  C   C1376     1.0  0.78555  0.25751  0.84788  1.0000
  H   H2192     1.0  0.97093  0.22025  0.83933  1.0000
  H   H2193     1.0  0.68968  0.06301  0.94372  1.0000
  H   H2194     1.0  0.73934  0.20691  0.95243  1.0000
  C   C1377     1.0  0.78887  0.27686  0.86464  1.0000
  C   C1378     1.0  0.79660  0.26478  0.93566  1.0000
  H   H2195     1.0  0.87812  0.27015  0.75698  1.0000
  C   C1379     1.0  0.79014  0.29244  0.94530  1.0000
  H   H2196     1.0  0.78022  0.27048  0.87699  1.0000
  N   N136      1.0  0.95386  0.24606  0.83145  1.0000
  H   H2197     1.0  0.79792  0.25003  0.93977  1.0000
  C   C1380     1.0  0.77431  0.26917  0.96266  1.0000
  H   H2198     1.0  0.94849  0.23824  0.86010  1.0000
  H   H2199     1.0  0.76030  0.25403  0.92185  1.0000
  H   H2200     1.0  0.93430  0.25897  0.85134  1.0000
  H   H2201     1.0  0.97595  0.24891  0.84053  1.0000
  C   C1381     1.0  0.74304  0.25987  0.88548  1.0000
  H   H2202     1.0  0.74635  0.21477  0.92890  1.0000
  H   H2203     1.0  0.81930  0.26791  0.95373  1.0000
  H   H2204     1.0  0.77651  0.26863  0.84041  1.0000
  C   C1382     1.0  0.92986  0.12675  0.74939  1.0000
  N   N137      1.0  0.79870  0.26413  0.85296  1.0000
  H   H2205     1.0  0.80537  0.25670  0.76541  1.0000
  C   C1383     1.0  0.75407  0.26091  0.91060  1.0000
  C   C1384     1.0  0.75150  0.25109  0.89978  1.0000
  H   H2206     1.0  0.73193  0.30394  0.96399  1.0000
  C   C1385     1.0  0.83013  0.27411  0.74214  1.0000
  C   C1386     1.0  0.84132  0.24713  0.76246  1.0000
  H   H2207     1.0  0.77924  0.29874  0.93772  1.0000
  H   H2208     1.0  0.81411  0.23598  0.75810  1.0000
  S   S554      1.0  0.99527  0.23105  0.74818  1.0000
  S   S555      1.0  0.99843  0.20237  0.78697  1.0000
  H   H2209     1.0  0.74014  0.31886  0.94382  1.0000
  H   H2210     1.0  0.67188  0.05597  0.78703  1.0000
  H   H2211     1.0  0.74158  0.17347  0.96579  1.0000
  H   H2212     1.0  0.77908  0.18970  0.97970  1.0000
  C   C1387     1.0  0.87959  0.27258  0.74268  1.0000
  H   H2213     1.0  0.82509  0.31763  0.80801  1.0000
  S   S556      1.0  0.95003  0.32180  0.82939  1.0000
  H   H2214     1.0  0.80259  0.27085  0.97391  1.0000
  H   H2215     1.0  0.80570  0.25597  0.74301  1.0000
  C   C1388     1.0  0.73029  0.17592  0.97682  1.0000
  S   S557      1.0  0.86152  0.30692  0.74434  1.0000
  H   H2216     1.0  0.67599  0.09524  0.93248  1.0000
  H   H2217     1.0  0.96892  0.30498  0.74283  1.0000
  C   C1389     1.0  0.66946  0.07902  0.81814  1.0000
  C   C1390     1.0  0.97976  0.31233  0.74037  1.0000
  H   H2218     1.0  0.85507  0.24996  0.75842  1.0000
  C   C1391     1.0  0.99873  0.18372  0.73845  1.0000
  H   H2219     1.0  0.84367  0.27744  0.73691  1.0000
  H   H2220     1.0  0.81274  0.59425  0.99855  1.0000
  S   S558      1.0  0.79655  0.36462  0.01678  1.0000
  Fe  Fe279     1.0  0.80864  0.33598  0.02757  1.0000
  C   C1392     1.0  0.99233  0.59393  0.14946  1.0000
  C   C1393     1.0  0.79950  0.59084  0.00592  1.0000
  H   H2221     1.0  0.78009  0.55549  0.01425  1.0000
  H   H2222     1.0  0.98684  0.43307  0.18057  1.0000
  H   H2223     1.0  0.88990  0.42478  0.09276  1.0000
  H   H2224     1.0  0.74310  0.46941  0.09898  1.0000
  H   H2225     1.0  0.92183  0.50612  0.10714  1.0000
  Fe  Fe280     1.0  0.99173  0.53064  0.13107  1.0000
  C   C1394     1.0  0.79833  0.64690  0.19620  1.0000
  H   H2226     1.0  0.91046  0.48974  0.15649  1.0000
  H   H2227     1.0  0.84867  0.40221  0.05305  1.0000
  C   C1395     1.0  0.75824  0.41992  0.01356  1.0000
  S   S559      1.0  0.80362  0.47041  0.99368  1.0000
  H   H2228     1.0  0.98546  0.46412  0.12733  1.0000
  Fe  Fe281     1.0  0.83710  0.39886  0.09899  1.0000
  S   S560      1.0  0.86636  0.39513  0.08547  1.0000
  S   S561      1.0  0.82082  0.42708  0.09557  1.0000
  Fe  Fe282     1.0  0.83933  0.35909  0.11278  1.0000
  S   S562      1.0  0.86895  0.35186  0.10057  1.0000
  Fe  Fe283     1.0  0.98777  0.40036  0.11175  1.0000
  Fe  Fe284     1.0  0.87076  0.37475  0.11045  1.0000
  S   S563      1.0  0.89318  0.37360  0.12303  1.0000
  Fe  Fe285     1.0  0.86179  0.37273  0.07681  1.0000
  S   S564      1.0  0.87540  0.36897  0.04903  1.0000
  S   S565      1.0  0.84173  0.38033  0.12490  1.0000
  S   S566      1.0  0.83185  0.37822  0.08808  1.0000
  H   H2229     1.0  0.80922  0.64889  0.04462  1.0000
  Fe  Fe286     1.0  0.97754  0.40180  0.07783  1.0000
  S   S567      1.0  0.98001  0.38011  0.10240  1.0000
  S   S568      1.0  0.95438  0.40660  0.06484  1.0000
  H   H2230     1.0  0.71848  0.33669  0.99284  1.0000
  H   H2231     1.0  0.92494  0.59737  0.11320  1.0000
  H   H2232     1.0  0.92713  0.46426  0.14210  1.0000
  S   S569      1.0  0.99094  0.51212  0.07610  1.0000
  H   H2233     1.0  0.78990  0.45671  0.10615  1.0000
  H   H2234     1.0  0.88677  0.32799  0.05965  1.0000
  H   H2235     1.0  0.82196  0.34025  0.09366  1.0000
  C   C1396     1.0  0.91004  0.38287  0.10682  1.0000
  C   C1397     1.0  0.92140  0.39030  0.11187  1.0000
  C   C1398     1.0  0.93511  0.39754  0.09895  1.0000
  C   C1399     1.0  0.93745  0.39733  0.08099  1.0000
  C   C1400     1.0  0.92608  0.38989  0.07595  1.0000
  C   C1401     1.0  0.91239  0.38263  0.08887  1.0000
  H   H2236     1.0  0.91955  0.39055  0.12575  1.0000
  H   H2237     1.0  0.94366  0.40357  0.10287  1.0000
  H   H2238     1.0  0.92802  0.38953  0.06208  1.0000
  H   H2239     1.0  0.90393  0.37648  0.08498  1.0000
  C   C1402     1.0  0.89469  0.54836  0.12814  1.0000
  H   H2240     1.0  0.73593  0.48989  0.99309  1.0000
  H   H2241     1.0  0.74372  0.33998  0.10251  1.0000
  H   H2242     1.0  0.74953  0.46672  0.07630  1.0000
  H   H2243     1.0  0.82620  0.44122  0.02286  1.0000
  H   H2244     1.0  0.82952  0.41889  0.06055  1.0000
  C   C1403     1.0  0.77337  0.48162  0.08193  1.0000
  C   C1404     1.0  0.76170  0.40510  0.02740  1.0000
  H   H2245     1.0  0.83331  0.63838  0.19768  1.0000
  H   H2246     1.0  0.75819  0.39281  0.02789  1.0000
  H   H2247     1.0  0.92649  0.46542  0.11950  1.0000
  C   C1405     1.0  0.98078  0.42114  0.14530  1.0000
  H   H2248     1.0  0.89304  0.47265  0.12724  1.0000
  C   C1406     1.0  0.84983  0.46220  0.10887  1.0000
  C   C1407     1.0  0.85442  0.44357  0.11457  1.0000
  C   C1408     1.0  0.84546  0.43274  0.11061  1.0000
  C   C1409     1.0  0.83175  0.44053  0.10108  1.0000
  C   C1410     1.0  0.82707  0.45917  0.09552  1.0000
  C   C1411     1.0  0.83606  0.46999  0.09944  1.0000
  H   H2249     1.0  0.86499  0.43746  0.12198  1.0000
  H   H2250     1.0  0.84911  0.41836  0.11507  1.0000
  H   H2251     1.0  0.81678  0.46528  0.08784  1.0000
  H   H2252     1.0  0.83261  0.48433  0.09480  1.0000
  C   C1412     1.0  0.84364  0.40751  0.02012  1.0000
  S   S570      1.0  0.74433  0.53851  0.99289  1.0000
  N   N138      1.0  0.83006  0.41322  0.03561  1.0000
  S   S571      1.0  0.82538  0.33710  0.12961  1.0000
  C   C1413     1.0  0.90962  0.50025  0.11241  1.0000
  S   S572      1.0  0.97903  0.64137  0.12443  1.0000
  H   H2253     1.0  0.80802  0.43544  0.04091  1.0000
  H   H2254     1.0  0.91999  0.33954  0.12936  1.0000
  Fe  Fe287     1.0  0.79334  0.48648  0.01483  1.0000
  C   C1414     1.0  0.84925  0.33650  0.02892  1.0000
  H   H2255     1.0  0.96370  0.34824  0.12934  1.0000
  C   C1415     1.0  0.87393  0.35057  0.02551  1.0000
  C   C1416     1.0  0.86549  0.35619  0.04153  1.0000
  C   C1417     1.0  0.84925  0.35150  0.05148  1.0000
  C   C1418     1.0  0.84096  0.34202  0.04499  1.0000
  H   H2256     1.0  0.77812  0.56982  0.02884  1.0000
  H   H2257     1.0  0.88663  0.35402  0.01785  1.0000
  H   H2258     1.0  0.84290  0.35532  0.06408  1.0000
  H   H2259     1.0  0.82824  0.33885  0.05254  1.0000
  H   H2260     1.0  0.97555  0.54993  0.16154  1.0000
  H   H2261     1.0  0.92227  0.50438  0.13854  1.0000
  H   H2262     1.0  0.98075  0.43819  0.11910  1.0000
  C   C1419     1.0  0.81829  0.43066  0.02952  1.0000
  C   C1420     1.0  0.77375  0.42231  0.04001  1.0000
  C   C1421     1.0  0.77599  0.45588  0.10644  1.0000
  Fe  Fe288     1.0  0.77540  0.35382  0.01208  1.0000
  S   S573      1.0  0.77570  0.38696  0.05661  1.0000
  H   H2263     1.0  0.77956  0.42328  0.05035  1.0000
  C   C1422     1.0  0.93141  0.33526  0.11845  1.0000
  S   S574      1.0  0.92437  0.53948  0.14254  1.0000
  C   C1423     1.0  0.75251  0.32801  0.09753  1.0000
  H   H2264     1.0  0.82995  0.48152  0.05751  1.0000
  Fe  Fe289     1.0  0.77423  0.47459  0.99421  1.0000
  H   H2265     1.0  0.77813  0.64590  0.04688  1.0000
  H   H2266     1.0  0.80854  0.65396  0.16076  1.0000
  H   H2267     1.0  0.95172  0.64706  0.09961  1.0000
  S   S575      1.0  0.74690  0.64574  0.07649  1.0000
  S   S576      1.0  0.86264  0.47545  0.11193  1.0000
  H   H2268     1.0  0.77501  0.44909  0.02484  1.0000
  N   N139      1.0  0.89601  0.44467  0.06872  1.0000
  C   C1424     1.0  0.87685  0.45249  0.06787  1.0000
  C   C1425     1.0  0.90628  0.45900  0.06223  1.0000
  C   C1426     1.0  0.90372  0.43135  0.05741  1.0000
  C   C1427     1.0  0.89725  0.43589  0.08740  1.0000
  H   H2269     1.0  0.86847  0.44224  0.07368  1.0000
  H   H2270     1.0  0.87529  0.45850  0.05390  1.0000
  H   H2271     1.0  0.87098  0.46332  0.07544  1.0000
  H   H2272     1.0  0.92083  0.45350  0.06267  1.0000
  H   H2273     1.0  0.90562  0.46598  0.04820  1.0000
  H   H2274     1.0  0.90083  0.46923  0.07058  1.0000
  H   H2275     1.0  0.91838  0.42580  0.05714  1.0000
  H   H2276     1.0  0.90246  0.43732  0.04335  1.0000
  H   H2277     1.0  0.89684  0.41990  0.06246  1.0000
  H   H2278     1.0  0.89137  0.44554  0.09634  1.0000
  H   H2279     1.0  0.91155  0.43008  0.08852  1.0000
  S   S577      1.0  0.79319  0.33581  0.05572  1.0000
  H   H2280     1.0  0.82752  0.38629  0.04877  1.0000
  C   C1428     1.0  0.81313  0.55930  0.01254  1.0000
  H   H2281     1.0  0.75714  0.60836  0.99565  1.0000
  C   C1429     1.0  0.76963  0.40619  0.04053  1.0000
  S   S578      1.0  0.98311  0.42269  0.08805  1.0000
  H   H2282     1.0  0.83709  0.40586  0.01021  1.0000
  H   H2283     1.0  0.78719  0.48306  0.08127  1.0000
  H   H2284     1.0  0.90905  0.49314  0.10250  1.0000
  C   C1430     1.0  0.80428  0.65070  0.07206  1.0000
  H   H2285     1.0  0.75161  0.44739  0.09433  1.0000
  S   S579      1.0  0.75693  0.35525  0.03896  1.0000
  H   H2286     1.0  0.81095  0.42982  0.01985  1.0000
  H   H2287     1.0  0.79867  0.45355  0.07398  1.0000
  H   H2288     1.0  0.88678  0.54919  0.14147  1.0000
  C   C1431     1.0  0.83935  0.41501  0.04849  1.0000
  Fe  Fe290     1.0  0.98275  0.49427  0.14211  1.0000
  C   C1432     1.0  0.76904  0.64753  0.07456  1.0000
  H   H2289     1.0  0.78120  0.45606  0.06269  1.0000
  H   H2290     1.0  0.79523  0.65201  0.09979  1.0000
  C   C1433     1.0  0.77105  0.43694  0.02565  1.0000
  N   N140      1.0  0.77179  0.46274  0.08852  1.0000
  H   H2291     1.0  0.85227  0.41739  0.01320  1.0000
  C   C1434     1.0  0.89364  0.48052  0.13649  1.0000
  C   C1435     1.0  0.78347  0.57060  0.10380  1.0000
  C   C1436     1.0  0.79156  0.65066  0.08826  1.0000
  Fe  Fe291     1.0  0.77933  0.36368  0.04444  1.0000
  N   N141      1.0  0.90994  0.48816  0.13018  1.0000
  C   C1437     1.0  0.75316  0.46151  0.08959  1.0000
  C   C1438     1.0  0.76350  0.43564  0.01226  1.0000
  H   H2292     1.0  0.77537  0.44153  0.11166  1.0000
  C   C1439     1.0  0.78462  0.45194  0.07606  1.0000
  H   H2293     1.0  0.72776  0.57479  0.99578  1.0000
  S   S580      1.0  0.99039  0.46812  0.16062  1.0000
  H   H2294     1.0  0.84753  0.42540  0.04251  1.0000
  H   H2295     1.0  0.89332  0.47144  0.14993  1.0000
  H   H2296     1.0  0.85281  0.39441  0.02432  1.0000
  C   C1440     1.0  0.81899  0.39966  0.04432  1.0000
  H   H2297     1.0  0.89604  0.32441  0.07871  1.0000
  C   C1441     1.0  0.98654  0.45027  0.15450  1.0000
  H   H2298     1.0  0.80881  0.40320  0.05634  1.0000
  N   N142      1.0  0.94909  0.33275  0.12280  1.0000
  S   S581      1.0  0.80658  0.47687  0.03813  1.0000
  H   H2299     1.0  0.81152  0.39810  0.03512  1.0000
  C   C1442     1.0  0.92631  0.47353  0.12888  1.0000
  H   H2300     1.0  0.93887  0.47880  0.12397  1.0000
  H   H2301     1.0  0.76650  0.46360  0.11626  1.0000
  C   C1443     1.0  0.82021  0.49398  0.05486  1.0000
  H   H2302     1.0  0.83127  0.63356  0.17776  1.0000
  H   H2303     1.0  0.78480  0.43741  0.08119  1.0000
  C   C1444     1.0  0.98546  0.43427  0.16717  1.0000
  H   H2304     1.0  0.95709  0.58717  0.13200  1.0000
  C   C1445     1.0  0.80729  0.49541  0.04533  1.0000
  H   H2305     1.0  0.76366  0.49031  0.09076  1.0000
  H   H2306     1.0  0.93837  0.53994  0.10499  1.0000
  H   H2307     1.0  0.79034  0.56687  0.11514  1.0000
  H   H2308     1.0  0.89806  0.50958  0.14419  1.0000
  C   C1446     1.0  0.97047  0.57609  0.16671  1.0000
  H   H2309     1.0  0.99867  0.43353  0.01137  1.0000
  S   S582      1.0  0.79421  0.51306  0.99585  1.0000
  C   C1447     1.0  0.76761  0.59923  0.11092  1.0000
  H   H2310     1.0  0.94507  0.60916  0.12325  1.0000
  H   H2311     1.0  0.96299  0.33761  0.09516  1.0000
  S   S583      1.0  0.72685  0.62643  0.01696  1.0000
  Fe  Fe292     1.0  0.86105  0.54048  0.09094  1.0000
  H   H2312     1.0  0.76979  0.57874  0.00874  1.0000
  S   S584      1.0  0.71664  0.62932  0.05866  1.0000
  Fe  Fe293     1.0  0.73390  0.60928  0.04256  1.0000
  S   S585      1.0  0.73632  0.57965  0.05258  1.0000
  S   S586      1.0  0.75953  0.61818  0.03851  1.0000
  H   H2313     1.0  0.79433  0.61119  0.08533  1.0000
  Fe  Fe294     1.0  0.83086  0.63449  0.13450  1.0000
  S   S587      1.0  0.84672  0.62615  0.10913  1.0000
  S   S588      1.0  0.81593  0.61743  0.15822  1.0000
  H   H2314     1.0  0.78534  0.53870  0.04545  1.0000
  C   C1448     1.0  0.78095  0.56908  0.01455  1.0000
  Fe  Fe295     1.0  0.75128  0.63684  0.01403  1.0000
  Fe  Fe296     1.0  0.86688  0.64029  0.11049  1.0000
  S   S589      1.0  0.89655  0.62833  0.10363  1.0000
  H   H2315     1.0  0.71377  0.50418  0.99671  1.0000
  S   S590      1.0  0.85247  0.64592  0.13741  1.0000
  S   S591      1.0  0.76162  0.45307  0.99332  1.0000
  H   H2316     1.0  0.78479  0.33388  0.09629  1.0000
  C   C1449     1.0  0.90859  0.64375  0.10358  1.0000
  C   C1450     1.0  0.92749  0.63907  0.10042  1.0000
  C   C1451     1.0  0.78183  0.64716  0.05845  1.0000
  H   H2317     1.0  0.93469  0.62639  0.09698  1.0000
  H   H2318     1.0  0.94074  0.56478  0.15213  1.0000
  H   H2319     1.0  0.79237  0.56330  0.09337  1.0000
  H   H2320     1.0  0.90061  0.62418  0.06770  1.0000
  H   H2321     1.0  0.92291  0.54548  0.08031  1.0000
  H   H2322     1.0  0.95814  0.57465  0.17663  1.0000
  H   H2323     1.0  0.75181  0.41893  0.00373  1.0000
  H   H2324     1.0  0.99614  0.52494  0.17526  1.0000
  S   S592      1.0  0.77030  0.64068  0.98723  1.0000
  H   H2325     1.0  0.92991  0.34582  0.10612  1.0000
  S   S593      1.0  0.83256  0.55644  0.09349  1.0000
  H   H2326     1.0  0.93056  0.57952  0.16738  1.0000
  H   H2327     1.0  0.94660  0.60305  0.14604  1.0000
  C   C1452     1.0  0.91501  0.54634  0.09364  1.0000
  C   C1453     1.0  0.82079  0.50881  0.06065  1.0000
  S   S594      1.0  0.97292  0.54193  0.11225  1.0000
  H   H2328     1.0  0.77082  0.48707  0.06820  1.0000
  S   S595      1.0  0.85724  0.52119  0.07735  1.0000
  S   S596      1.0  0.76390  0.48853  0.01701  1.0000
  C   C1454     1.0  0.89612  0.54995  0.09704  1.0000
  S   S597      1.0  0.88533  0.55264  0.07982  1.0000
  C   C1455     1.0  0.74141  0.54971  0.00982  1.0000
  C   C1456     1.0  0.74780  0.54070  0.02534  1.0000
  C   C1457     1.0  0.74564  0.54986  0.03870  1.0000
  C   C1458     1.0  0.73753  0.56814  0.03637  1.0000
  C   C1459     1.0  0.73108  0.57710  0.02088  1.0000
  C   C1460     1.0  0.73286  0.56785  0.00770  1.0000
  H   H2329     1.0  0.75427  0.52665  0.02709  1.0000
  H   H2330     1.0  0.75058  0.54288  0.05071  1.0000
  H   H2331     1.0  0.72445  0.59106  0.01917  1.0000
  C   C1461     1.0  0.97616  0.59221  0.16198  1.0000
  C   C1462     1.0  0.83034  0.64459  0.18421  1.0000
  Fe  Fe297     1.0  0.95379  0.52746  0.13402  1.0000
  S   S598      1.0  0.80773  0.54650  0.14359  1.0000
  C   C1463     1.0  0.91359  0.54414  0.12487  1.0000
  C   C1464     1.0  0.92905  0.57585  0.15552  1.0000
  Fe  Fe298     1.0  0.82805  0.53548  0.08257  1.0000
  H   H2332     1.0  0.79049  0.59510  0.17512  1.0000
  C   C1465     1.0  0.79818  0.57365  0.16117  1.0000
  H   H2333     1.0  0.91294  0.58113  0.12836  1.0000
  C   C1466     1.0  0.92376  0.54319  0.10761  1.0000
  C   C1467     1.0  0.81046  0.56609  0.14741  1.0000
  C   C1468     1.0  0.80004  0.58934  0.16445  1.0000
  H   H2334     1.0  0.78725  0.56732  0.16936  1.0000
  C   C1469     1.0  0.88595  0.55110  0.11426  1.0000
  H   H2335     1.0  0.89761  0.51162  0.11298  1.0000
  H   H2336     1.0  0.88101  0.49117  0.13744  1.0000
  H   H2337     1.0  0.87128  0.59115  0.08829  1.0000
  H   H2338     1.0  0.81279  0.54554  0.01217  1.0000
  H   H2339     1.0  0.88214  0.60582  0.09287  1.0000
  H   H2340     1.0  0.75763  0.59013  0.08574  1.0000
  H   H2341     1.0  0.76431  0.61401  0.10593  1.0000
  C   C1470     1.0  0.79676  0.59642  0.09053  1.0000
  H   H2342     1.0  0.78445  0.51261  0.03490  1.0000
  C   C1471     1.0  0.88323  0.59741  0.08350  1.0000
  H   H2343     1.0  0.80607  0.59007  0.07959  1.0000
  H   H2344     1.0  0.85544  0.61793  0.06935  1.0000
  H   H2345     1.0  0.86769  0.63245  0.07214  1.0000
  H   H2346     1.0  0.77084  0.56544  0.10874  1.0000
  H   H2347     1.0  0.83785  0.59574  0.13258  1.0000
  N   N143      1.0  0.88433  0.60797  0.06496  1.0000
  H   H2348     1.0  0.87291  0.59042  0.05744  1.0000
  C   C1472     1.0  0.86822  0.62285  0.06412  1.0000
  H   H2349     1.0  0.91369  0.60972  0.15746  1.0000
  H   H2350     1.0  0.89949  0.60165  0.14870  1.0000
  C   C1473     1.0  0.90080  0.61532  0.05902  1.0000
  C   C1474     1.0  0.88512  0.59626  0.05320  1.0000
  H   H2351     1.0  0.93701  0.57496  0.12087  1.0000
  H   H2352     1.0  0.86814  0.63067  0.05022  1.0000
  C   C1475     1.0  0.77074  0.59441  0.08156  1.0000
  H   H2353     1.0  0.77937  0.58755  0.07070  1.0000
  S   S599      1.0  0.82055  0.51743  0.10917  1.0000
  H   H2354     1.0  0.91663  0.57037  0.15951  1.0000
  H   H2355     1.0  0.88602  0.60368  0.03906  1.0000
  H   H2356     1.0  0.90205  0.62343  0.04510  1.0000
  H   H2357     1.0  0.91190  0.61802  0.13468  1.0000
  H   H2358     1.0  0.89547  0.58645  0.08466  1.0000
  C   C1476     1.0  0.91258  0.60579  0.14555  1.0000
  H   H2359     1.0  0.91323  0.60448  0.05955  1.0000
  H   H2360     1.0  0.89705  0.58479  0.05368  1.0000
  C   C1477     1.0  0.92565  0.58599  0.12498  1.0000
  S   S600      1.0  0.83851  0.32513  0.02060  1.0000
  C   C1478     1.0  0.91018  0.49837  0.14292  1.0000
  H   H2361     1.0  0.77404  0.59638  0.12248  1.0000
  N   N144      1.0  0.92806  0.59139  0.14028  1.0000
  H   H2362     1.0  0.76408  0.64948  0.10197  1.0000
  S   S601      1.0  0.96294  0.50180  0.12454  1.0000
  C   C1479     1.0  0.81411  0.59762  0.15391  1.0000
  N   N145      1.0  0.77964  0.59016  0.09670  1.0000
  C   C1480     1.0  0.82651  0.58994  0.14025  1.0000
  H   H2363     1.0  0.75460  0.59476  0.11600  1.0000
  H   H2364     1.0  0.83097  0.50774  0.06775  1.0000
  H   H2365     1.0  0.76788  0.60905  0.07574  1.0000
  C   C1481     1.0  0.98209  0.43709  0.13248  1.0000
  C   C1482     1.0  0.79524  0.52634  0.04781  1.0000
  S   S602      1.0  0.85632  0.52312  0.11846  1.0000
  Fe  Fe299     1.0  0.96941  0.63625  0.15428  1.0000
  C   C1483     1.0  0.82467  0.57422  0.13694  1.0000
  H   H2366     1.0  0.83440  0.56824  0.12653  1.0000
  S   S603      1.0  0.96212  0.61044  0.17077  1.0000
  S   S604      1.0  0.80953  0.54384  0.06355  1.0000
  C   C1484     1.0  0.79474  0.51157  0.04187  1.0000
  H   H2367     1.0  0.87132  0.55427  0.11686  1.0000
  C   C1485     1.0  0.94496  0.59792  0.13515  1.0000
  H   H2368     1.0  0.78883  0.60148  0.00020  1.0000
  H   H2369     1.0  0.98123  0.40757  0.17259  1.0000
  Fe  Fe300     1.0  0.85022  0.50490  0.10512  1.0000
  S   S605      1.0  0.97157  0.51862  0.15368  1.0000
  C   C1486     1.0  0.80841  0.52504  0.05700  1.0000
  Fe  Fe301     1.0  0.82728  0.53732  0.11986  1.0000
  H   H2370     1.0  0.80396  0.59319  0.10160  1.0000
  Fe  Fe302     1.0  0.77254  0.32738  0.04753  1.0000
  N   N146      1.0  0.79878  0.57292  0.00467  1.0000
  S   S606      1.0  0.97681  0.40277  0.14021  1.0000
  S   S607      1.0  0.76429  0.36507  0.98726  1.0000
  Fe  Fe303     1.0  0.71224  0.64763  0.03249  1.0000
  C   C1487     1.0  0.93712  0.65077  0.10182  1.0000
  Fe  Fe304     1.0  0.76582  0.51346  0.99565  1.0000
  H   H2371     1.0  0.82682  0.56160  0.00535  1.0000
  C   C1488     1.0  0.98039  0.56206  0.15822  1.0000
  H   H2372     1.0  0.81152  0.55949  0.02678  1.0000
  Fe  Fe305     1.0  0.83320  0.65308  0.09555  1.0000
  C   C1489     1.0  0.86594  0.34049  0.01934  1.0000
  C   C1490     1.0  0.98230  0.41985  0.16266  1.0000
  C   C1491     1.0  0.77685  0.32891  0.10983  1.0000
  S   S608      1.0  0.82625  0.65312  0.07004  1.0000
  H   H2373     1.0  0.70494  0.63287  0.98867  1.0000
  H   H2374     1.0  0.79856  0.63570  0.19026  1.0000
  Fe  Fe306     1.0  0.98370  0.51547  0.10426  1.0000
  H   H2375     1.0  0.79743  0.59166  0.02007  1.0000
  C   C1492     1.0  0.95068  0.34971  0.12563  1.0000
  H   H2376     1.0  0.76875  0.34084  0.11527  1.0000
  C   C1493     1.0  0.79941  0.64884  0.05719  1.0000
  H   H2377     1.0  0.95020  0.36043  0.11329  1.0000
  Fe  Fe307     1.0  0.74183  0.63957  0.05276  1.0000
  H   H2378     1.0  0.69190  0.65460  0.99167  1.0000
  C   C1494     1.0  0.77393  0.64922  0.08947  1.0000
  H   H2379     1.0  0.70134  0.48216  0.98971  1.0000
  S   S609      1.0  0.78919  0.32512  0.02020  1.0000
  H   H2380     1.0  0.87241  0.33623  0.00690  1.0000
  C   C1495     1.0  0.82325  0.32637  0.10062  1.0000
  H   H2381     1.0  0.78453  0.65569  0.19709  1.0000
  H   H2382     1.0  0.84126  0.65171  0.17622  1.0000
  H   H2383     1.0  0.93948  0.35454  0.13642  1.0000
  C   C1496     1.0  0.98468  0.45177  0.13717  1.0000
  H   H2384     1.0  0.75983  0.33279  0.08366  1.0000
  S   S610      1.0  0.98990  0.64786  0.15920  1.0000
  H   H2385     1.0  0.80043  0.64098  0.21002  1.0000
  H   H2386     1.0  0.97729  0.32589  0.11049  1.0000
  N   N147      1.0  0.81234  0.65690  0.18530  1.0000
  C   C1497     1.0  0.96379  0.32740  0.10785  1.0000
  Fe  Fe308     1.0  0.99795  0.65505  0.12925  1.0000
  H   H2387     1.0  0.99278  0.49390  0.18134  1.0000
  H   H2388     1.0  0.99689  0.60630  0.14590  1.0000
  C   C1498     1.0  0.99658  0.56374  0.14570  1.0000
  H   H2389     1.0  0.85069  0.61963  0.68126  1.0000
  H   H2390     1.0  0.85476  0.64189  0.67355  1.0000
  H   H2391     1.0  0.92138  0.40207  0.69746  1.0000
  C   C1499     1.0  0.85745  0.62945  0.70780  1.0000
  C   C1500     1.0  0.91129  0.40402  0.70953  1.0000
  H   H2392     1.0  0.98217  0.35570  0.73358  1.0000
  H   H2393     1.0  0.99246  0.43239  0.71380  1.0000
  H   H2394     1.0  0.88945  0.60049  0.68493  1.0000
  H   H2395     1.0  0.97059  0.33673  0.71162  1.0000
  H   H2396     1.0  0.93093  0.46950  0.71971  1.0000
  C   C1501     1.0  0.90309  0.42138  0.71216  1.0000
  H   H2397     1.0  0.98529  0.40242  0.72345  1.0000
  H   H2398     1.0  0.90688  0.43277  0.70211  1.0000
  H   H2399     1.0  0.88899  0.64817  0.72640  1.0000
  C   C1502     1.0  0.90615  0.38923  0.72222  1.0000
  H   H2400     1.0  0.99697  0.33873  0.72218  1.0000
  N   N148      1.0  0.87072  0.62422  0.69195  1.0000
  C   C1503     1.0  0.88467  0.63497  0.68620  1.0000
  S   S611      1.0  0.91644  0.36762  0.71846  1.0000
  S   S612      1.0  0.99619  0.45589  0.73272  1.0000
  C   C1504     1.0  0.99108  0.42553  0.72771  1.0000
  H   H2401     1.0  0.93315  0.43124  0.71840  1.0000
  C   C1505     1.0  0.98731  0.34099  0.73490  1.0000
  H   H2402     1.0  0.89476  0.63167  0.67404  1.0000
  H   H2403     1.0  0.88649  0.60208  0.70760  1.0000
  H   H2404     1.0  0.85057  0.64386  0.70489  1.0000
  C   C1506     1.0  0.88997  0.42405  0.72767  1.0000
  C   C1507     1.0  0.86137  0.62748  0.67732  1.0000
  H   H2405     1.0  0.86920  0.59647  0.70114  1.0000
  H   H2406     1.0  0.89219  0.63259  0.69684  1.0000
  C   C1508     1.0  0.98696  0.40859  0.73317  1.0000
  C   C1509     1.0  0.87935  0.60501  0.69654  1.0000
  H   H2407     1.0  0.86412  0.62739  0.71898  1.0000
  H   H2408     1.0  0.87098  0.62366  0.66513  1.0000
  H   H2409     1.0  0.84684  0.62145  0.71275  1.0000
  H   H2410     1.0  0.95236  0.44115  0.71339  1.0000
  H   H2411     1.0  0.87857  0.64958  0.68306  1.0000
  C   C1510     1.0  0.94306  0.43386  0.72437  1.0000
  H   H2412     1.0  0.95616  0.35352  0.72345  1.0000
  H   H2413     1.0  0.95127  0.42066  0.72982  1.0000
  H   H2414     1.0  0.91216  0.45898  0.72514  1.0000
  S   S613      1.0  0.88041  0.44604  0.73064  1.0000
  C   C1511     1.0  0.96196  0.33888  0.72482  1.0000
  S   S614      1.0  0.87783  0.56827  0.73401  1.0000
  H   H2415     1.0  0.88578  0.53052  0.73361  1.0000
  C   C1512     1.0  0.92257  0.46124  0.73072  1.0000
  H   H2416     1.0  0.95036  0.33238  0.72772  1.0000
  H   H2417     1.0  0.95694  0.45507  0.73493  1.0000
  C   C1513     1.0  0.89294  0.39185  0.73771  1.0000
  S   S615      1.0  0.87068  0.35100  0.80102  1.0000
  Fe  Fe309     1.0  0.97296  0.33562  0.81612  1.0000
  H   H2418     1.0  0.91531  0.46931  0.74096  1.0000
  H   H2419     1.0  0.74885  0.47980  0.96435  1.0000
  H   H2420     1.0  0.95838  0.53683  0.84715  1.0000
  C   C1514     1.0  0.99290  0.42953  0.83055  1.0000
  C   C1515     1.0  0.77303  0.45857  0.83967  1.0000
  C   C1516     1.0  0.70901  0.51028  0.96330  1.0000
  H   H2421     1.0  0.98050  0.57455  0.74894  1.0000
  H   H2422     1.0  0.96611  0.45546  0.84309  1.0000
  H   H2423     1.0  0.89094  0.46168  0.81650  1.0000
  C   C1517     1.0  0.72823  0.34881  0.95723  1.0000
  S   S616      1.0  0.77368  0.49970  0.97294  1.0000
  S   S617      1.0  0.81614  0.47960  0.88555  1.0000
  S   S618      1.0  0.81848  0.43056  0.81261  1.0000
  Fe  Fe310     1.0  0.98647  0.36224  0.78301  1.0000
  C   C1518     1.0  0.80104  0.46578  0.81021  1.0000
  C   C1519     1.0  0.83135  0.49622  0.90129  1.0000
  C   C1520     1.0  0.90520  0.46059  0.81048  1.0000
  C   C1521     1.0  0.80941  0.64448  0.77782  1.0000
  Fe  Fe311     1.0  0.84152  0.44246  0.79425  1.0000
  H   H2424     1.0  0.77975  0.44294  0.95736  1.0000
  Fe  Fe312     1.0  0.88011  0.44268  0.79282  1.0000
  H   H2425     1.0  0.82560  0.33398  0.85470  1.0000
  H   H2426     1.0  0.78522  0.38903  0.95449  1.0000
  C   C1522     1.0  0.91521  0.44571  0.80337  1.0000
  S   S619      1.0  0.84991  0.65520  0.73964  1.0000
  Fe  Fe313     1.0  0.86804  0.44943  0.75878  1.0000
  H   H2427     1.0  0.91823  0.37579  0.76648  1.0000
  C   C1523     1.0  0.74903  0.42677  0.89038  1.0000
  C   C1524     1.0  0.81147  0.48451  0.93562  1.0000
  H   H2428     1.0  0.78373  0.40318  0.79940  1.0000
  H   H2429     1.0  0.79358  0.65195  0.80978  1.0000
  H   H2430     1.0  0.74769  0.44086  0.88425  1.0000
  H   H2431     1.0  0.79880  0.33958  0.98299  1.0000
  C   C1525     1.0  0.76135  0.41691  0.96620  1.0000
  H   H2432     1.0  0.90887  0.52524  0.76218  1.0000
  C   C1526     1.0  0.77216  0.36080  0.95310  1.0000
  C   C1527     1.0  0.78278  0.35353  0.93849  1.0000
  H   H2433     1.0  0.82079  0.64261  0.76612  1.0000
  H   H2434     1.0  0.75974  0.37066  0.95181  1.0000
  H   H2435     1.0  0.77886  0.35822  0.92580  1.0000
  H   H2436     1.0  0.72847  0.64786  0.94192  1.0000
  C   C1528     1.0  0.71849  0.64224  0.95354  1.0000
  N   N149      1.0  0.97320  0.43097  0.83389  1.0000
  H   H2437     1.0  0.74523  0.50278  0.95252  1.0000
  H   H2438     1.0  0.80141  0.46970  0.92326  1.0000
  H   H2439     1.0  0.92736  0.51161  0.77219  1.0000
  H   H2440     1.0  0.95234  0.53826  0.75575  1.0000
  N   N150      1.0  0.98375  0.53717  0.82805  1.0000
  C   C1529     1.0  0.92301  0.52442  0.76284  1.0000
  H   H2441     1.0  0.85083  0.34881  0.83742  1.0000
  S   S620      1.0  0.76334  0.33792  0.91382  1.0000
  C   C1530     1.0  0.84514  0.33250  0.80480  1.0000
  Fe  Fe314     1.0  0.75568  0.46189  0.90416  1.0000
  S   S621      1.0  0.96830  0.36550  0.80946  1.0000
  S   S622      1.0  0.88765  0.60869  0.74560  1.0000
  C   C1531     1.0  0.80053  0.44804  0.81892  1.0000
  H   H2442     1.0  0.97290  0.56312  0.83444  1.0000
  H   H2443     1.0  0.89567  0.37403  0.77867  1.0000
  C   C1532     1.0  0.78750  0.47987  0.81601  1.0000
  C   C1533     1.0  0.76064  0.61276  0.98133  1.0000
  H   H2444     1.0  0.96169  0.55117  0.81503  1.0000
  H   H2445     1.0  0.88586  0.37597  0.81023  1.0000
  N   N151      1.0  0.78101  0.41527  0.95897  1.0000
  Fe  Fe315     1.0  0.99491  0.47178  0.75246  1.0000
  H   H2446     1.0  0.78048  0.40684  0.93583  1.0000
  H   H2447     1.0  0.68659  0.64360  0.97757  1.0000
  H   H2448     1.0  0.80444  0.43138  0.87141  1.0000
  H   H2449     1.0  0.79930  0.43222  0.94311  1.0000
  H   H2450     1.0  0.85377  0.41259  0.85669  1.0000
  C   C1534     1.0  0.91806  0.55660  0.75614  1.0000
  H   H2451     1.0  0.95450  0.42503  0.82246  1.0000
  C   C1535     1.0  0.78758  0.40248  0.94708  1.0000
  H   H2452     1.0  0.91718  0.52789  0.79669  1.0000
  H   H2453     1.0  0.80635  0.39708  0.83647  1.0000
  H   H2454     1.0  0.77385  0.39816  0.84085  1.0000
  S   S623      1.0  0.98882  0.33273  0.78876  1.0000
  C   C1536     1.0  0.83482  0.43592  0.87739  1.0000
  H   H2455     1.0  0.81903  0.63825  0.83687  1.0000
  H   H2456     1.0  0.84011  0.42235  0.88501  1.0000
  S   S624      1.0  0.99713  0.33117  0.82742  1.0000
  Fe  Fe316     1.0  0.78654  0.48119  0.89000  1.0000
  H   H2457     1.0  0.72919  0.35797  0.96505  1.0000
  H   H2458     1.0  0.82242  0.45361  0.83759  1.0000
  H   H2459     1.0  0.85055  0.33206  0.79087  1.0000
  H   H2460     1.0  0.71462  0.52254  0.95753  1.0000
  C   C1537     1.0  0.81963  0.48500  0.90390  1.0000
  S   S625      1.0  0.76671  0.47759  0.91618  1.0000
  S   S626      1.0  0.94283  0.48908  0.80229  1.0000
  Fe  Fe317     1.0  0.85365  0.47739  0.78147  1.0000
  C   C1538     1.0  0.77370  0.47633  0.83099  1.0000
  C   C1539     1.0  0.91374  0.47392  0.81017  1.0000
  H   H2461     1.0  0.80233  0.40094  0.94125  1.0000
  C   C1540     1.0  0.74836  0.41481  0.88070  1.0000
  H   H2462     1.0  0.81195  0.46878  0.79905  1.0000
  H   H2463     1.0  0.81305  0.46086  0.85817  1.0000
  H   H2464     1.0  0.76224  0.45578  0.85116  1.0000
  C   C1541     1.0  0.68707  0.65023  0.86135  1.0000
  C   C1542     1.0  0.78460  0.43295  0.94877  1.0000
  H   H2465     1.0  0.93168  0.38266  0.80494  1.0000
  C   C1543     1.0  0.79408  0.34324  0.97075  1.0000
  S   S627      1.0  0.90469  0.42898  0.80388  1.0000
  S   S628      1.0  0.77724  0.46335  0.87918  1.0000
  H   H2466     1.0  0.95583  0.45743  0.78760  1.0000
  S   S629      1.0  0.85361  0.45660  0.80693  1.0000
  H   H2467     1.0  0.92345  0.39966  0.78739  1.0000
  N   N152      1.0  0.91281  0.37605  0.79438  1.0000
  H   H2468     1.0  0.92369  0.35272  0.81273  1.0000
  C   C1544     1.0  0.93354  0.44448  0.79529  1.0000
  C   C1545     1.0  0.90699  0.38042  0.77733  1.0000
  H   H2469     1.0  0.75293  0.37634  0.91252  1.0000
  H   H2470     1.0  0.78408  0.55149  0.83241  1.0000
  H   H2471     1.0  0.78973  0.41469  0.81246  1.0000
  S   S630      1.0  0.79364  0.34896  0.87699  1.0000
  H   H2472     1.0  0.93086  0.35115  0.78976  1.0000
  C   C1546     1.0  0.99100  0.56715  0.75617  1.0000
  C   C1547     1.0  0.82550  0.45361  0.85033  1.0000
  C   C1548     1.0  0.77770  0.38650  0.83442  1.0000
  H   H2473     1.0  0.95420  0.34918  0.75577  1.0000
  H   H2474     1.0  0.79106  0.58261  0.97932  1.0000
  H   H2475     1.0  0.76654  0.38739  0.82803  1.0000
  C   C1549     1.0  0.79388  0.40238  0.80700  1.0000
  S   S631      1.0  0.88163  0.46491  0.76855  1.0000
  H   H2476     1.0  0.73845  0.35069  0.94445  1.0000
  C   C1550     1.0  0.83077  0.33384  0.84073  1.0000
  H   H2477     1.0  0.80711  0.40290  0.79735  1.0000
  C   C1551     1.0  0.80946  0.38522  0.83051  1.0000
  H   H2478     1.0  0.77811  0.37425  0.84534  1.0000
  N   N153      1.0  0.79523  0.38605  0.82140  1.0000
  Fe  Fe318     1.0  0.97028  0.48624  0.78409  1.0000
  Fe  Fe319     1.0  0.76349  0.35356  0.88570  1.0000
  H   H2479     1.0  0.82287  0.38495  0.82103  1.0000
  H   H2480     1.0  0.81089  0.37301  0.84140  1.0000
  C   C1552     1.0  0.94322  0.53853  0.76917  1.0000
  H   H2481     1.0  0.82211  0.44195  0.88602  1.0000
  H   H2482     1.0  0.83891  0.50090  0.88800  1.0000
  H   H2483     1.0  0.97963  0.48033  0.84441  1.0000
  H   H2484     1.0  0.81703  0.32590  0.95747  1.0000
  C   C1553     1.0  0.78630  0.44442  0.83350  1.0000
  C   C1554     1.0  0.81761  0.42490  0.86381  1.0000
  H   H2485     1.0  0.91122  0.43137  0.74831  1.0000
  H   H2486     1.0  0.89229  0.39707  0.80471  1.0000
  S   S632      1.0  0.75111  0.43522  0.92075  1.0000
  C   C1555     1.0  0.79991  0.37009  0.81369  1.0000
  H   H2487     1.0  0.78984  0.37052  0.80615  1.0000
  Fe  Fe320     1.0  0.75826  0.48830  0.86884  1.0000
  H   H2488     1.0  0.93983  0.38000  0.78220  1.0000
  Fe  Fe321     1.0  0.88304  0.33863  0.77724  1.0000
  H   H2489     1.0  0.90121  0.37913  0.82140  1.0000
  S   S633      1.0  0.83992  0.46410  0.76937  1.0000
  H   H2490     1.0  0.85938  0.43400  0.84621  1.0000
  H   H2491     1.0  0.80025  0.35761  0.82432  1.0000
  H   H2492     1.0  0.81348  0.36884  0.80441  1.0000
  H   H2493     1.0  0.81213  0.63268  0.78885  1.0000
  C   C1556     1.0  0.79873  0.34061  0.94016  1.0000
  H   H2494     1.0  0.90831  0.34933  0.80181  1.0000
  H   H2495     1.0  0.96806  0.45839  0.81960  1.0000
  C   C1557     1.0  0.75203  0.39032  0.90627  1.0000
  H   H2496     1.0  0.97302  0.52966  0.80994  1.0000
  C   C1558     1.0  0.83277  0.50197  0.91579  1.0000
  S   S634      1.0  0.86827  0.42639  0.78245  1.0000
  H   H2497     1.0  0.76024  0.32623  0.95859  1.0000
  C   C1559     1.0  0.91921  0.35648  0.79988  1.0000
  C   C1560     1.0  0.92763  0.38496  0.79208  1.0000
  H   H2498     1.0  0.74659  0.41973  0.86710  1.0000
  H   H2499     1.0  0.73603  0.48726  0.94727  1.0000
  S   S635      1.0  0.98952  0.50142  0.78538  1.0000
  N   N154      1.0  0.83162  0.43521  0.86027  1.0000
  H   H2500     1.0  0.90609  0.48522  0.81607  1.0000
  C   C1561     1.0  0.99673  0.57559  0.76616  1.0000
  H   H2501     1.0  0.96761  0.32953  0.76727  1.0000
  C   C1562     1.0  0.98612  0.55365  0.83128  1.0000
  S   S636      1.0  0.84244  0.50537  0.78580  1.0000
  S   S637      1.0  0.97857  0.37897  0.75761  1.0000
  S   S638      1.0  0.74879  0.38175  0.87651  1.0000
  H   H2502     1.0  0.96979  0.42502  0.86246  1.0000
  H   H2503     1.0  0.94122  0.43311  0.78952  1.0000
  C   C1563     1.0  0.96025  0.33471  0.75626  1.0000
  N   N155      1.0  0.73132  0.32999  0.96727  1.0000
  C   C1564     1.0  0.89735  0.38234  0.80830  1.0000
  C   C1565     1.0  0.75083  0.42053  0.90813  1.0000
  C   C1566     1.0  0.74989  0.39656  0.88863  1.0000
  C   C1567     1.0  0.94185  0.45820  0.79431  1.0000
  H   H2504     1.0  0.97075  0.51536  0.84247  1.0000
  H   H2505     1.0  0.99038  0.58932  0.76684  1.0000
  H   H2506     1.0  0.87209  0.50557  0.75414  1.0000
  C   C1568     1.0  0.93209  0.47270  0.80212  1.0000
  H   H2507     1.0  0.90206  0.39509  0.77283  1.0000
  H   H2508     1.0  0.78573  0.43076  0.84034  1.0000
  C   C1569     1.0  0.75231  0.40231  0.91605  1.0000
  H   H2509     1.0  0.75356  0.39751  0.92979  1.0000
  Fe  Fe322     1.0  0.79344  0.33152  0.90436  1.0000
  H   H2510     1.0  0.98601  0.40069  0.77747  1.0000
  H   H2511     1.0  0.71086  0.47498  0.96893  1.0000
  N   N156      1.0  0.71047  0.65434  0.96612  1.0000
  H   H2512     1.0  0.77755  0.43825  0.93748  1.0000
  N   N157      1.0  0.97234  0.33173  0.73905  1.0000
  C   C1570     1.0  0.77775  0.35560  0.96928  1.0000
  H   H2513     1.0  0.75388  0.42009  0.95542  1.0000
  S   S639      1.0  0.73544  0.48540  0.89303  1.0000
  Fe  Fe323     1.0  0.79143  0.32467  0.86958  1.0000
  S   S640      1.0  0.81112  0.33018  0.92248  1.0000
  H   H2514     1.0  0.84147  0.51104  0.91371  1.0000
  H   H2515     1.0  0.81519  0.42377  0.85115  1.0000
  H   H2516     1.0  0.91601  0.44035  0.76433  1.0000
  H   H2517     1.0  0.75558  0.42781  0.97366  1.0000
  C   C1571     1.0  0.96361  0.44990  0.83291  1.0000
  H   H2518     1.0  0.82160  0.41107  0.87164  1.0000
  H   H2519     1.0  0.87440  0.41121  0.75221  1.0000
  H   H2520     1.0  0.99636  0.43469  0.84048  1.0000
  C   C1572     1.0  0.80995  0.47889  0.92111  1.0000
  H   H2521     1.0  0.99301  0.43093  0.76778  1.0000
  S   S641      1.0  0.99112  0.53866  0.74345  1.0000
  Fe  Fe324     1.0  0.99342  0.50935  0.75569  1.0000
  H   H2522     1.0  0.89833  0.54109  0.78701  1.0000
  C   C1573     1.0  0.83074  0.32433  0.81450  1.0000
  H   H2523     1.0  0.90377  0.55813  0.75562  1.0000
  H   H2524     1.0  0.94919  0.32745  0.75996  1.0000
  H   H2525     1.0  0.84642  0.42537  0.83665  1.0000
  C   C1574     1.0  0.97217  0.52827  0.84411  1.0000
  C   C1575     1.0  0.84856  0.42640  0.84951  1.0000
  S   S642      1.0  0.97232  0.49604  0.75475  1.0000
  H   H2526     1.0  0.78613  0.51833  0.93461  1.0000
  N   N158      1.0  0.92426  0.53993  0.76874  1.0000
  H   H2527     1.0  0.77315  0.62837  0.92980  1.0000
  C   C1576     1.0  0.75786  0.60318  0.97044  1.0000
  S   S643      1.0  0.87393  0.34862  0.75139  1.0000
  C   C1577     1.0  0.92523  0.63941  0.76882  1.0000
  H   H2528     1.0  0.71465  0.35332  0.95391  1.0000
  H   H2529     1.0  0.76363  0.53777  0.95451  1.0000
  H   H2530     1.0  0.80976  0.50498  0.84688  1.0000
  N   N159      1.0  0.80165  0.52710  0.82594  1.0000
  H   H2531     1.0  0.81595  0.50002  0.82501  1.0000
  C   C1578     1.0  0.94135  0.60415  0.78293  1.0000
  C   C1579     1.0  0.95068  0.61782  0.77906  1.0000
  C   C1580     1.0  0.73878  0.49109  0.95846  1.0000
  S   S644      1.0  0.73402  0.52203  0.91951  1.0000
  C   C1581     1.0  0.78694  0.53682  0.83815  1.0000
  C   C1582     1.0  0.79613  0.52999  0.80895  1.0000
  H   H2532     1.0  0.97397  0.40590  0.85308  1.0000
  H   H2533     1.0  0.99461  0.56083  0.81934  1.0000
  C   C1583     1.0  0.76201  0.60900  0.95186  1.0000
  S   S645      1.0  0.71922  0.62205  0.91346  1.0000
  Fe  Fe325     1.0  0.75826  0.63830  0.87677  1.0000
  C   C1584     1.0  0.98743  0.40760  0.76359  1.0000
  S   S646      1.0  0.91193  0.33908  0.76480  1.0000
  H   H2534     1.0  0.97385  0.43180  0.80658  1.0000
  Fe  Fe326     1.0  0.72928  0.61755  0.88566  1.0000
  S   S647      1.0  0.71744  0.60142  0.87488  1.0000
  C   C1585     1.0  0.96924  0.42416  0.82031  1.0000
  S   S648      1.0  0.75837  0.60915  0.88735  1.0000
  Fe  Fe327     1.0  0.87108  0.58838  0.75096  1.0000
  S   S649      1.0  0.87204  0.57821  0.77978  1.0000
  H   H2535     1.0  0.82711  0.64969  0.79952  1.0000
  Fe  Fe328     1.0  0.86106  0.62721  0.75381  1.0000
  S   S650      1.0  0.86146  0.62031  0.78301  1.0000
  Fe  Fe329     1.0  0.88670  0.59991  0.77504  1.0000
  Fe  Fe330     1.0  0.84678  0.59918  0.78507  1.0000
  S   S651      1.0  0.82213  0.59219  0.80554  1.0000
  H   H2536     1.0  0.69146  0.62810  0.89299  1.0000
  S   S652      1.0  0.84450  0.60753  0.75643  1.0000
  C   C1586     1.0  0.79371  0.63013  0.84345  1.0000
  C   C1587     1.0  0.78463  0.61855  0.84100  1.0000
  C   C1588     1.0  0.79364  0.60656  0.82973  1.0000
  C   C1589     1.0  0.81172  0.60616  0.82081  1.0000
  C   C1590     1.0  0.82093  0.61742  0.82361  1.0000
  C   C1591     1.0  0.81192  0.62942  0.83487  1.0000
  H   H2537     1.0  0.77050  0.61918  0.84736  1.0000
  H   H2538     1.0  0.78644  0.59790  0.82761  1.0000
  H   H2539     1.0  0.83500  0.61684  0.81714  1.0000
  S   S653      1.0  0.78209  0.64647  0.85597  1.0000
  C   C1592     1.0  0.72860  0.54389  0.90693  1.0000
  C   C1593     1.0  0.72299  0.55820  0.91554  1.0000
  C   C1594     1.0  0.71974  0.57585  0.90565  1.0000
  C   C1595     1.0  0.72134  0.57926  0.88720  1.0000
  C   C1596     1.0  0.72634  0.56493  0.87863  1.0000
  C   C1597     1.0  0.73024  0.54724  0.88846  1.0000
  H   H2540     1.0  0.72135  0.55572  0.92985  1.0000
  H   H2541     1.0  0.71567  0.58680  0.91239  1.0000
  H   H2542     1.0  0.72754  0.56752  0.86436  1.0000
  H   H2543     1.0  0.73432  0.53623  0.88176  1.0000
  C   C1598     1.0  0.86763  0.55063  0.74736  1.0000
  C   C1599     1.0  0.99420  0.47791  0.84002  1.0000
  Fe  Fe331     1.0  0.74845  0.61634  0.91408  1.0000
  S   S654      1.0  0.91237  0.59085  0.78500  1.0000
  H   H2544     1.0  0.79692  0.64409  0.77424  1.0000
  H   H2545     1.0  0.95548  0.43524  0.75231  1.0000
  C   C1600     1.0  0.76952  0.62406  0.94417  1.0000
  C   C1601     1.0  0.92394  0.60809  0.77977  1.0000
  S   S655      1.0  0.75850  0.49415  0.83975  1.0000
  S   S656      1.0  0.82299  0.50504  0.95053  1.0000
  H   H2546     1.0  0.88873  0.38050  0.74745  1.0000
  H   H2547     1.0  0.79364  0.54440  0.80217  1.0000
  C   C1602     1.0  0.85216  0.52251  0.77046  1.0000
  C   C1603     1.0  0.86676  0.51906  0.75620  1.0000
  H   H2548     1.0  0.70588  0.50685  0.95206  1.0000
  C   C1604     1.0  0.71757  0.32830  0.98422  1.0000
  C   C1605     1.0  0.85294  0.55401  0.76147  1.0000
  C   C1606     1.0  0.84516  0.54004  0.77288  1.0000
  S   S657      1.0  0.99539  0.37730  0.83609  1.0000
  H   H2549     1.0  0.84739  0.56745  0.76358  1.0000
  H   H2550     1.0  0.83368  0.54292  0.78358  1.0000
  C   C1607     1.0  0.98499  0.39964  0.75110  1.0000
  C   C1608     1.0  0.74960  0.32465  0.97110  1.0000
  H   H2551     1.0  0.94760  0.59054  0.78842  1.0000
  H   H2552     1.0  0.74935  0.54267  0.93901  1.0000
  C   C1609     1.0  0.76799  0.62792  0.97368  1.0000
  H   H2553     1.0  0.92638  0.55678  0.74234  1.0000
  H   H2554     1.0  0.96408  0.61469  0.78160  1.0000
  H   H2555     1.0  0.91887  0.56860  0.76012  1.0000
  N   N160      1.0  0.72199  0.49541  0.97191  1.0000
  H   H2556     1.0  0.76070  0.55707  0.90673  1.0000
  H   H2557     1.0  0.78351  0.52524  0.81118  1.0000
  H   H2558     1.0  0.90248  0.62878  0.77008  1.0000
  H   H2559     1.0  0.99465  0.47138  0.81551  1.0000
  Fe  Fe332     1.0  0.72198  0.65028  0.90093  1.0000
  Fe  Fe333     1.0  0.98196  0.64077  0.77279  1.0000
  H   H2560     1.0  0.94836  0.52611  0.77857  1.0000
  N   N161      1.0  0.77630  0.54669  0.92702  1.0000
  S   S658      1.0  0.76930  0.50647  0.87782  1.0000
  C   C1610     1.0  0.94258  0.63549  0.77215  1.0000
  H   H2561     1.0  0.84472  0.44432  0.87524  1.0000
  C   C1611     1.0  0.85234  0.34135  0.81305  1.0000
  C   C1612     1.0  0.80451  0.33565  0.95623  1.0000
  H   H2562     1.0  0.80392  0.47982  0.94888  1.0000
  N   N162      1.0  0.67281  0.64556  0.87723  1.0000
  C   C1613     1.0  0.99136  0.42475  0.75812  1.0000
  H   H2563     1.0  0.79497  0.54109  0.94402  1.0000
  H   H2564     1.0  0.82974  0.52634  0.81375  1.0000
  C   C1614     1.0  0.77267  0.63341  0.95507  1.0000
  Fe  Fe334     1.0  0.74834  0.50142  0.90301  1.0000
  C   C1615     1.0  0.82262  0.49633  0.93290  1.0000
  H   H2565     1.0  0.83592  0.46166  0.84709  1.0000
  C   C1616     1.0  0.87445  0.53317  0.74457  1.0000
  H   H2566     1.0  0.77414  0.53222  0.84083  1.0000
  H   H2567     1.0  0.75461  0.56049  0.94491  1.0000
  H   H2568     1.0  0.94460  0.55014  0.77346  1.0000
  C   C1617     1.0  0.92230  0.43355  0.75298  1.0000
  H   H2569     1.0  0.99285  0.55059  0.84265  1.0000
  H   H2570     1.0  0.80323  0.55110  0.92115  1.0000
  H   H2571     1.0  0.82247  0.53228  0.83509  1.0000
  Fe  Fe335     1.0  0.99415  0.36089  0.81805  1.0000
  S   S659      1.0  0.75059  0.64499  0.90386  1.0000
  H   H2572     1.0  0.76636  0.57375  0.91395  1.0000
  H   H2573     1.0  0.97620  0.40992  0.82064  1.0000
  S   S660      1.0  0.72976  0.64629  0.87278  1.0000
  C   C1618     1.0  0.78255  0.52874  0.92284  1.0000
  C   C1619     1.0  0.80524  0.50775  0.83417  1.0000
  C   C1620     1.0  0.79090  0.55106  0.93214  1.0000
  C   C1621     1.0  0.76026  0.54689  0.94199  1.0000
  S   S661      1.0  0.99110  0.46079  0.78195  1.0000
  H   H2574     1.0  0.94872  0.45154  0.83509  1.0000
  H   H2575     1.0  0.93176  0.52364  0.74935  1.0000
  S   S662      1.0  0.76119  0.33049  0.87618  1.0000
  H   H2576     1.0  0.69886  0.63869  0.86000  1.0000
  H   H2577     1.0  0.78335  0.56064  0.89965  1.0000
  H   H2578     1.0  0.79482  0.52800  0.91179  1.0000
  H   H2579     1.0  0.78806  0.49352  0.80917  1.0000
  C   C1622     1.0  0.84510  0.34216  0.83098  1.0000
  C   C1623     1.0  0.81824  0.53381  0.82248  1.0000
  H   H2580     1.0  0.72568  0.62895  0.96008  1.0000
  C   C1624     1.0  0.91593  0.62569  0.77256  1.0000
  H   H2581     1.0  0.91309  0.55195  0.79157  1.0000
  H   H2582     1.0  0.79048  0.53474  0.85123  1.0000
  H   H2583     1.0  0.77192  0.52506  0.91876  1.0000
  H   H2584     1.0  0.81627  0.54827  0.81575  1.0000
  H   H2585     1.0  0.75107  0.33301  0.97948  1.0000
  H   H2586     1.0  0.78654  0.56451  0.93549  1.0000
  H   H2587     1.0  0.95220  0.42097  0.85483  1.0000
  S   S663      1.0  0.75701  0.59773  0.93855  1.0000
  S   S664      1.0  0.98950  0.62323  0.79808  1.0000
  H   H2588     1.0  0.79290  0.50233  0.83730  1.0000
  S   S665      1.0  0.95412  0.65266  0.76767  1.0000
  H   H2589     1.0  0.80674  0.52262  0.79946  1.0000
  C   C1625     1.0  0.91271  0.54022  0.78681  1.0000
  C   C1626     1.0  0.77149  0.56010  0.91112  1.0000
  H   H2590     1.0  0.78756  0.39562  0.98220  1.0000
  C   C1627     1.0  0.96699  0.42028  0.85186  1.0000
  C   C1628     1.0  0.99305  0.43379  0.74015  1.0000
  H   H2591     1.0  0.78622  0.41830  0.98283  1.0000
  H   H2592     1.0  0.68577  0.65102  0.89488  1.0000
  H   H2593     1.0  0.67781  0.61849  0.87432  1.0000
  H   H2594     1.0  0.97801  0.52514  0.85611  1.0000
  Fe  Fe336     1.0  0.90346  0.34666  0.73890  1.0000
  C   C1629     1.0  0.82354  0.32503  0.83244  1.0000
  H   H2595     1.0  0.93031  0.42020  0.75833  1.0000
  C   C1630     1.0  0.88492  0.40925  0.74049  1.0000
  C   C1631     1.0  0.99845  0.54908  0.75592  1.0000
  C   C1632     1.0  0.71406  0.47944  0.97950  1.0000
  C   C1633     1.0  0.97511  0.54179  0.81267  1.0000
  H   H2596     1.0  0.77842  0.64510  0.94909  1.0000
  H   H2597     1.0  0.98356  0.54839  0.80029  1.0000
  S   S666      1.0  0.99398  0.48842  0.86978  1.0000
  N   N163      1.0  0.93382  0.44414  0.73842  1.0000
  H   H2598     1.0  0.94085  0.45623  0.75574  1.0000
  H   H2599     1.0  0.70798  0.63996  0.94811  1.0000
  H   H2600     1.0  0.75826  0.40423  0.97531  1.0000
  H   H2601     1.0  0.75210  0.59150  0.97642  1.0000
  C   C1634     1.0  0.69790  0.64601  0.98167  1.0000
  H   H2602     1.0  0.80541  0.40673  0.96895  1.0000
  C   C1635     1.0  0.94736  0.44785  0.74564  1.0000
  Fe  Fe337     1.0  0.80203  0.49720  0.97476  1.0000
  H   H2603     1.0  0.69606  0.51382  0.97295  1.0000
  C   C1636     1.0  0.79050  0.40869  0.97389  1.0000
  H   H2604     1.0  0.66981  0.63704  0.90575  1.0000
  C   C1637     1.0  0.68027  0.64021  0.89343  1.0000
  H   H2605     1.0  0.91894  0.65305  0.76344  1.0000
  H   H2606     1.0  0.73262  0.64497  0.97932  1.0000
  H   H2607     1.0  0.68198  0.65420  0.84884  1.0000
  C   C1638     1.0  0.66648  0.63048  0.87550  1.0000
  H   H2608     1.0  0.70362  0.33249  0.98180  1.0000
  H   H2609     1.0  0.81495  0.57505  0.97787  1.0000
  H   H2610     1.0  0.73213  0.51283  0.98106  1.0000
  H   H2611     1.0  0.99508  0.33622  0.74565  1.0000
  H   H2612     1.0  0.99818  0.43724  0.81704  1.0000
  H   H2613     1.0  0.80081  0.55908  0.98438  1.0000
  C   C1639     1.0  0.80154  0.57238  0.98573  1.0000
  C   C1640     1.0  0.72614  0.50079  0.98633  1.0000
  H   H2614     1.0  0.72360  0.46801  0.98608  1.0000
  H   H2615     1.0  0.91202  0.68493  0.13940  1.0000
  H   H2616     1.0  0.78451  0.77403  0.20512  1.0000
  S   S667      1.0  0.87822  0.74253  0.19682  1.0000
  C   C1641     1.0  0.68043  0.94105  0.11354  1.0000
  S   S668      1.0  0.75916  0.87221  0.22208  1.0000
  C   C1642     1.0  0.90475  0.72100  0.12589  1.0000
  H   H2617     1.0  0.92623  0.70123  0.16022  1.0000
  Fe  Fe338     1.0  0.95938  0.66780  0.12477  1.0000
  H   H2618     1.0  0.71407  0.98350  0.22064  1.0000
  S   S669      1.0  0.68470  0.66372  0.02829  1.0000
  C   C1643     1.0  0.80887  0.66454  0.16716  1.0000
  Fe  Fe339     1.0  0.83851  0.67165  0.12197  1.0000
  Fe  Fe340     1.0  0.98430  0.76258  0.21490  1.0000
  S   S670      1.0  0.93968  0.68223  0.10738  1.0000
  H   H2619     1.0  0.66846  0.88011  0.18407  1.0000
  H   H2620     1.0  0.94697  0.67060  0.22654  1.0000
  S   S671      1.0  0.95969  0.77670  0.20357  1.0000
  H   H2621     1.0  0.90184  0.68542  0.11081  1.0000
  H   H2622     1.0  0.91424  0.71339  0.11595  1.0000
  Fe  Fe341     1.0  0.96920  0.67372  0.15629  1.0000
  H   H2623     1.0  0.69565  0.72000  0.06743  1.0000
  S   S672      1.0  0.98515  0.73464  0.23104  1.0000
  H   H2624     1.0  0.88479  0.66409  0.11009  1.0000
  H   H2625     1.0  0.67299  0.91992  0.13579  1.0000
  H   H2626     1.0  0.75181  0.96339  0.21944  1.0000
  H   H2627     1.0  0.73643  0.96898  0.12875  1.0000
  H   H2628     1.0  0.69980  0.68674  0.09855  1.0000
  C   C1644     1.0  0.89310  0.72176  0.15708  1.0000
  C   C1645     1.0  0.69998  0.67584  0.06962  1.0000
  H   H2629     1.0  0.70014  0.89518  0.10173  1.0000
  C   C1646     1.0  0.68027  0.68706  0.02582  1.0000
  C   C1647     1.0  0.69437  0.69614  0.02005  1.0000
  C   C1648     1.0  0.69058  0.71469  0.01864  1.0000
  C   C1649     1.0  0.84226  0.71547  0.16926  1.0000
  H   H2630     1.0  0.88565  0.80591  0.18231  1.0000
  S   S673      1.0  0.99472  0.77139  0.23375  1.0000
  H   H2631     1.0  0.82681  0.72606  0.14870  1.0000
  C   C1650     1.0  0.97720  0.71401  0.18399  1.0000
  H   H2632     1.0  0.73606  0.91204  0.10945  1.0000
  H   H2633     1.0  0.70354  0.95989  0.17185  1.0000
  N   N164      1.0  0.68539  0.98874  0.22263  1.0000
  S   S674      1.0  0.85248  0.76666  0.22576  1.0000
  S   S675      1.0  0.97912  0.68204  0.12682  1.0000
  H   H2634     1.0  0.96597  0.72519  0.18164  1.0000
  Fe  Fe342     1.0  0.85695  0.72627  0.20539  1.0000
  C   C1651     1.0  0.71037  0.96706  0.15873  1.0000
  H   H2635     1.0  0.71863  0.69618  0.04182  1.0000
  H   H2636     1.0  0.68961  0.96795  0.20863  1.0000
  N   N165      1.0  0.70616  0.69163  0.06984  1.0000
  C   C1652     1.0  0.88878  0.79353  0.22590  1.0000
  H   H2637     1.0  0.67416  0.94690  0.07161  1.0000
  H   H2638     1.0  0.70817  0.68893  0.01651  1.0000
  C   C1653     1.0  0.93109  0.76367  0.20365  1.0000
  H   H2639     1.0  0.73645  0.93922  0.14929  1.0000
  C   C1654     1.0  0.67270  0.72425  0.02302  1.0000
  H   H2640     1.0  0.88843  0.69490  0.14499  1.0000
  H   H2641     1.0  0.90811  0.75383  0.20409  1.0000
  H   H2642     1.0  0.72634  0.96449  0.18502  1.0000
  C   C1655     1.0  0.67854  0.87176  0.17578  1.0000
  H   H2643     1.0  0.71071  0.66343  0.07147  1.0000
  H   H2644     1.0  0.68685  0.70997  0.05520  1.0000
  H   H2645     1.0  0.70155  0.72165  0.01423  1.0000
  C   C1656     1.0  0.68058  0.94874  0.09548  1.0000
  H   H2646     1.0  0.84713  0.97894  0.22392  1.0000
  C   C1657     1.0  0.79493  0.88919  0.22461  1.0000
  C   C1658     1.0  0.95233  0.68300  0.22186  1.0000
  H   H2647     1.0  0.85692  0.80362  0.21524  1.0000
  C   C1659     1.0  0.83594  0.71458  0.15477  1.0000
  S   S676      1.0  0.83350  0.75005  0.20371  1.0000
  S   S677      1.0  0.83280  0.69798  0.13030  1.0000
  N   N166      1.0  0.90607  0.71134  0.14435  1.0000
  C   C1660     1.0  0.67335  0.86517  0.16387  1.0000
  H   H2648     1.0  0.79572  0.67442  0.16731  1.0000
  C   C1661     1.0  0.90176  0.69363  0.14789  1.0000
  C   C1662     1.0  0.81183  0.67153  0.19355  1.0000
  H   H2649     1.0  0.90131  0.68648  0.16209  1.0000
  C   C1663     1.0  0.84139  0.69892  0.14811  1.0000
  S   S678      1.0  0.73620  0.65949  0.02775  1.0000
  C   C1664     1.0  0.92464  0.70894  0.14657  1.0000
  H   H2650     1.0  0.72706  0.70584  0.05475  1.0000
  H   H2651     1.0  0.94914  0.71839  0.21757  1.0000
  H   H2652     1.0  0.68252  0.84890  0.14428  1.0000
  C   C1665     1.0  0.85392  0.70060  0.17724  1.0000
  H   H2653     1.0  0.74840  0.89459  0.09763  1.0000
  C   C1666     1.0  0.85328  0.68420  0.15596  1.0000
  H   H2654     1.0  0.72772  0.94763  0.22313  1.0000
  C   C1667     1.0  0.83480  0.98409  0.23353  1.0000
  H   H2655     1.0  0.83809  0.72762  0.17423  1.0000
  H   H2656     1.0  0.93481  0.70151  0.13684  1.0000
  H   H2657     1.0  0.85806  0.67232  0.15060  1.0000
  H   H2658     1.0  0.94675  0.69113  0.21001  1.0000
  H   H2659     1.0  0.82836  0.96468  0.21396  1.0000
  C   C1668     1.0  0.85930  0.68494  0.17062  1.0000
  S   S679      1.0  0.96095  0.69558  0.17143  1.0000
  H   H2660     1.0  0.70702  0.90942  0.13063  1.0000
  C   C1669     1.0  0.91348  0.74791  0.23035  1.0000
  S   S680      1.0  0.69029  0.94958  0.12557  1.0000
  H   H2661     1.0  0.89380  0.71485  0.17114  1.0000
  C   C1670     1.0  0.72200  0.69407  0.05498  1.0000
  H   H2662     1.0  0.92825  0.72198  0.14450  1.0000
  C   C1671     1.0  0.67331  0.92581  0.12177  1.0000
  S   S681      1.0  0.86257  0.70106  0.19513  1.0000
  H   H2663     1.0  0.86850  0.67347  0.17663  1.0000
  Fe  Fe343     1.0  0.77593  0.98609  0.20408  1.0000
  C   C1672     1.0  0.91669  0.75500  0.21194  1.0000
  H   H2664     1.0  0.89088  0.72307  0.12380  1.0000
  H   H2665     1.0  0.70365  0.98151  0.15711  1.0000
  C   C1673     1.0  0.75412  0.79627  0.21834  1.0000
  C   C1674     1.0  0.71134  0.68885  0.08699  1.0000
  H   H2666     1.0  0.90809  0.73435  0.12268  1.0000
  H   H2667     1.0  0.77176  0.92067  0.23174  1.0000
  H   H2668     1.0  0.90926  0.81531  0.20255  1.0000
  H   H2669     1.0  0.69631  0.67726  0.05674  1.0000
  S   S682      1.0  0.85464  0.66681  0.09499  1.0000
  C   C1675     1.0  0.89937  0.66041  0.10748  1.0000
  H   H2670     1.0  0.87893  0.72361  0.15593  1.0000
  H   H2671     1.0  0.78437  0.89440  0.21658  1.0000
  C   C1676     1.0  0.90903  0.67244  0.10806  1.0000
  H   H2672     1.0  0.80640  0.96227  0.22741  1.0000
  H   H2673     1.0  0.82205  0.67951  0.18539  1.0000
  H   H2674     1.0  0.68641  0.96028  0.08895  1.0000
  H   H2675     1.0  0.79839  0.68098  0.19475  1.0000
  S   S683      1.0  0.66860  0.74737  0.02152  1.0000
  H   H2676     1.0  0.81475  0.66628  0.20714  1.0000
  H   H2677     1.0  0.80738  0.89342  0.21585  1.0000
  C   C1677     1.0  0.81657  0.97071  0.22354  1.0000
  H   H2678     1.0  0.89582  0.73526  0.15478  1.0000
  H   H2679     1.0  0.90474  0.79200  0.19109  1.0000
  H   H2680     1.0  0.69796  0.89003  0.13438  1.0000
  H   H2681     1.0  0.85845  0.82717  0.15970  1.0000
  H   H2682     1.0  0.93367  0.76911  0.18939  1.0000
  C   C1678     1.0  0.77168  0.94745  0.20211  1.0000
  C   C1679     1.0  0.75446  0.95277  0.21251  1.0000
  S   S684      1.0  0.72293  0.86871  0.21173  1.0000
  H   H2683     1.0  0.72259  0.67687  0.08886  1.0000
  H   H2684     1.0  0.78871  0.92851  0.18638  1.0000
  H   H2685     1.0  0.92132  0.70649  0.23039  1.0000
  Fe  Fe344     1.0  0.68257  0.97956  0.11904  1.0000
  C   C1680     1.0  0.94232  0.76510  0.21375  1.0000
  H   H2686     1.0  0.76471  0.91226  0.19070  1.0000
  H   H2687     1.0  0.96726  0.67903  0.21719  1.0000
  C   C1681     1.0  0.84223  0.81079  0.18045  1.0000
  C   C1682     1.0  0.76178  0.92358  0.19674  1.0000
  S   S685      1.0  0.78890  0.95824  0.20009  1.0000
  S   S686      1.0  0.73318  0.85352  0.16544  1.0000
  C   C1683     1.0  0.97818  0.69775  0.17993  1.0000
  C   C1684     1.0  0.77535  0.93281  0.19426  1.0000
  S   S687      1.0  0.75588  0.88386  0.17992  1.0000
  C   C1685     1.0  0.84631  0.82707  0.17019  1.0000
  H   H2688     1.0  0.71464  0.84151  0.14645  1.0000
  H   H2689     1.0  0.83807  0.85580  0.16544  1.0000
  H   H2690     1.0  0.96978  0.70616  0.22459  1.0000
  H   H2691     1.0  0.73342  0.68214  0.05615  1.0000
  C   C1686     1.0  0.83479  0.84326  0.17343  1.0000
  C   C1687     1.0  0.74451  0.92907  0.20697  1.0000
  Fe  Fe345     1.0  0.74145  0.86141  0.18657  1.0000
  C   C1688     1.0  0.86475  0.81408  0.21249  1.0000
  Fe  Fe346     1.0  0.85463  0.76609  0.19746  1.0000
  C   C1689     1.0  0.82649  0.81073  0.19402  1.0000
  H   H2692     1.0  0.82338  0.79814  0.20204  1.0000
  N   N167      1.0  0.72999  0.96420  0.15745  1.0000
  S   S688      1.0  0.85743  0.79089  0.17617  1.0000
  C   C1690     1.0  0.70993  0.85714  0.16603  1.0000
  C   C1691     1.0  0.81878  0.84331  0.18656  1.0000
  C   C1692     1.0  0.81461  0.82703  0.19692  1.0000
  C   C1693     1.0  0.74088  0.94368  0.21482  1.0000
  C   C1694     1.0  0.70463  0.85014  0.15452  1.0000
  H   H2693     1.0  0.78778  0.80132  0.21167  1.0000
  H   H2694     1.0  0.80238  0.82708  0.20727  1.0000
  H   H2695     1.0  0.74671  0.89071  0.12127  1.0000
  H   H2696     1.0  0.73414  0.86402  0.12640  1.0000
  Fe  Fe347     1.0  0.77496  0.86461  0.19640  1.0000
  S   S689      1.0  0.80468  0.86394  0.19014  1.0000
  H   H2697     1.0  0.73185  0.93721  0.17294  1.0000
  Fe  Fe348     1.0  0.73897  0.88971  0.20615  1.0000
  H   H2698     1.0  0.73613  0.86774  0.10274  1.0000
  S   S690      1.0  0.76240  0.84154  0.20049  1.0000
  H   H2699     1.0  0.77493  0.80809  0.23204  1.0000
  H   H2700     1.0  0.75959  0.80142  0.20391  1.0000
  S   S691      1.0  0.72731  0.91789  0.21006  1.0000
  N   N168      1.0  0.94747  0.69313  0.23606  1.0000
  C   C1695     1.0  0.68645  0.85433  0.15324  1.0000
  N   N169      1.0  0.72246  0.89082  0.11402  1.0000
  H   H2701     1.0  0.99339  0.67070  0.18014  1.0000
  H   H2702     1.0  0.70072  0.87351  0.18554  1.0000
  C   C1696     1.0  0.71284  0.89983  0.09937  1.0000
  H   H2703     1.0  0.81957  0.67154  0.15835  1.0000
  H   H2704     1.0  0.79528  0.92139  0.22624  1.0000
  S   S692      1.0  0.94789  0.66147  0.15415  1.0000
  H   H2705     1.0  0.70906  0.91459  0.09804  1.0000
  Fe  Fe349     1.0  0.74500  0.85062  0.22517  1.0000
  H   H2706     1.0  0.75330  0.97182  0.13830  1.0000
  C   C1697     1.0  0.73848  0.97374  0.13973  1.0000
  H   H2707     1.0  0.71602  0.70053  0.08764  1.0000
  H   H2708     1.0  0.88355  0.78525  0.19803  1.0000
  C   C1698     1.0  0.69681  0.86792  0.17673  1.0000
  H   H2709     1.0  0.71762  0.88826  0.14238  1.0000
  C   C1699     1.0  0.92788  0.66751  0.10552  1.0000
  C   C1700     1.0  0.73287  0.97116  0.17151  1.0000
  H   H2710     1.0  0.72127  0.89712  0.08629  1.0000
  C   C1701     1.0  0.78166  0.79627  0.22594  1.0000
  H   H2711     1.0  0.75295  0.94205  0.15935  1.0000
  C   C1702     1.0  0.73918  0.89733  0.11040  1.0000
  N   N170      1.0  0.88442  0.80633  0.20948  1.0000
  H   H2712     1.0  0.71474  0.86603  0.11784  1.0000
  H   H2713     1.0  0.81044  0.98408  0.21614  1.0000
  H   H2714     1.0  0.67930  0.70648  0.07895  1.0000
  C   C1703     1.0  0.73821  0.94483  0.15983  1.0000
  C   C1704     1.0  0.71073  0.89480  0.13107  1.0000
  C   C1705     1.0  0.72710  0.87130  0.11528  1.0000
  C   C1706     1.0  0.95479  0.70948  0.22912  1.0000
  C   C1707     1.0  0.69136  0.70772  0.06779  1.0000
  C   C1708     1.0  0.88985  0.79697  0.19460  1.0000
  C   C1709     1.0  0.77822  0.76976  0.21951  1.0000
  H   H2715     1.0  0.73262  0.98842  0.13758  1.0000
  H   H2716     1.0  0.86109  0.82416  0.20051  1.0000
  Fe  Fe350     1.0  0.87415  0.74165  0.22588  1.0000
  H   H2717     1.0  0.68787  0.67373  0.08046  1.0000
  H   H2718     1.0  0.70768  0.96209  0.14820  1.0000
  H   H2719     1.0  0.69574  0.96034  0.22996  1.0000
  H   H2720     1.0  0.89150  0.83058  0.19244  1.0000
  C   C1710     1.0  0.99272  0.68337  0.18296  1.0000
  H   H2721     1.0  0.79287  0.78837  0.23273  1.0000
  Fe  Fe351     1.0  0.83353  0.74844  0.23230  1.0000
  C   C1711     1.0  0.89434  0.82077  0.20486  1.0000
  H   H2722     1.0  0.88218  0.78198  0.22943  1.0000
  C   C1712     1.0  0.67384  0.94104  0.08563  1.0000
  N   N171      1.0  0.76868  0.78534  0.22764  1.0000
  C   C1713     1.0  0.68580  0.97013  0.22250  1.0000
  H   H2723     1.0  0.74410  0.78845  0.21929  1.0000
  H   H2724     1.0  0.76887  0.76120  0.22052  1.0000
  H   H2725     1.0  0.74754  0.96884  0.17122  1.0000
  H   H2726     1.0  0.67235  0.96673  0.22882  1.0000
  H   H2727     1.0  0.99008  0.72859  0.19387  1.0000
  H   H2728     1.0  0.74655  0.80808  0.22422  1.0000
  H   H2729     1.0  0.78926  0.76119  0.22626  1.0000
  C   C1714     1.0  0.99081  0.71593  0.19096  1.0000
  C   C1715     1.0  0.66704  0.92560  0.09379  1.0000
  H   H2730     1.0  0.79772  0.87432  0.22737  1.0000
  H   H2731     1.0  0.72722  0.98586  0.16978  1.0000
  H   H2732     1.0  0.99676  0.70480  0.14059  1.0000
  H   H2733     1.0  0.85999  0.82078  0.22397  1.0000
  C   C1716     1.0  0.93932  0.75765  0.23207  1.0000
  C   C1717     1.0  0.66673  0.91803  0.11190  1.0000
  S   S693      1.0  0.81558  0.66062  0.12095  1.0000
  H   H2734     1.0  0.90360  0.78795  0.22426  1.0000
  S   S694      1.0  0.85498  0.72327  0.23467  1.0000
  H   H2735     1.0  0.89054  0.82817  0.21576  1.0000
  H   H2736     1.0  0.78207  0.92152  0.24847  1.0000
  H   H2737     1.0  0.76850  0.89404  0.26546  1.0000
  C   C1718     1.0  0.97952  0.69902  0.47031  1.0000
  C   C1719     1.0  0.80260  0.79785  0.28227  1.0000
  S   S695      1.0  0.94362  0.74058  0.39287  1.0000
  C   C1720     1.0  0.91361  0.70820  0.44642  1.0000
  H   H2738     1.0  0.90195  0.71421  0.45617  1.0000
  H   H2739     1.0  0.66731  0.98792  0.24850  1.0000
  S   S696      1.0  0.85495  0.73533  0.45281  1.0000
  H   H2740     1.0  0.96383  0.72749  0.36078  1.0000
  H   H2741     1.0  0.93463  0.70653  0.41388  1.0000
  H   H2742     1.0  0.91957  0.69464  0.45355  1.0000
  H   H2743     1.0  0.83427  0.95490  0.26066  1.0000
  H   H2744     1.0  0.91984  0.69888  0.40578  1.0000
  S   S697      1.0  0.91732  0.72721  0.33100  1.0000
  H   H2745     1.0  0.85261  0.72829  0.42003  1.0000
  H   H2746     1.0  0.88897  0.69639  0.42457  1.0000
  C   C1721     1.0  0.98372  0.82560  0.44997  1.0000
  C   C1722     1.0  0.92361  0.69904  0.41816  1.0000
  N   N172      1.0  0.90791  0.70748  0.43055  1.0000
  H   H2747     1.0  0.98814  0.80758  0.42486  1.0000
  H   H2748     1.0  0.92389  0.71651  0.44270  1.0000
  H   H2749     1.0  0.88916  0.73273  0.43038  1.0000
  H   H2750     1.0  0.99764  0.83669  0.41502  1.0000
  H   H2751     1.0  0.91101  0.73401  0.41669  1.0000
  H   H2752     1.0  0.89560  0.72583  0.40964  1.0000
  H   H2753     1.0  0.98164  0.86776  0.37406  1.0000
  C   C1723     1.0  0.84001  0.84748  0.31893  1.0000
  H   H2754     1.0  0.89864  0.68310  0.44329  1.0000
  C   C1724     1.0  0.99380  0.74530  0.29071  1.0000
  H   H2755     1.0  0.79555  0.97125  0.25617  1.0000
  C   C1725     1.0  0.90063  0.72581  0.42135  1.0000
  C   C1726     1.0  0.89370  0.69703  0.43621  1.0000
  H   H2756     1.0  0.92930  0.68502  0.42444  1.0000
  H   H2757     1.0  0.88162  0.70322  0.44545  1.0000
  S   S698      1.0  0.89536  0.73750  0.24126  1.0000
  H   H2758     1.0  0.76168  0.93934  0.39847  1.0000
  H   H2759     1.0  0.94804  0.75870  0.23983  1.0000
  C   C1727     1.0  0.94953  0.73054  0.36104  1.0000
  C   C1728     1.0  0.92505  0.73087  0.34794  1.0000
  H   H2760     1.0  0.95330  0.72155  0.33683  1.0000
  C   C1729     1.0  0.98379  0.82297  0.38823  1.0000
  C   C1730     1.0  0.94358  0.72709  0.34755  1.0000
  H   H2761     1.0  0.79762  0.80497  0.48469  1.0000
  H   H2762     1.0  0.98091  0.72974  0.47683  1.0000
  H   H2763     1.0  0.96544  0.70309  0.46820  1.0000
  C   C1731     1.0  0.93689  0.73742  0.37505  1.0000
  H   H2764     1.0  0.84743  0.83716  0.27845  1.0000
  H   H2765     1.0  0.81626  0.89484  0.24258  1.0000
  H   H2766     1.0  0.80003  0.89477  0.26347  1.0000
  C   C1732     1.0  0.77198  0.95285  0.47281  1.0000
  C   C1733     1.0  0.99239  0.75037  0.31973  1.0000
  H   H2767     1.0  0.85458  0.74714  0.38929  1.0000
  C   C1734     1.0  0.92485  0.74916  0.24039  1.0000
  H   H2768     1.0  0.70402  0.97427  0.46255  1.0000
  C   C1735     1.0  0.85361  0.74207  0.41748  1.0000
  H   H2769     1.0  0.92335  0.70608  0.25229  1.0000
  H   H2770     1.0  0.78196  0.96643  0.42032  1.0000
  H   H2771     1.0  0.94943  0.78887  0.27417  1.0000
  C   C1736     1.0  0.74664  0.93651  0.32949  1.0000
  H   H2772     1.0  0.78312  0.98709  0.43801  1.0000
  C   C1737     1.0  0.93753  0.76747  0.30513  1.0000
  H   H2773     1.0  0.79211  0.82899  0.29228  1.0000
  H   H2774     1.0  0.93452  0.78161  0.30633  1.0000
  S   S699      1.0  0.98927  0.73305  0.27799  1.0000
  C   C1738     1.0  0.95145  0.77460  0.27380  1.0000
  C   C1739     1.0  0.85414  0.74913  0.43149  1.0000
  C   C1740     1.0  0.74629  0.83115  0.26918  1.0000
  H   H2775     1.0  0.85600  0.77250  0.43874  1.0000
  H   H2776     1.0  0.91629  0.79005  0.28328  1.0000
  Fe  Fe352     1.0  0.87212  0.78106  0.31144  1.0000
  C   C1741     1.0  0.83000  0.79581  0.29126  1.0000
  C   C1742     1.0  0.75080  0.81758  0.29927  1.0000
  H   H2777     1.0  0.74877  0.92774  0.34258  1.0000
  C   C1743     1.0  0.98203  0.72984  0.46259  1.0000
  C   C1744     1.0  0.80405  0.88983  0.25086  1.0000
  H   H2778     1.0  0.75936  0.95853  0.28444  1.0000
  S   S700      1.0  0.78976  0.86990  0.30184  1.0000
  C   C1745     1.0  0.84921  0.83638  0.29160  1.0000
  H   H2779     1.0  0.69857  0.98706  0.44160  1.0000
  C   C1746     1.0  0.77936  0.98069  0.41497  1.0000
  C   C1747     1.0  0.74739  0.93128  0.47953  1.0000
  C   C1748     1.0  0.86210  0.82241  0.29898  1.0000
  H   H2780     1.0  0.87563  0.81585  0.47387  1.0000
  H   H2781     1.0  0.92237  0.74362  0.25462  1.0000
  H   H2782     1.0  0.99935  0.72243  0.43062  1.0000
  C   C1749     1.0  0.78058  0.93469  0.28660  1.0000
  H   H2783     1.0  0.92901  0.74112  0.29436  1.0000
  C   C1750     1.0  0.80680  0.82292  0.29079  1.0000
  N   N173      1.0  0.81028  0.80320  0.29435  1.0000
  H   H2784     1.0  0.83681  0.79965  0.27700  1.0000
  C   C1751     1.0  0.75405  0.84805  0.28598  1.0000
  H   H2785     1.0  0.82802  0.85957  0.29607  1.0000
  H   H2786     1.0  0.75348  0.79055  0.25327  1.0000
  C   C1752     1.0  0.91942  0.77561  0.28300  1.0000
  H   H2787     1.0  0.74907  0.85847  0.25938  1.0000
  C   C1753     1.0  0.79796  0.92719  0.28981  1.0000
  H   H2788     1.0  0.77608  0.87432  0.25629  1.0000
  H   H2789     1.0  0.95252  0.73901  0.29225  1.0000
  H   H2790     1.0  0.92151  0.68618  0.24722  1.0000
  H   H2791     1.0  0.83633  0.80079  0.29914  1.0000
  H   H2792     1.0  0.97860  0.69811  0.48469  1.0000
  Fe  Fe353     1.0  0.99804  0.74259  0.24837  1.0000
  C   C1754     1.0  0.74991  0.84697  0.27033  1.0000
  Fe  Fe354     1.0  0.78947  0.98407  0.31935  1.0000
  H   H2793     1.0  0.96510  0.76766  0.27633  1.0000
  S   S701      1.0  0.76801  0.92116  0.28383  1.0000
  C   C1755     1.0  0.94072  0.74716  0.28647  1.0000
  S   S702      1.0  0.87548  0.75329  0.30828  1.0000
  H   H2794     1.0  0.87434  0.81072  0.32173  1.0000
  H   H2795     1.0  0.81371  0.82856  0.27702  1.0000
  H   H2796     1.0  0.80406  0.91329  0.28951  1.0000
  S   S703      1.0  0.87349  0.80465  0.28840  1.0000
  H   H2797     1.0  0.73073  0.95649  0.44616  1.0000
  H   H2798     1.0  0.74379  0.80430  0.28298  1.0000
  H   H2799     1.0  0.78682  0.80136  0.31587  1.0000
  C   C1756     1.0  0.74673  0.81650  0.28370  1.0000
  Fe  Fe355     1.0  0.99597  0.76782  0.35367  1.0000
  C   C1757     1.0  0.70628  0.98621  0.45165  1.0000
  C   C1758     1.0  0.75446  0.83331  0.30046  1.0000
  H   H2800     1.0  0.75665  0.86029  0.28699  1.0000
  C   C1759     1.0  0.77267  0.95260  0.28722  1.0000
  H   H2801     1.0  0.83319  0.78095  0.29524  1.0000
  H   H2802     1.0  0.75104  0.80618  0.31046  1.0000
  C   C1760     1.0  0.85484  0.75269  0.40005  1.0000
  H   H2803     1.0  0.92741  0.76078  0.31554  1.0000
  N   N174      1.0  0.93728  0.76621  0.28709  1.0000
  H   H2804     1.0  0.95097  0.76075  0.30847  1.0000
  C   C1761     1.0  0.83805  0.84886  0.30166  1.0000
  H   H2805     1.0  0.75523  0.94647  0.32577  1.0000
  S   S704      1.0  0.76033  0.83365  0.31994  1.0000
  Fe  Fe356     1.0  0.77141  0.89640  0.30528  1.0000
  H   H2806     1.0  0.95167  0.77408  0.25998  1.0000
  H   H2807     1.0  0.75176  0.92811  0.31937  1.0000
  C   C1762     1.0  0.78166  0.96266  0.29220  1.0000
  H   H2808     1.0  0.77526  0.97635  0.29322  1.0000
  C   C1763     1.0  0.83549  0.74668  0.29260  1.0000
  H   H2809     1.0  0.84248  0.74850  0.26414  1.0000
  C   C1764     1.0  0.80737  0.93755  0.29383  1.0000
  H   H2810     1.0  0.80710  0.80007  0.32263  1.0000
  C   C1765     1.0  0.79906  0.95515  0.29539  1.0000
  H   H2811     1.0  0.90839  0.76977  0.29290  1.0000
  C   C1766     1.0  0.83169  0.74822  0.27597  1.0000
  H   H2812     1.0  0.84916  0.74572  0.29344  1.0000
  C   C1767     1.0  0.81400  0.74938  0.27475  1.0000
  S   S705      1.0  0.80860  0.75262  0.25397  1.0000
  C   C1768     1.0  0.86435  0.82140  0.31600  1.0000
  H   H2813     1.0  0.94351  0.74535  0.27260  1.0000
  H   H2814     1.0  0.78656  0.74948  0.28944  1.0000
  C   C1769     1.0  0.80408  0.74693  0.30683  1.0000
  C   C1770     1.0  0.82165  0.74613  0.30806  1.0000
  C   C1771     1.0  0.80024  0.74867  0.29024  1.0000
  H   H2815     1.0  0.79334  0.74642  0.31875  1.0000
  H   H2816     1.0  0.91872  0.77466  0.26958  1.0000
  H   H2817     1.0  0.82075  0.93168  0.29647  1.0000
  H   H2818     1.0  0.73013  0.94976  0.30188  1.0000
  Fe  Fe357     1.0  0.88191  0.78078  0.46038  1.0000
  S   S706      1.0  0.85535  0.77369  0.47479  1.0000
  S   S707      1.0  0.88027  0.80685  0.44043  1.0000
  C   C1772     1.0  0.80175  0.79622  0.31310  1.0000
  N   N175      1.0  0.90767  0.79363  0.39100  1.0000
  S   S708      1.0  0.88881  0.77312  0.33191  1.0000
  C   C1773     1.0  0.91844  0.74138  0.37523  1.0000
  H   H2819     1.0  0.75019  0.98249  0.45176  1.0000
  H   H2820     1.0  0.80528  0.92165  0.36894  1.0000
  H   H2821     1.0  0.97764  0.71690  0.43677  1.0000
  Fe  Fe358     1.0  0.76264  0.89491  0.45981  1.0000
  S   S709      1.0  0.74115  0.87933  0.46686  1.0000
  S   S710      1.0  0.75922  0.92375  0.44629  1.0000
  Fe  Fe359     1.0  0.76422  0.85801  0.45682  1.0000
  S   S711      1.0  0.76323  0.84243  0.43780  1.0000
  C   C1774     1.0  0.73541  0.98373  0.45735  1.0000
  S   S712      1.0  0.78515  0.87460  0.44782  1.0000
  Fe  Fe360     1.0  0.79764  0.87049  0.32653  1.0000
  S   S713      1.0  0.77624  0.85714  0.34563  1.0000
  S   S714      1.0  0.82522  0.86176  0.33243  1.0000
  H   H2822     1.0  0.80857  0.80295  0.26799  1.0000
  Fe  Fe361     1.0  0.98050  0.78315  0.38695  1.0000
  Fe  Fe362     1.0  0.75897  0.88473  0.34510  1.0000
  S   S715      1.0  0.74253  0.89641  0.36868  1.0000
  S   S716      1.0  0.86500  0.74213  0.35272  1.0000
  S   S717      1.0  0.78140  0.89797  0.32824  1.0000
  H   H2823     1.0  0.80522  0.78306  0.28456  1.0000
  H   H2824     1.0  0.76154  0.89384  0.24605  1.0000
  H   H2825     1.0  0.89591  0.82045  0.37876  1.0000
  S   S718      1.0  0.97902  0.75645  0.40525  1.0000
  C   C1775     1.0  0.95522  0.68197  0.25146  1.0000
  C   C1776     1.0  0.72544  0.95729  0.31276  1.0000
  C   C1777     1.0  0.79056  0.92687  0.37374  1.0000
  C   C1778     1.0  0.92757  0.69814  0.24176  1.0000
  S   S719      1.0  0.96769  0.77913  0.36713  1.0000
  H   H2826     1.0  0.72675  0.96959  0.42479  1.0000
  H   H2827     1.0  0.72914  0.96580  0.34189  1.0000
  H   H2828     1.0  0.71804  0.92212  0.34744  1.0000
  C   C1779     1.0  0.85552  0.76692  0.42808  1.0000
  H   H2829     1.0  0.75881  0.91781  0.41176  1.0000
  H   H2830     1.0  0.90862  0.74717  0.38567  1.0000
  H   H2831     1.0  0.70205  0.93772  0.33519  1.0000
  H   H2832     1.0  0.70664  0.96331  0.34471  1.0000
  N   N176      1.0  0.72575  0.98494  0.44351  1.0000
  Fe  Fe363     1.0  0.77141  0.98614  0.35802  1.0000
  S   S720      1.0  0.76617  0.97354  0.33864  1.0000
  H   H2833     1.0  0.89825  0.74126  0.36209  1.0000
  C   C1780     1.0  0.75526  0.85724  0.41945  1.0000
  C   C1781     1.0  0.74983  0.87562  0.41884  1.0000
  C   C1782     1.0  0.74459  0.88749  0.40365  1.0000
  C   C1783     1.0  0.74575  0.88113  0.38867  1.0000
  C   C1784     1.0  0.75056  0.86271  0.38947  1.0000
  C   C1785     1.0  0.75501  0.85076  0.40499  1.0000
  H   H2834     1.0  0.74977  0.88074  0.42999  1.0000
  H   H2835     1.0  0.74006  0.90162  0.40338  1.0000
  H   H2836     1.0  0.75048  0.85766  0.37830  1.0000
  H   H2837     1.0  0.75841  0.83653  0.40574  1.0000
  C   C1786     1.0  0.89183  0.80849  0.38849  1.0000
  H   H2838     1.0  0.98525  0.83661  0.45507  1.0000
  Fe  Fe364     1.0  0.86793  0.74755  0.46669  1.0000
  H   H2839     1.0  0.75094  0.77077  0.24859  1.0000
  Fe  Fe365     1.0  0.96868  0.75146  0.38410  1.0000
  H   H2840     1.0  0.72165  0.94699  0.35774  1.0000
  C   C1787     1.0  0.73306  0.96880  0.43588  1.0000
  H   H2841     1.0  0.73795  0.92281  0.48217  1.0000
  H   H2842     1.0  0.96814  0.73468  0.45994  1.0000
  C   C1788     1.0  0.86314  0.82188  0.45151  1.0000
  C   C1789     1.0  0.84796  0.83136  0.44440  1.0000
  C   C1790     1.0  0.83347  0.84198  0.45429  1.0000
  N   N177      1.0  0.78916  0.89596  0.24125  1.0000
  H   H2843     1.0  0.80917  0.98095  0.26390  1.0000
  C   C1791     1.0  0.83444  0.84348  0.47102  1.0000
  H   H2844     1.0  0.84717  0.83002  0.43155  1.0000
  H   H2845     1.0  0.82154  0.84889  0.44903  1.0000
  H   H2846     1.0  0.97319  0.83123  0.44189  1.0000
  S   S721      1.0  0.79450  0.98868  0.46950  1.0000
  H   H2847     1.0  0.88448  0.81263  0.40131  1.0000
  N   N178      1.0  0.78393  0.91759  0.39228  1.0000
  H   H2848     1.0  0.83140  0.82301  0.36593  1.0000
  C   C1792     1.0  0.97629  0.84135  0.38506  1.0000
  C   C1793     1.0  0.91255  0.73821  0.36171  1.0000
  Fe  Fe366     1.0  0.88982  0.74511  0.33092  1.0000
  S   S722      1.0  0.81041  0.96785  0.30126  1.0000
  S   S723      1.0  0.82551  0.74518  0.32903  1.0000
  H   H2849     1.0  0.73370  0.97184  0.46843  1.0000
  H   H2850     1.0  0.98298  0.72912  0.31585  1.0000
  H   H2851     1.0  0.97026  0.67811  0.24757  1.0000
  H   H2852     1.0  0.74793  0.96684  0.43041  1.0000
  H   H2853     1.0  0.78336  0.92519  0.36436  1.0000
  C   C1794     1.0  0.79016  0.81286  0.38464  1.0000
  C   C1795     1.0  0.75930  0.93407  0.46284  1.0000
  H   H2854     1.0  0.91368  0.80313  0.41091  1.0000
  Fe  Fe367     1.0  0.85036  0.75306  0.33010  1.0000
  H   H2855     1.0  0.79274  0.83633  0.40215  1.0000
  H   H2856     1.0  0.79401  0.84645  0.37881  1.0000
  H   H2857     1.0  0.72126  0.92341  0.32404  1.0000
  C   C1796     1.0  0.77500  0.98741  0.39817  1.0000
  C   C1797     1.0  0.80152  0.83638  0.38852  1.0000
  H   H2858     1.0  0.82859  0.80899  0.39793  1.0000
  H   H2859     1.0  0.92522  0.81102  0.38841  1.0000
  H   H2860     1.0  0.81368  0.84111  0.38797  1.0000
  C   C1798     1.0  0.81589  0.80546  0.39802  1.0000
  H   H2861     1.0  0.80721  0.80495  0.41173  1.0000
  H   H2862     1.0  0.81227  0.82864  0.35593  1.0000
  N   N179      1.0  0.72738  0.94529  0.33025  1.0000
  C   C1799     1.0  0.98749  0.85354  0.37670  1.0000
  H   H2863     1.0  0.73361  0.96762  0.30918  1.0000
  C   C1800     1.0  0.92029  0.79930  0.39782  1.0000
  N   N180      1.0  0.80659  0.81842  0.38442  1.0000
  C   C1801     1.0  0.81881  0.81894  0.36655  1.0000
  H   H2864     1.0  0.81966  0.79169  0.39553  1.0000
  C   C1802     1.0  0.76439  0.92500  0.39806  1.0000
  H   H2865     1.0  0.79362  0.79961  0.38102  1.0000
  H   H2866     1.0  0.82308  0.80557  0.36308  1.0000
  H   H2867     1.0  0.85522  0.83304  0.33909  1.0000
  H   H2868     1.0  0.88202  0.80455  0.38345  1.0000
  H   H2869     1.0  0.78099  0.81164  0.39813  1.0000
  H   H2870     1.0  0.78238  0.82266  0.37501  1.0000
  H   H2871     1.0  0.85728  0.79138  0.40842  1.0000
  H   H2872     1.0  0.93240  0.78837  0.39986  1.0000
  H   H2873     1.0  0.89342  0.78189  0.41679  1.0000
  S   S724      1.0  0.85803  0.78424  0.37515  1.0000
  H   H2874     1.0  0.99366  0.79210  0.44464  1.0000
  Fe  Fe368     1.0  0.90320  0.74482  0.47625  1.0000
  S   S725      1.0  0.93032  0.72619  0.47641  1.0000
  C   C1803     1.0  0.85627  0.77762  0.41083  1.0000
  C   C1804     1.0  0.90154  0.77813  0.40402  1.0000
  C   C1805     1.0  0.72089  0.95578  0.34430  1.0000
  S   S726      1.0  0.96964  0.80783  0.39807  1.0000
  H   H2875     1.0  0.80154  0.89221  0.38882  1.0000
  C   C1806     1.0  0.98906  0.74054  0.30938  1.0000
  S   S727      1.0  0.84605  0.78154  0.33185  1.0000
  H   H2876     1.0  0.90765  0.78436  0.36817  1.0000
  H   H2877     1.0  0.81165  0.82738  0.30030  1.0000
  C   C1807     1.0  0.85351  0.83404  0.32585  1.0000
  C   C1808     1.0  0.86399  0.82328  0.46828  1.0000
  H   H2878     1.0  0.96179  0.84615  0.38873  1.0000
  C   C1809     1.0  0.91692  0.78849  0.37375  1.0000
  H   H2879     1.0  0.91319  0.76708  0.40715  1.0000
  H   H2880     1.0  0.80860  0.91516  0.40017  1.0000
  H   H2881     1.0  0.92211  0.79973  0.36367  1.0000
  H   H2882     1.0  0.89293  0.77279  0.39883  1.0000
  H   H2883     1.0  0.75661  0.92400  0.38885  1.0000
  H   H2884     1.0  0.78849  0.94149  0.37266  1.0000
  H   H2885     1.0  0.78206  0.89086  0.40691  1.0000
  H   H2886     1.0  0.92864  0.77699  0.37529  1.0000
  H   H2887     1.0  0.78926  0.91318  0.41831  1.0000
  C   C1810     1.0  0.78694  0.89826  0.39309  1.0000
  S   S728      1.0  0.74122  0.82895  0.24993  1.0000
  S   S729      1.0  0.74748  0.88534  0.32224  1.0000
  H   H2888     1.0  0.82095  0.94502  0.25296  1.0000
  C   C1811     1.0  0.79376  0.92026  0.40426  1.0000
  C   C1812     1.0  0.71668  0.93155  0.33440  1.0000
  H   H2889     1.0  0.78768  0.80297  0.28445  1.0000
  C   C1813     1.0  0.85626  0.77048  0.39671  1.0000
  S   S730      1.0  0.89373  0.75544  0.45071  1.0000
  S   S731      1.0  0.77222  0.97282  0.38670  1.0000
  C   C1814     1.0  0.76077  0.77909  0.24676  1.0000
  Fe  Fe369     1.0  0.78985  0.86373  0.47557  1.0000
  H   H2890     1.0  0.78140  0.94620  0.44698  1.0000
  H   H2891     1.0  0.77958  0.89581  0.38427  1.0000
  Fe  Fe370     1.0  0.86305  0.77086  0.35227  1.0000
  H   H2892     1.0  0.80424  0.78134  0.31631  1.0000
  Fe  Fe371     1.0  0.76679  0.85877  0.32114  1.0000
  C   C1815     1.0  0.77165  0.94473  0.45954  1.0000
  H   H2893     1.0  0.79134  0.93470  0.40431  1.0000
  H   H2894     1.0  0.98540  0.68537  0.46765  1.0000
  H   H2895     1.0  0.71115  0.96449  0.31284  1.0000
  H   H2896     1.0  0.83913  0.98545  0.24509  1.0000
  H   H2897     1.0  0.97849  0.81570  0.46187  1.0000
  C   C1816     1.0  0.80572  0.97970  0.25180  1.0000
  H   H2898     1.0  0.69100  0.98194  0.24885  1.0000
  C   C1817     1.0  0.77316  0.88920  0.25278  1.0000
  H   H2899     1.0  0.78191  0.96057  0.47029  1.0000
  H   H2900     1.0  0.93788  0.75799  0.48067  1.0000
  H   H2901     1.0  0.95174  0.68926  0.26242  1.0000
  H   H2902     1.0  0.77140  0.77088  0.25420  1.0000
  H   H2903     1.0  0.80793  0.87497  0.25448  1.0000
  H   H2904     1.0  0.98889  0.74646  0.33410  1.0000
  H   H2905     1.0  0.82185  0.80182  0.47962  1.0000
  H   H2906     1.0  0.84282  0.94812  0.23960  1.0000
  S   S732      1.0  0.99600  0.73956  0.36908  1.0000
  H   H2907     1.0  0.98999  0.73990  0.45421  1.0000
  S   S733      1.0  0.77091  0.84512  0.48366  1.0000
  N   N181      1.0  0.82191  0.97218  0.23931  1.0000
  S   S734      1.0  0.81613  0.85548  0.48438  1.0000
  H   H2908     1.0  0.95008  0.66945  0.25701  1.0000
  C   C1818     1.0  0.83042  0.95426  0.24849  1.0000
  H   H2909     1.0  0.95156  0.71736  0.23953  1.0000
  N   N182      1.0  0.99048  0.71192  0.45869  1.0000
  C   C1819     1.0  0.84984  0.83438  0.47783  1.0000
  H   H2910     1.0  0.80785  0.82288  0.48324  1.0000
  C   C1820     1.0  0.99138  0.71268  0.43977  1.0000
  S   S735      1.0  0.89401  0.77115  0.48461  1.0000
  H   H2911     1.0  0.99793  0.69947  0.43619  1.0000
  C   C1821     1.0  0.99846  0.80261  0.43320  1.0000
  H   H2912     1.0  0.88430  0.79995  0.23758  1.0000
  C   C1822     1.0  0.78445  0.91572  0.23671  1.0000
  H   H2913     1.0  0.88999  0.71318  0.55447  1.0000
  C   C1823     1.0  0.93230  0.72575  0.65414  1.0000
  Fe  Fe372     1.0  0.88439  0.71562  0.65242  1.0000
  H   H2914     1.0  0.93839  0.71183  0.62499  1.0000
  H   H2915     1.0  0.92271  0.77821  0.55285  1.0000
  H   H2916     1.0  0.97787  0.85135  0.50571  1.0000
  H   H2917     1.0  0.87976  0.73437  0.52813  1.0000
  H   H2918     1.0  0.96033  0.69833  0.62723  1.0000
  N   N183      1.0  0.94981  0.71809  0.64329  1.0000
  Fe  Fe373     1.0  0.87548  0.72566  0.61553  1.0000
  S   S736      1.0  0.86004  0.71571  0.64310  1.0000
  C   C1824     1.0  0.87962  0.72514  0.55620  1.0000
  S   S737      1.0  0.88067  0.71412  0.59149  1.0000
  S   S738      1.0  0.90048  0.72309  0.62466  1.0000
  H   H2919     1.0  0.94068  0.69462  0.64471  1.0000
  H   H2920     1.0  0.91367  0.77010  0.53904  1.0000
  H   H2921     1.0  0.93383  0.73548  0.66094  1.0000
  C   C1825     1.0  0.94721  0.70511  0.63468  1.0000
  H   H2922     1.0  0.92223  0.73297  0.64575  1.0000
  C   C1826     1.0  0.87228  0.72874  0.57327  1.0000
  H   H2923     1.0  0.94390  0.70220  0.50608  1.0000
  S   S739      1.0  0.99871  0.77213  0.67192  1.0000
  C   C1827     1.0  0.95697  0.73258  0.62943  1.0000
  H   H2924     1.0  0.93708  0.76237  0.53993  1.0000
  H   H2925     1.0  0.94714  0.74040  0.62092  1.0000
  H   H2926     1.0  0.83487  0.97673  0.54073  1.0000
  H   H2927     1.0  0.96002  0.74208  0.63549  1.0000
  Fe  Fe374     1.0  0.74999  0.86818  0.49288  1.0000
  C   C1828     1.0  0.88281  0.65944  0.71723  1.0000
  H   H2928     1.0  0.82556  0.80147  0.52472  1.0000
  S   S740      1.0  0.89956  0.69289  0.67053  1.0000
  C   C1829     1.0  0.99127  0.84526  0.50821  1.0000
  C   C1830     1.0  0.96279  0.70891  0.65493  1.0000
  H   H2929     1.0  0.68938  0.97256  0.70707  1.0000
  H   H2930     1.0  0.67201  0.85598  0.71248  1.0000
  H   H2931     1.0  0.86085  0.70039  0.68450  1.0000
  C   C1831     1.0  0.81031  0.78278  0.51274  1.0000
  H   H2932     1.0  0.67962  0.97682  0.72904  1.0000
  C   C1832     1.0  0.86702  0.68898  0.69356  1.0000
  H   H2933     1.0  0.96438  0.72834  0.72700  1.0000
  C   C1833     1.0  0.85619  0.68056  0.70899  1.0000
  H   H2934     1.0  0.97640  0.70365  0.64703  1.0000
  C   C1834     1.0  0.95035  0.69955  0.73347  1.0000
  H   H2935     1.0  0.84168  0.68553  0.71170  1.0000
  C   C1835     1.0  0.88579  0.68272  0.68996  1.0000
  H   H2936     1.0  0.97479  0.71696  0.70896  1.0000
  H   H2937     1.0  0.96977  0.72721  0.62049  1.0000
  H   H2938     1.0  0.83629  0.81566  0.64676  1.0000
  C   C1836     1.0  0.86404  0.66574  0.72080  1.0000
  H   H2939     1.0  0.82056  0.95941  0.58122  1.0000
  N   N184      1.0  0.70820  0.97578  0.72029  1.0000
  C   C1837     1.0  0.95204  0.74904  0.50222  1.0000
  H   H2940     1.0  0.84210  0.76768  0.56229  1.0000
  C   C1838     1.0  0.92324  0.76618  0.54811  1.0000
  S   S741      1.0  0.82264  0.75710  0.65453  1.0000
  C   C1839     1.0  0.94469  0.77839  0.63638  1.0000
  C   C1840     1.0  0.79906  0.78930  0.65577  1.0000
  Fe  Fe375     1.0  0.73870  0.86016  0.63636  1.0000
  C   C1841     1.0  0.98165  0.68384  0.72906  1.0000
  S   S742      1.0  0.73137  0.86593  0.51999  1.0000
  Fe  Fe376     1.0  0.97848  0.76526  0.66160  1.0000
  H   H2941     1.0  0.91074  0.73914  0.54671  1.0000
  C   C1842     1.0  0.74051  0.90538  0.56249  1.0000
  H   H2942     1.0  0.73918  0.86606  0.68581  1.0000
  H   H2943     1.0  0.72877  0.91341  0.55654  1.0000
  H   H2944     1.0  0.77127  0.92975  0.53651  1.0000
  H   H2945     1.0  0.77206  0.90492  0.52348  1.0000
  S   S743      1.0  0.79624  0.96739  0.61755  1.0000
  C   C1843     1.0  0.75988  0.95047  0.48937  1.0000
  H   H2946     1.0  0.75945  0.88815  0.53596  1.0000
  N   N185      1.0  0.75784  0.90805  0.55009  1.0000
  H   H2947     1.0  0.84720  0.79972  0.59484  1.0000
  H   H2948     1.0  0.75741  0.93167  0.55833  1.0000
  H   H2949     1.0  0.76334  0.97574  0.60446  1.0000
  H   H2950     1.0  0.73894  0.90939  0.57523  1.0000
  C   C1844     1.0  0.81983  0.78269  0.60898  1.0000
  H   H2951     1.0  0.92894  0.73525  0.58631  1.0000
  H   H2952     1.0  0.85279  0.74674  0.58866  1.0000
  C   C1845     1.0  0.74421  0.85890  0.53637  1.0000
  C   C1846     1.0  0.73578  0.85914  0.55427  1.0000
  C   C1847     1.0  0.74621  0.85401  0.56725  1.0000
  H   H2953     1.0  0.72122  0.86333  0.55805  1.0000
  H   H2954     1.0  0.80904  0.81300  0.57205  1.0000
  H   H2955     1.0  0.89657  0.74594  0.58509  1.0000
  H   H2956     1.0  0.89014  0.76084  0.56539  1.0000
  H   H2957     1.0  0.83960  0.98024  0.56012  1.0000
  C   C1848     1.0  0.85879  0.74414  0.57547  1.0000
  S   S744      1.0  0.75453  0.87569  0.64331  1.0000
  C   C1849     1.0  0.97406  0.71612  0.72328  1.0000
  C   C1850     1.0  0.95499  0.71768  0.51678  1.0000
  H   H2958     1.0  0.79139  0.80743  0.53199  1.0000
  H   H2959     1.0  0.93360  0.73034  0.54929  1.0000
  S   S745      1.0  0.76263  0.83813  0.62960  1.0000
  C   C1851     1.0  0.75846  0.92714  0.54600  1.0000
  C   C1852     1.0  0.75939  0.90259  0.53340  1.0000
  H   H2960     1.0  0.74787  0.91014  0.52695  1.0000
  H   H2961     1.0  0.74719  0.93583  0.53965  1.0000
  H   H2962     1.0  0.73960  0.89111  0.56591  1.0000
  C   C1853     1.0  0.83066  0.78971  0.65058  1.0000
  C   C1854     1.0  0.74764  0.93956  0.49279  1.0000
  N   N186      1.0  0.91881  0.75131  0.56323  1.0000
  Fe  Fe377     1.0  0.88930  0.75136  0.62736  1.0000
  Fe  Fe378     1.0  0.85189  0.74485  0.64442  1.0000
  H   H2963     1.0  0.80188  0.92914  0.62324  1.0000
  H   H2964     1.0  0.82298  0.77538  0.50523  1.0000
  S   S746      1.0  0.96937  0.73703  0.53013  1.0000
  H   H2965     1.0  0.94603  0.74216  0.56721  1.0000
  N   N187      1.0  0.80897  0.80231  0.50712  1.0000
  C   C1855     1.0  0.93993  0.72978  0.49200  1.0000
  C   C1856     1.0  0.82452  0.80669  0.51052  1.0000
  C   C1857     1.0  0.79202  0.81165  0.51737  1.0000
  H   H2966     1.0  0.79874  0.77900  0.51045  1.0000
  H   H2967     1.0  0.74257  0.86045  0.70816  1.0000
  C   C1858     1.0  0.68993  0.98011  0.71661  1.0000
  N   N188      1.0  0.81145  0.98251  0.56162  1.0000
  H   H2968     1.0  0.82333  0.82138  0.50752  1.0000
  H   H2969     1.0  0.73542  0.97689  0.70561  1.0000
  H   H2970     1.0  0.79091  0.82639  0.51358  1.0000
  H   H2971     1.0  0.80369  0.97977  0.53893  1.0000
  H   H2972     1.0  0.77990  0.80908  0.51486  1.0000
  C   C1859     1.0  0.93575  0.77740  0.62392  1.0000
  C   C1860     1.0  0.94610  0.71529  0.50502  1.0000
  H   H2973     1.0  0.93158  0.75793  0.58029  1.0000
  S   S747      1.0  0.74085  0.87517  0.60777  1.0000
  H   H2974     1.0  0.82864  0.78121  0.61821  1.0000
  H   H2975     1.0  0.80602  0.78201  0.61731  1.0000
  Fe  Fe379     1.0  0.77870  0.85465  0.63438  1.0000
  C   C1861     1.0  0.95822  0.73447  0.51522  1.0000
  H   H2976     1.0  0.82495  0.77084  0.60278  1.0000
  C   C1862     1.0  0.77297  0.89707  0.55856  1.0000
  H   H2977     1.0  0.95781  0.78165  0.63186  1.0000
  H   H2978     1.0  0.84497  0.78893  0.57887  1.0000
  C   C1863     1.0  0.83862  0.80034  0.58563  1.0000
  C   C1864     1.0  0.78357  0.95381  0.61455  1.0000
  H   H2979     1.0  0.78530  0.90982  0.61737  1.0000
  H   H2980     1.0  0.92632  0.71520  0.66463  1.0000
  C   C1865     1.0  0.91964  0.73565  0.55635  1.0000
  C   C1866     1.0  0.87384  0.73712  0.54128  1.0000
  C   C1867     1.0  0.78045  0.92419  0.61464  1.0000
  H   H2981     1.0  0.77279  0.88259  0.56201  1.0000
  C   C1868     1.0  0.78981  0.93515  0.61796  1.0000
  H   H2982     1.0  0.83912  0.81296  0.57525  1.0000
  C   C1869     1.0  0.76302  0.85348  0.53151  1.0000
  N   N189      1.0  0.81984  0.79964  0.59542  1.0000
  C   C1870     1.0  0.80887  0.80061  0.58278  1.0000
  H   H2983     1.0  0.95809  0.69753  0.66520  1.0000
  H   H2984     1.0  0.82015  0.81480  0.61374  1.0000
  Fe  Fe380     1.0  0.75844  0.88930  0.61416  1.0000
  H   H2985     1.0  0.77224  0.90092  0.57117  1.0000
  C   C1871     1.0  0.81206  0.81492  0.60432  1.0000
  C   C1872     1.0  0.93194  0.74644  0.57477  1.0000
  H   H2986     1.0  0.91530  0.72454  0.56734  1.0000
  C   C1873     1.0  0.75900  0.95057  0.60383  1.0000
  H   H2987     1.0  0.81146  0.82796  0.59447  1.0000
  H   H2988     1.0  0.79443  0.80089  0.58967  1.0000
  C   C1874     1.0  0.86031  0.75247  0.54347  1.0000
  C   C1875     1.0  0.90038  0.75697  0.57373  1.0000
  H   H2989     1.0  0.78628  0.89863  0.54955  1.0000
  H   H2990     1.0  0.83753  0.80086  0.50214  1.0000
  Fe  Fe381     1.0  0.86833  0.76158  0.49832  1.0000
  C   C1876     1.0  0.76506  0.93193  0.60746  1.0000
  S   S748      1.0  0.85262  0.76752  0.52507  1.0000
  S   S749      1.0  0.75353  0.91889  0.60205  1.0000
  C   C1877     1.0  0.85273  0.75593  0.56058  1.0000
  S   S750      1.0  0.67578  0.88786  0.72076  1.0000
  H   H2991     1.0  0.72437  0.85425  0.70363  1.0000
  H   H2992     1.0  0.73815  0.93776  0.50553  1.0000
  H   H2993     1.0  0.81394  0.78899  0.57625  1.0000
  H   H2994     1.0  0.71326  0.94817  0.71911  1.0000
  C   C1878     1.0  0.69814  0.88569  0.68819  1.0000
  Fe  Fe382     1.0  0.76645  0.85472  0.60182  1.0000
  S   S751      1.0  0.75955  0.96159  0.50553  1.0000
  H   H2995     1.0  0.76960  0.85368  0.51769  1.0000
  S   S752      1.0  0.78421  0.86994  0.60599  1.0000
  C   C1879     1.0  0.91877  0.77302  0.62969  1.0000
  S   S753      1.0  0.98957  0.73576  0.66852  1.0000
  S   S754      1.0  0.86540  0.75473  0.61596  1.0000
  N   N190      1.0  0.75081  0.83831  0.69510  1.0000
  S   S755      1.0  0.90905  0.76911  0.61430  1.0000
  H   H2996     1.0  0.79800  0.81465  0.61212  1.0000
  C   C1880     1.0  0.76809  0.96145  0.60752  1.0000
  H   H2997     1.0  0.74715  0.95663  0.59819  1.0000
  C   C1881     1.0  0.77340  0.84805  0.54449  1.0000
  H   H2998     1.0  0.73967  0.85412  0.58107  1.0000
  S   S756      1.0  0.77842  0.84208  0.57813  1.0000
  C   C1882     1.0  0.76501  0.84841  0.56233  1.0000
  H   H2999     1.0  0.78797  0.84396  0.54060  1.0000
  H   H3000     1.0  0.89932  0.76854  0.57947  1.0000
  H   H3001     1.0  0.94223  0.77951  0.60987  1.0000
  C   C1883     1.0  0.79894  0.98781  0.54939  1.0000
  H   H3002     1.0  0.84471  0.78274  0.64911  1.0000
  H   H3003     1.0  0.72195  0.98378  0.73556  1.0000
  H   H3004     1.0  0.95958  0.70646  0.52697  1.0000
  H   H3005     1.0  0.81060  0.77780  0.52715  1.0000
  H   H3006     1.0  0.99152  0.86562  0.52112  1.0000
  C   C1884     1.0  0.82588  0.80832  0.64926  1.0000
  C   C1885     1.0  0.81721  0.78018  0.65386  1.0000
  S   S757      1.0  0.71342  0.85179  0.65451  1.0000
  H   H3007     1.0  0.71593  0.88423  0.66239  1.0000
  S   S758      1.0  0.80193  0.84093  0.64803  1.0000
  C   C1886     1.0  0.79435  0.80789  0.65411  1.0000
  H   H3008     1.0  0.78863  0.78196  0.65831  1.0000
  C   C1887     1.0  0.80772  0.81749  0.65071  1.0000
  H   H3009     1.0  0.78033  0.81471  0.65571  1.0000
  H   H3010     1.0  0.89695  0.76795  0.65230  1.0000
  C   C1888     1.0  0.91030  0.77072  0.64781  1.0000
  H   H3011     1.0  0.79846  0.96134  0.57817  1.0000
  C   C1889     1.0  0.74506  0.83232  0.68206  1.0000
  C   C1890     1.0  0.99898  0.85331  0.51695  1.0000
  H   H3012     1.0  0.77910  0.82813  0.68484  1.0000
  H   H3013     1.0  0.85065  0.83553  0.49074  1.0000
  S   S759      1.0  0.94844  0.77432  0.67055  1.0000
  N   N191      1.0  0.96862  0.69961  0.73483  1.0000
  C   C1891     1.0  0.91914  0.77198  0.66025  1.0000
  H   H3014     1.0  0.75361  0.81921  0.67951  1.0000
  C   C1892     1.0  0.68566  0.87784  0.70232  1.0000
  C   C1893     1.0  0.76959  0.84070  0.68791  1.0000
  C   C1894     1.0  0.89368  0.66798  0.70185  1.0000
  H   H3015     1.0  0.75402  0.82883  0.72222  1.0000
  H   H3016     1.0  0.81788  0.95445  0.56156  1.0000
  H   H3017     1.0  0.74598  0.84207  0.66900  1.0000
  C   C1895     1.0  0.81217  0.96360  0.57100  1.0000
  C   C1896     1.0  0.70260  0.86216  0.67263  1.0000
  H   H3018     1.0  0.68696  0.84211  0.68622  1.0000
  H   H3019     1.0  0.77457  0.84495  0.69745  1.0000
  H   H3020     1.0  0.90821  0.66316  0.69917  1.0000
  C   C1897     1.0  0.69003  0.85434  0.68672  1.0000
  C   C1898     1.0  0.93660  0.77525  0.65461  1.0000
  H   H3021     1.0  0.73584  0.82254  0.71772  1.0000
  C   C1899     1.0  0.73871  0.85550  0.69835  1.0000
  S   S760      1.0  0.87505  0.74395  0.65609  1.0000
  H   H3022     1.0  0.98765  0.71672  0.72430  1.0000
  C   C1900     1.0  0.70650  0.87794  0.67332  1.0000
  H   H3023     1.0  0.77073  0.85110  0.67527  1.0000
  H   H3024     1.0  0.91267  0.76989  0.67430  1.0000
  H   H3025     1.0  0.75891  0.81160  0.71001  1.0000
  C   C1901     1.0  0.74985  0.82471  0.71203  1.0000
  C   C1902     1.0  0.68153  0.86218  0.70155  1.0000
  S   S761      1.0  0.87839  0.73442  0.49165  1.0000
  H   H3026     1.0  0.70131  0.89785  0.68871  1.0000
  C   C1903     1.0  0.94262  0.74675  0.49077  1.0000
  H   H3027     1.0  0.96459  0.71826  0.66201  1.0000
  H   H3028     1.0  0.73075  0.83088  0.68674  1.0000
  H   H3029     1.0  0.94997  0.70003  0.71953  1.0000
  Fe  Fe383     1.0  0.99070  0.75295  0.51680  1.0000
  Fe  Fe384     1.0  0.77083  0.98624  0.49286  1.0000
  S   S762      1.0  0.99506  0.76889  0.48844  1.0000
  S   S763      1.0  0.99350  0.77397  0.52890  1.0000
  S   S764      1.0  0.99416  0.76919  0.63322  1.0000
  H   H3030     1.0  0.78510  0.98597  0.55673  1.0000
  C   C1904     1.0  0.82975  0.98464  0.55131  1.0000
  C   C1905     1.0  0.72142  0.98031  0.70343  1.0000
  H   H3031     1.0  0.95430  0.76210  0.50116  1.0000
  C   C1906     1.0  0.80906  0.80820  0.48784  1.0000
  H   H3032     1.0  0.72139  0.97315  0.69332  1.0000
  H   H3033     1.0  0.98248  0.68410  0.71487  1.0000
  H   H3034     1.0  0.99546  0.68327  0.73032  1.0000
  C   C1907     1.0  0.71315  0.95647  0.72826  1.0000
  S   S765      1.0  0.99082  0.81853  0.49303  1.0000
  H   H3035     1.0  0.99411  0.73020  0.59065  1.0000
  H   H3036     1.0  0.72677  0.95274  0.73141  1.0000
  C   C1908     1.0  0.70827  0.98625  0.73288  1.0000
  H   H3037     1.0  0.99689  0.80374  0.58895  1.0000
  H   H3038     1.0  0.81392  0.99022  0.58441  1.0000
  S   S766      1.0  0.76941  0.88586  0.48671  1.0000
  H   H3039     1.0  0.67276  0.93186  0.75867  1.0000
  H   H3040     1.0  0.95881  0.71057  0.75840  1.0000
  H   H3041     1.0  0.66922  0.72448  0.97959  1.0000
  S   S767      1.0  0.69938  0.67087  0.91307  1.0000
  C   C1909     1.0  0.67434  0.76354  0.82619  1.0000
  H   H3042     1.0  0.68546  0.75238  0.94921  1.0000
  C   C1910     1.0  0.96847  0.69887  0.75357  1.0000
  H   H3043     1.0  0.83635  0.65944  0.77683  1.0000
  H   H3044     1.0  0.80313  0.68958  0.77123  1.0000
  H   H3045     1.0  0.67386  0.74999  0.83495  1.0000
  C   C1911     1.0  0.67288  0.74904  0.94865  1.0000
  H   H3046     1.0  0.82350  0.67354  0.79215  1.0000
  C   C1912     1.0  0.66913  0.69627  0.90631  1.0000
  H   H3047     1.0  0.69886  0.98279  0.74592  1.0000
  H   H3048     1.0  0.73497  0.66363  0.96094  1.0000
  H   H3049     1.0  0.67649  0.73514  0.94654  1.0000
  N   N192      1.0  0.80762  0.66140  0.78300  1.0000
  C   C1913     1.0  0.70052  0.67151  0.95700  1.0000
  H   H3050     1.0  0.96439  0.68658  0.76268  1.0000
  H   H3051     1.0  0.79072  0.67573  0.80314  1.0000
  C   C1914     1.0  0.79207  0.66352  0.79830  1.0000
  H   H3052     1.0  0.69216  0.66158  0.86216  1.0000
  C   C1915     1.0  0.68598  0.68646  0.89887  1.0000
  H   H3053     1.0  0.68529  0.70341  0.85486  1.0000
  H   H3054     1.0  0.68062  0.76177  0.81230  1.0000
  H   H3055     1.0  0.81623  0.67549  0.75603  1.0000
  H   H3056     1.0  0.70959  0.67796  0.94501  1.0000
  H   H3057     1.0  0.70489  0.68184  0.87445  1.0000
  H   H3058     1.0  0.94590  0.68722  0.74210  1.0000
  C   C1916     1.0  0.69177  0.68907  0.88029  1.0000
  H   H3059     1.0  0.77914  0.66438  0.79478  1.0000
  C   C1917     1.0  0.68072  0.70138  0.86922  1.0000
  H   H3060     1.0  0.98210  0.69875  0.75513  1.0000
  H   H3061     1.0  0.70332  0.95267  0.74097  1.0000
  H   H3062     1.0  0.79227  0.67717  0.76333  1.0000
  H   H3063     1.0  0.69444  0.68102  0.96605  1.0000
  C   C1918     1.0  0.82436  0.66102  0.78810  1.0000
  C   C1919     1.0  0.80463  0.67660  0.76775  1.0000
  H   H3064     1.0  0.68346  0.76912  0.83050  1.0000
  H   H3065     1.0  0.68940  0.66952  0.95223  1.0000
  S   S768      1.0  0.67091  0.96518  0.76647  1.0000
  H   H3066     1.0  0.67760  0.74207  0.98246  1.0000
  H   H3067     1.0  0.71950  0.66671  0.98182  1.0000
  C   C1920     1.0  0.72499  0.65763  0.97229  1.0000
  H   H3068     1.0  0.94013  0.71122  0.73779  1.0000
  H   H3069     1.0  0.97783  0.67114  0.73734  1.0000
  H   H3070     1.0  0.66819  0.75815  0.93666  1.0000
  H   H3071     1.0  0.66616  0.79942  0.81908  1.0000
  H   H3072     1.0  0.66643  0.77353  0.96826  1.0000
