data_image0
_chemical_formula_structural       HFeSHFeS2FeNFeSFeSCH2C2HFeS2HSCH3Fe2SNHCHS2HCHSHCH6NH2CH2FeH3CHC2H2FeHCH3CHSHSH3C6H9C7HSH2C4HCH2SFeH5NCH2C2H2CHCSCS2CH2SH2SCHC2FeS2FeS2FeSFeS3FeH2FeS2HFeS3FeS2FeS2FeSFeS3FeS2FeS2FeSFeS3FeS2FeS2FeSFeS3FeS2FeS2FeSFeS3FeS2HCH3FeSHSCH2C2H2CH2CHNHCHCHCH2CHC2HFeH7CNH9C6H4C6H4C6H4C6H4C6H4C2SNFeCH3C7H4C6H3C7H4C6H4C6H4C6H4C6H4SCHFeCHCH2CHC4H3SH3NC4H14CH3CH3CNH5NC4H13CNHCHCHCH2CH3CHC2HCH5CH3C2H2CSCH3CHCHNC4H13CH6NC4H15CHSCNSHCNH2SHN2C2NCH3CH2NH6C4H4CH2SH2SH5CH4FeS2FeS2FeSFeHS2FeS3HCFeSFeCS2HS2CSHCH5FeS2HCHFeSFeSHS2H2CFeH4CSHCH2FeH2CHC3H5C4H8C2SH8NCH2C3H5NC2NSH3C6H4C6H4CNC4SCH2CH2CHNHC2H3CH5FeSH2CHCH2FeHCHCH9CSHFeCSFeS2FeS2FeSFeS3HCH2CHFeH4C3SH2CH2FeS2FeS2FeSFeS3HCFeS2FeS2FeSFeS3FeSHCSHFeSFeS3NH2CHCSH2S2H3SH2CH4CH2SNC2H5CHSCHCH4NC3H5CNC2H2CSC6H4C6H6C3H5C6H4C3H2CH2FeC7H6CH3CH2C2HC6H4C8H5C2HCH2C3H4C4H3CNHC3H2CFeHC3H6NCH5CHCHNC4H12NC4H13C2HNH6CSCHCHFeH3NH2SHNH2FeSC2H2CHCHCHCH5CHSCH2CH2CH3FeH10CSH2C5HS2H5CH2CSHCFeS2HSCSHFeSHFeS4C3H2CHNC4H3C6H4SHCSH2CH7CSH3CHC2SHFeHSHFeSHCNCHFeC2SH3CNCHSCHCSH2CH9CHSH2CH2CHSH3C4H2C2NH2C2HFeH2C2HS2HCH2FeHFeHSHCFeH3FeHCH2CHSC2SNCHC3H2C2HCHC2H3CSNH2C3HSHFeSCFeCFeHCH3CFeHCH3CHC2SHCH4S3HSFeSFeS2FeSFeS3CSHCFeH2SCHCFeS2FeS2FeSFeS3FeS2FeS2FeSFeS4FeS2FeS2FeSFeS3CH2CSH2SNFeS2FeS2FeSFeS2HCSCHC2HCHCH2C4H2C6H5C6HCHC9H4C6H4C6H4C6H4C3HNC4HCH3FeHNH4CH2SHC3H3CHCH3SH2C6H4C6H4C6H3C6H4CHNC4H11SHS2CH4CHFeH2CHNC4H12FeH2FeH9S2H2NC2H3CFeH5CHCNSH2CHCH6SNC4H12NCH2C2HSCH7C2HCH2NH2CHCH4FeNC2H2FeCHCH16C2NH4CH2CHCH7CH3CH3CH5SNC3HSCHC2H3C2HCH4CHSCH3NC3H2NHFeHCHFeH2CH2CNC2H2SHNC3HFeHCH3CHCHCH3CHFeSH2SH3C3H2NFeSCH2SHNHC2SH2C2NHCH2SCSH7CH8CHC3H3S2HFe2SC2H2CH2FeSHFeS2FeS2Fe2HS2FeS2FeS2FeSFeS3FeS2FeS2FeSFeS3FeSFeS2FeSFeS3FeS2FeS2Fe2S3H2FeHSH2SHSHS2HFeSCS3H4NH2C2HNFeH6NH3CSCHNH5CH3C6H4C6H4C6H4C6H4C6H4CHSCHNHC6H4C5H5SH2C6H7CH4C6H4C6H6NHNC4H11NC4H12C4H8S2H2FeCH2CS2H2CH2NH2CHCH2NH2CHC6H5CHC2HC2FeCHCH3SHC2H3CHNHSH2NCHC2H5FeCHCH2NC4H12NC4H12NC5H6C2H3CH5SHC3FeC2H4SHCFeSHCHFeSH3C2SHCH3NHSNCH3CHCHC3HCH2C2H2CFeCHCH4CHCHSH4CHFeCHC3HCH6CSC2HSHNHCH5CFeH2CHNHSHFeCHC2HCH3CH2CFeH3CH2C2H3SCFeC2HFeS2FeS2FeSFeS2FeS2FeS2HFeS2HCHSC2NHFeSCFeS2FeS2Fe2S3FeS2FeS2Fe2S3C6H4C6H5C5H3C2HC6H4C2HC3H2C6H4C7H4C2NCHC4HSH3CHS2HCSH3SH3SC2NC2H11CH3SHCHSCFeCHCH4CH3CHCH3NCH2CSH2CH3NHCSH2CH9CH3CSFeSHSHNC4H14C2H2CHCHSH2C2H2NC4H12CH5SNCH3CHC2SH2CFeH5CH3C2NCHCHCHCHNH3CHSC2H2CH7C3H2FeHC4H2NCHNH5CH2CNH6CHCHC2H3C2H3C2FeC2HFeCH3CHCHFeS2FeSFeS2CFeS2FeSHFeSFeS3CHC4HFeS2FeS2FeHFeS4HC2H4NFeS2H2CHFeHNSFeS2FeSHFeSFeS4FeSH2SHC6H4C6H4FeHCH4CHC6H4C2H4C2H4C5H3C2HC2H3C6H4CH2C6H3C7H7FeHC3H2CH2C2H5CH2CSCH3NH5CH10S2CHSHSH2CH2FeCH2CH4SHNC3H11SHCH2NCHCSCHSHC2H3NC2H5NCH8NCH2NH2SC3H3C2H2CH4CHCH8C2HC2H3CH2FeCFeS2FeH3SHSCSH3SCHSHFeSFeSHCHFeHSC2H3NHS2CS2H3C7H4CH3SCSC6H5CHSH2CNFeH4C2H2NCNC3H6CFeC2H4SHC2HNHC4SHSHC2SH3CH5FeH6CHSFeH2SCH2FeHCH4CH3C2SHSFeS2FeS2FeSFeS3FeS2FeS2FeSFeS3HFeS2FeS2FeSFeS3FeS2FeS2FeSFeS3FeS2FeS2FeSFeS3FeHSH6S2FeSFeS2FeSFeS3FeS2FeS2FeSFeS3FeSCH2CHFeS2CNHC6H4C6H4C6H5C6H3FeC6H4SC3H3C6H4C2H2C2H2C6H3C6H4C5H5C6H3C6H4C6H4C6H4C6H4C4H5C6H4C3H2C6H4CH2NH2CSNC4H12NC7H9NC4H12NC3H4CHCH5N2C2H5NC3H9C2NC4H12NC4H9C2H4SHNC4H12NC4H12NHCHCH7SH4CHNC4H9S2CSHCH2C2SC2HC2HCHNCH2C2H3NCH8CSH6SC2FeCH2CSH2NH2CH3CH2SH5CSCH2C2SC2HSFeC5HCH4CSFeC2H4SFeHFeH6CH3FeCHSHFeHCH2FeHNCH5C2H3FeCHCH2SH2SH2SH4CHCFeCHC2FeHCHFe2CH3C2FeH2N2H3CSH3FeC2SH2FeCSHCNHCHSH8SNH2NHC2HC4H3FeCH8C4SH2CH3SH3CH5CH5S2H2CHCSH2FeH5FeHC2H4CHSC2HC2H2C3NHCSHCS2H3CHSHNFeS2FeSCHFeCS2NHNCHSCH2SFeS2FeS2FeSFeS3HSH2CFeC3SHSCHFeS2FeS2FeSFeS3C6H6CH4NFeHC6H4CSHC4H3C6H3FeH2C3H3C2HC6H6CHSHCH2C5H2C6H3CHCFeHCSH3NCH8NCHC2H12NC4H12CHCH2CH2FeH2NC4H12SHCH2SHCH5CHCH5FeSH3NC5HSC2H4CS2FeHSCHSCSH3FeH4CH2NH2CHSH2NH5CSC5HSFeSHFeHFeSCSFeSFeS2FeSFeS3CFeS2FeS2FeSFeS3FeS2FeS2FeSFeS3HCSH3CH4C2H4SHNSH2CH2CHCHCNCH2CHSC2H6CHCH2CH2C6H3C2H3C6H4C6H4C3H2C6H4FeH8C6H3SC6H4CH2CH5NH2C2HSH2NH3C3HC3HCHC2NCH3NH3C2HNH2C2H6CHC2H9C2H9CNHSH5CSHC2H2C2HCHCSHCH2CH5NHFeHC2H2FeH2C2H4CH6CFeS2FeS2FeSFeS3FeS2FeS2FeSFeS3FeS2FeS2FeSFeS3FeS2FeS2FeSFeS3FeS2FeS2FeHFeS3FeHSNH2CFeSHSH3FeS2FeSFeCSH2NSH2FeS2CSFeSFeSH5FeSH2SH2CHC6H2C3HFe2HFeH2C6H2CHCHC4H4SHSC6H4C6H4C4HC2HC6H4C6H2C6H4C6H4C6H4C6H4C6H4C6H4C6H4C2H6SCHNCH2SHCH5SHCH2SH3SCSCNSHNC4H13NC4H12CH3NFeC3HCH10NC4H13CHCH3CH2C2HCH2CH6CFeNCH5C3HCH3C2HCH2CH5SNCH2CHCSHNC4H15CHNH5CHCH3CHCSCHNHNCH2FeH2NH4CHC3HCH6CH3NCH2SH6CH2SFeCHSH2CH3C3H5CHCSH2CSH7C2H2FeCH2S3H2NHCH2SCH2C3H3NSHSH2FeS2FeS2FeSFeS3FeS2FeS2FeNFeS3HSFeSFeSFeS2H2S2C2H2NCHCHCHSHC2HCHFeS2FeS2FeSFeS2HC2H3CH2CSH2CHC3HC2H4C4H7CHCH3NC4H5C7H4C3H2FeHNH2C6H4C6H4CH4CHC6H4C2NC2H5FeH2SH2SC2H4CHCHCHSH3CHC2HCH2C2HC3HCH2SHCH2SHNCNCHC2H2C2SH3CHSHCH2C2HNC4H10CH2CH2CH2CHCHC2H6C3H3CFeC2H3NH2FeH3SH5CH5CH2CNFeH2SH8CH3CH3CH2SH2CH2CFeS2FeS2FeSFeS3H2CH2FeHNCH2FeCSCHSH3SCFeHSH2NHC3SNSFeS2FeS2FeSFeS3FeS2FeS2FeSFeS3CHSFeSHC3H3FeS2FeS2FeSFeS4C6H2CHC6H6C6H4C4HCH4C6H4C6H4C6H5C2HCH3CHC6H4CH2NH2C3HCSH2C2H2C3HSH3CHCH2SC7H3C6H4C6H4C3H2C6H4NC4H14SH4SHNHCH2CSH9CH2SHSH3NCSCHSHCH14SH2C2SN2CHCH4NC4H12NC2H8CHCHCH4CSH2CH2CHSHSHCH2CHNC4H12NFeS2CH6NCSC2SCSHC2H2CHCHCHCHCHFeHC2Fe3H6SCHCH2CHSCH2FeC2FeSHNH3SH3CSH2FeCHNCHC4H4C2H10CHC2SHCHSH2SHSHFeSFeSH3FeSFeS2FeSFeS3FeC2SC6H4CH3CH2C5H5CSCH6C6H5C2FeHC3HSH5NH4SCHSNHFeCHCNSH3C2H3CH2SC2HFeH2FeSNC4H13C2H3FeSCSH2SHSHFeCNH2NH2NFeCHCH2CH4CH2CSH2CH3CHCH3CHSHCH3NHC2HC2H3C3HSHCFeC2H5CHFeHSH3C3HC2H3C2HFeCSH4CH3CH3FeS2FeCFeS4NSFe2S2FeS2FeSFeS3FeS2FeS2FeSFeS4FeS3HSFeHFeS3FeS2HNFeCFeSH2FeSFeS2FeHFeS3C6H4C3HCH2SC3HCFeH2C2SFeHC6H4C6H4C3HC2HC2H2FeS2C7H4C6H4C6H2CHFeC6H8FeNHNH2C6H4C6H2SHSHSHCH6CHNC4H12CH4SH3CH9C2H2FeH3C2HCSH4C2HNC4H14CH4SH2CH6CHNH2SCNC3H7CHFeH2SCHCHSH2CH2CNC4H12NC4H11CH2CHCSH2CHC3HSHCH12C2HC3H3SCSC2HNHCSHC2H5CSC4HC2HFeHCHCH2CHCFeH4NH2CNCFeHCH3CH6FeS2FeS2FeSFeS3FeS2FeS2FeSFeS3FeS2FeSFe2S3FeSFeS2FeSFeS3HFeSCFeSHFeSFeCS2FeS2CSFeCH2S2FeS2FeS2FeSFeHS2C2HC2NH2C6H7CSH2Fe2HC6H6SH4FeCH3NHCH2SC7H5C6H4C3H2SC6H4C6H4C6H4C3H4C6H5CHCH3CH2CH4NH2CH2CHCH3SCHNC4H13CH2CHC2NH5CSCNH5SH4CH7CHFeHSH2NHCH3SCHS2H3CHCH3SCNH2C2NC4H10CHCNC4H12NC4H17CHCH2FeCHC3NH2FeHCHC2H5CSCHCHCHC2HCHCHCH6CH3NHSCHCHCHCNH3CH6C2H3C2FeCHCHC2H2SH2CFeHFeSCFeSC3HC2H3NH2CH2CSHSHSFeS2CHCFe2S4HNHSCHC2FeH4NH4CH2C6H4NH3CH3CHC2HSC2H2C4H2SCHC2H3SHFeH3CH3C2H2C2H3C2H3CHSH2SHFeH2C2SNC4H6FeCH6S2CHCHSH2C2H4SNH2CFeS2FeHSFeSFeHSCFeS3CHFeS2HSH4SC3FeH3SH3CHFeSH3FeSHSNFeH2CHFeCSFeH5FeSH2FeS2NC2FeSHNSCHCSH3C2H2C6H5SH5FeHCH2C7H4SH6FeCHNHNCHSHCH2CH3SH4NHNHC6H2SH2C2H2C6H3C6H4C6SH6CH4SFeC3FeC2SH3C2HNSH3C3H3CHC2H3NCH3CSHCH4CHSHSH3C3H4SCHFeHCH2CHCS2FeS2FeS2FeSFeS3HFeS2FeCSFeH2S2HC5FeSHCHSH2SHFeSFeSHCH2CNHCH3C4H2C2FeHNH3CSH2NH3FeH6NCHSC4SH3C6H4C6H4C6H4C3H2C6H4N2CH5CH5NC4H12CHNFeCH4NSH4CHNCHC2H2CH7CHSCSFeH3CH2CH2CS2HSHCHCH2C2H4CFeHC2H3CHCH2SFeC4H2SHSH2SH2S2H5CH3C4HCH2SCHSC4HSH3CH2CH2CH3SH2CH2CFeC2H4FeS2FeS2FeSFeS3FeCSFeHSCH2CS2FeS2FeS2FeHFeS3HFeS2FeS2FeSFeS3C2H2SHSCH2CHSFeSHFeSH2FeSHFeSFeS2FeS2FeSFeS3FeS2FeS2FeSFeS3H2SC6H4C2HCH3C6H5C6H8NH7C6H5FeH2CHFeHC6H4C7H3C3H2C7H4C6H4SH2C4H2C5H3C6H2CHC6H4C6H4C6H4C6H2CH2NC4H12NC4H21CH2NCH2CNC4H12NC4H12NC4H12NC4H9SH3C2S2CH2CFeHCHSNC4H12NC4H11FeC2HFeSH5C2H2SCHFeC2HCHNC4H8SC2HSNH2CNH4C4H4C2HCSHCH3CSHC2HFeH2CH2CH2SH3SCHC2HCN2H2SHFeSC3HC2HS2HCNFe2HCHCSHSHNH2S2HC4H2FeH3CSH5CFeHC2H5NH3SH4CHSCH8CH2FeHCHCHSFeHSCNFeC2H2NCHSHCNHCH5SCS2HC2H3SCFeH2FeNFeHC2HCH2CH2FeH3CHCH6CH3CSHCSCN2H2CHCHFeH2C2HCH2CH3C2SFeHSCH3SNHSFeS2FeS2FeSFeS3CFeS2FeS2FeSFeS3CHSH6NH2FeC2HC3HCH3C5FeH3C6H4CSC4H3CHFeC4H4SHC6H4C6H3FeHCHC4H4CH2C3H2CH13CHC2H2C2HCSHCH7CN2H5CSNC4H12NHCH2CH2SHC2HSHCH2CNH2SCH2CNH3C2H3CH3CSCH4CH3
_chemical_formula_sum              "H4608 Fe576 S1152 N288 C2880"
_cell_length_a       97.8392
_cell_length_b       99.182
_cell_length_c       99.7888
_cell_angle_alpha    73.7295
_cell_angle_beta     73.6896
_cell_angle_gamma    73.7816

_space_group_name_H-M_alt    "P 1"
_space_group_IT_number       1

loop_
  _space_group_symop_operation_xyz
  'x, y, z'

loop_
  _atom_site_type_symbol
  _atom_site_label
  _atom_site_symmetry_multiplicity
  _atom_site_fract_x
  _atom_site_fract_y
  _atom_site_fract_z
  _atom_site_occupancy
  H   H1        1.0  0.47251  0.08283  0.26332  1.0000
  Fe  Fe1       1.0  0.48739  0.03761  0.23352  1.0000
  S   S1        1.0  0.48108  0.04246  0.25537  1.0000
  H   H2        1.0  0.41796  0.01784  0.27490  1.0000
  Fe  Fe2       1.0  0.47445  0.06764  0.21898  1.0000
  S   S2        1.0  0.46679  0.07562  0.23931  1.0000
  S   S3        1.0  0.47267  0.08011  0.19675  1.0000
  Fe  Fe3       1.0  0.48855  0.06298  0.24386  1.0000
  N   N1        1.0  0.46513  0.07280  0.28532  1.0000
  Fe  Fe4       1.0  0.45980  0.05458  0.24928  1.0000
  S   S4        1.0  0.43726  0.05452  0.26323  1.0000
  Fe  Fe5       1.0  0.39978  0.24112  0.07072  1.0000
  S   S5        1.0  0.46536  0.04776  0.22850  1.0000
  C   C1        1.0  0.46947  0.19756  0.04010  1.0000
  H   H3        1.0  0.46722  0.08130  0.30204  1.0000
  H   H4        1.0  0.50048  0.07565  0.17172  1.0000
  C   C2        1.0  0.49434  0.18522  0.04105  1.0000
  C   C3        1.0  0.45425  0.06709  0.28211  1.0000
  H   H5        1.0  0.44390  0.07527  0.28132  1.0000
  Fe  Fe6       1.0  0.47656  0.17241  0.13476  1.0000
  S   S6        1.0  0.45661  0.19001  0.13218  1.0000
  S   S7        1.0  0.42659  0.00643  0.31967  1.0000
  H   H6        1.0  0.48683  0.16393  0.03500  1.0000
  S   S8        1.0  0.47679  0.14897  0.14386  1.0000
  C   C4        1.0  0.47442  0.17569  0.05793  1.0000
  H   H7        1.0  0.45827  0.09428  0.27335  1.0000
  H   H8        1.0  0.42238  0.19155  0.11029  1.0000
  H   H9        1.0  0.40680  0.02799  0.30384  1.0000
  Fe  Fe7       1.0  0.42866  0.22041  0.06334  1.0000
  Fe  Fe8       1.0  0.49392  0.14941  0.15464  1.0000
  S   S9        1.0  0.44375  0.19973  0.07122  1.0000
  N   N2        1.0  0.40087  0.20520  0.11291  1.0000
  H   H10       1.0  0.45839  0.06370  0.27173  1.0000
  C   C5        1.0  0.38759  0.20829  0.10730  1.0000
  H   H11       1.0  0.44622  0.02130  0.24085  1.0000
  S   S10       1.0  0.40558  0.21960  0.06508  1.0000
  S   S11       1.0  0.49190  0.17336  0.14734  1.0000
  H   H12       1.0  0.45147  0.05754  0.29045  1.0000
  C   C6        1.0  0.42681  0.00809  0.27373  1.0000
  H   H13       1.0  0.41584  0.21681  0.11424  1.0000
  S   S12       1.0  0.39412  0.00031  0.30606  1.0000
  H   H14       1.0  0.41409  0.01908  0.25128  1.0000
  C   C7        1.0  0.41233  0.19439  0.10603  1.0000
  H   H15       1.0  0.48773  0.03976  0.20704  1.0000
  H   H16       1.0  0.47287  0.20367  0.02899  1.0000
  H   H17       1.0  0.46297  0.17452  0.05999  1.0000
  H   H18       1.0  0.43243  0.03112  0.25291  1.0000
  H   H19       1.0  0.45682  0.06753  0.30806  1.0000
  H   H20       1.0  0.48136  0.16470  0.06039  1.0000
  N   N3        1.0  0.43388  0.00823  0.25854  1.0000
  H   H21       1.0  0.40919  0.22290  0.09803  1.0000
  H   H22       1.0  0.49843  0.19102  0.02996  1.0000
  C   C8        1.0  0.40777  0.23342  0.99647  1.0000
  H   H23       1.0  0.42180  0.99861  0.27889  1.0000
  H   H24       1.0  0.48733  0.06560  0.28791  1.0000
  Fe  Fe9       1.0  0.49568  0.14542  0.12538  1.0000
  H   H25       1.0  0.38324  0.19847  0.10948  1.0000
  H   H26       1.0  0.40273  0.22474  0.99719  1.0000
  H   H27       1.0  0.42776  0.00922  0.23915  1.0000
  C   C9        1.0  0.49447  0.07044  0.14940  1.0000
  H   H28       1.0  0.48475  0.07596  0.15641  1.0000
  C   C10       1.0  0.40611  0.21860  0.10976  1.0000
  C   C11       1.0  0.46824  0.08555  0.27403  1.0000
  H   H29       1.0  0.48296  0.18017  0.02175  1.0000
  H   H30       1.0  0.43477  0.00767  0.27997  1.0000
  Fe  Fe10      1.0  0.40887  0.23212  0.04240  1.0000
  H   H31       1.0  0.44899  0.02061  0.25808  1.0000
  C   C12       1.0  0.39748  0.19955  0.12856  1.0000
  H   H32       1.0  0.48336  0.05818  0.27547  1.0000
  H   H33       1.0  0.47670  0.08995  0.27586  1.0000
  H   H34       1.0  0.39754  0.22720  0.11431  1.0000
  C   C13       1.0  0.47872  0.06160  0.28583  1.0000
  H   H35       1.0  0.49514  0.05864  0.15337  1.0000
  S   S13       1.0  0.42269  0.24099  0.07090  1.0000
  H   H36       1.0  0.38981  0.21261  0.09551  1.0000
  S   S14       1.0  0.49680  0.05701  0.22262  1.0000
  H   H37       1.0  0.47684  0.05181  0.29426  1.0000
  H   H38       1.0  0.49111  0.04388  0.18105  1.0000
  H   H39       1.0  0.44898  0.08533  0.29928  1.0000
  C   C14       1.0  0.45343  0.19285  0.11507  1.0000
  C   C15       1.0  0.44655  0.20651  0.10848  1.0000
  C   C16       1.0  0.44384  0.20882  0.09483  1.0000
  C   C17       1.0  0.44780  0.19742  0.08788  1.0000
  C   C18       1.0  0.45468  0.18376  0.09449  1.0000
  C   C19       1.0  0.45757  0.18150  0.10803  1.0000
  H   H40       1.0  0.44354  0.21533  0.11385  1.0000
  H   H41       1.0  0.43876  0.21941  0.08973  1.0000
  H   H42       1.0  0.45757  0.17483  0.08930  1.0000
  H   H43       1.0  0.46272  0.17089  0.11316  1.0000
  H   H44       1.0  0.40864  0.18425  0.10785  1.0000
  H   H45       1.0  0.41742  0.99980  0.25517  1.0000
  H   H46       1.0  0.45805  0.19654  0.04156  1.0000
  H   H47       1.0  0.41122  0.04698  0.28184  1.0000
  H   H48       1.0  0.41551  0.19844  0.09423  1.0000
  C   C20       1.0  0.45928  0.07693  0.29930  1.0000
  C   C21       1.0  0.43462  0.04123  0.27903  1.0000
  C   C22       1.0  0.42036  0.03983  0.28608  1.0000
  C   C23       1.0  0.41784  0.02909  0.29851  1.0000
  C   C24       1.0  0.42957  0.01996  0.30416  1.0000
  C   C25       1.0  0.44383  0.02157  0.29731  1.0000
  C   C26       1.0  0.44638  0.03203  0.28462  1.0000
  H   H49       1.0  0.49245  0.07342  0.13841  1.0000
  S   S15       1.0  0.40121  0.22692  0.02572  1.0000
  H   H50       1.0  0.45292  0.01451  0.30170  1.0000
  H   H51       1.0  0.45741  0.03302  0.27925  1.0000
  C   C27       1.0  0.47952  0.09582  0.19144  1.0000
  C   C28       1.0  0.47971  0.10407  0.17752  1.0000
  C   C29       1.0  0.48512  0.11667  0.17297  1.0000
  C   C30       1.0  0.49001  0.12132  0.18244  1.0000
  H   H52       1.0  0.39350  0.18942  0.13134  1.0000
  C   C31       1.0  0.48485  0.10017  0.20082  1.0000
  H   H53       1.0  0.47549  0.10078  0.17029  1.0000
  H   H54       1.0  0.48534  0.12283  0.16218  1.0000
  S   S16       1.0  0.43255  0.23110  0.04002  1.0000
  Fe  Fe11      1.0  0.41035  0.99409  0.32000  1.0000
  H   H55       1.0  0.40733  0.19711  0.13309  1.0000
  H   H56       1.0  0.49478  0.19147  0.04855  1.0000
  H   H57       1.0  0.38891  0.20747  0.13410  1.0000
  H   H58       1.0  0.48480  0.09380  0.21157  1.0000
  H   H59       1.0  0.49239  0.15537  0.09523  1.0000
  N   N4        1.0  0.47939  0.18331  0.04304  1.0000
  C   C32       1.0  0.47935  0.17472  0.03310  1.0000
  H   H60       1.0  0.46913  0.20425  0.04754  1.0000
  H   H61       1.0  0.47470  0.18167  0.06575  1.0000
  C   C33       1.0  0.40858  0.23666  0.00896  1.0000
  C   C34       1.0  0.49549  0.03195  0.20155  1.0000
  H   H62       1.0  0.37878  0.21659  0.11209  1.0000
  H   H63       1.0  0.49385  0.11644  0.20370  1.0000
  C   C35       1.0  0.44069  0.02083  0.25231  1.0000
  H   H64       1.0  0.46823  0.17299  0.03445  1.0000
  C   C36       1.0  0.49001  0.11296  0.19634  1.0000
  S   S17       1.0  0.49398  0.16888  0.11523  1.0000
  C   C37       1.0  0.42281  0.00913  0.25066  1.0000
  S   S18       1.0  0.50095  0.01694  0.22771  1.0000
  S   S19       1.0  0.49599  0.13759  0.17708  1.0000
  C   C38       1.0  0.49750  0.03436  0.18672  1.0000
  H   H65       1.0  0.49727  0.09625  0.15074  1.0000
  H   H66       1.0  0.45367  0.99384  0.26341  1.0000
  S   S20       1.0  0.50270  0.07218  0.25157  1.0000
  H   H67       1.0  0.50212  0.17466  0.04303  1.0000
  H   H68       1.0  0.45079  0.99459  0.24618  1.0000
  S   S21       1.0  0.49921  0.12760  0.11414  1.0000
  C   C39       1.0  0.49988  0.14796  0.08901  1.0000
  H   H69       1.0  0.50283  0.16427  0.06964  1.0000
  C   C40       1.0  0.44518  0.99486  0.25751  1.0000
  C   C41       1.0  0.50344  0.01958  0.20910  1.0000
  Fe  Fe12      1.0  0.04940  0.09945  0.55633  1.0000
  S   S22       1.0  0.06529  0.08176  0.54645  1.0000
  S   S23       1.0  0.02559  0.10661  0.55548  1.0000
  Fe  Fe13      1.0  0.07306  0.10834  0.56439  1.0000
  S   S24       1.0  0.09088  0.09153  0.55513  1.0000
  S   S25       1.0  0.07618  0.12419  0.57508  1.0000
  Fe  Fe14      1.0  0.07940  0.09794  0.53701  1.0000
  S   S26       1.0  0.08939  0.10319  0.51356  1.0000
  Fe  Fe15      1.0  0.07525  0.07689  0.56546  1.0000
  S   S27       1.0  0.08116  0.05515  0.57980  1.0000
  S   S28       1.0  0.06283  0.11600  0.54540  1.0000
  S   S29       1.0  0.05807  0.09331  0.57622  1.0000
  Fe  Fe16      1.0  0.15055  0.01163  0.54718  1.0000
  H   H70       1.0  0.38777  0.01834  0.64780  1.0000
  H   H71       1.0  0.03283  0.11446  0.52205  1.0000
  Fe  Fe17      1.0  0.15920  0.03890  0.52887  1.0000
  S   S30       1.0  0.18254  0.02808  0.52141  1.0000
  S   S31       1.0  0.14792  0.06212  0.52421  1.0000
  H   H72       1.0  0.07446  0.23237  0.46608  1.0000
  Fe  Fe18      1.0  0.18076  0.01622  0.54434  1.0000
  S   S32       1.0  0.19853  0.01188  0.55616  1.0000
  S   S33       1.0  0.14973  0.02284  0.52455  1.0000
  S   S34       1.0  0.15827  0.02854  0.55200  1.0000
  Fe  Fe19      1.0  0.12995  0.16419  0.48532  1.0000
  S   S35       1.0  0.12050  0.18764  0.48485  1.0000
  S   S36       1.0  0.12835  0.14705  0.50542  1.0000
  Fe  Fe20      1.0  0.14716  0.16950  0.45485  1.0000
  S   S37       1.0  0.13941  0.19347  0.45151  1.0000
  S   S38       1.0  0.16218  0.15955  0.43699  1.0000
  Fe  Fe21      1.0  0.14312  0.19031  0.47351  1.0000
  S   S39       1.0  0.15533  0.20408  0.47791  1.0000
  Fe  Fe22      1.0  0.11747  0.18869  0.46296  1.0000
  S   S40       1.0  0.09604  0.20039  0.45660  1.0000
  S   S41       1.0  0.15282  0.16685  0.47572  1.0000
  S   S42       1.0  0.12496  0.16477  0.46457  1.0000
  Fe  Fe23      1.0  0.14149  0.15309  0.57211  1.0000
  S   S43       1.0  0.13054  0.17610  0.56457  1.0000
  S   S44       1.0  0.13967  0.13427  0.56480  1.0000
  Fe  Fe24      1.0  0.15982  0.16050  0.58744  1.0000
  S   S45       1.0  0.15067  0.18420  0.58135  1.0000
  S   S46       1.0  0.17762  0.15362  0.59967  1.0000
  Fe  Fe25      1.0  0.12897  0.17842  0.58682  1.0000
  S   S47       1.0  0.10845  0.19357  0.59580  1.0000
  Fe  Fe26      1.0  0.15283  0.18043  0.55968  1.0000
  S   S48       1.0  0.16108  0.19732  0.54124  1.0000
  S   S49       1.0  0.13782  0.15476  0.59493  1.0000
  S   S50       1.0  0.16412  0.15731  0.56521  1.0000
  Fe  Fe27      1.0  0.22323  0.07932  0.60164  1.0000
  S   S51       1.0  0.24739  0.07646  0.59841  1.0000
  S   S52       1.0  0.20853  0.08868  0.61997  1.0000
  Fe  Fe28      1.0  0.22587  0.06796  0.57570  1.0000
  S   S53       1.0  0.25033  0.06364  0.57027  1.0000
  S   S54       1.0  0.21230  0.06860  0.56066  1.0000
  Fe  Fe29      1.0  0.24871  0.05516  0.59397  1.0000
  S   S55       1.0  0.26349  0.03460  0.60321  1.0000
  Fe  Fe30      1.0  0.24698  0.08511  0.57526  1.0000
  S   S56       1.0  0.25915  0.10166  0.56100  1.0000
  S   S57       1.0  0.22430  0.05733  0.59896  1.0000
  S   S58       1.0  0.22273  0.09016  0.57896  1.0000
  Fe  Fe31      1.0  0.22369  0.10667  0.46760  1.0000
  S   S59       1.0  0.24452  0.09244  0.47299  1.0000
  S   S60       1.0  0.22266  0.11809  0.44504  1.0000
  Fe  Fe32      1.0  0.20680  0.10136  0.49802  1.0000
  S   S61       1.0  0.22587  0.08645  0.50636  1.0000
  S   S62       1.0  0.18508  0.10819  0.51213  1.0000
  Fe  Fe33      1.0  0.23841  0.10274  0.49179  1.0000
  S   S63       1.0  0.25522  0.11083  0.49687  1.0000
  Fe  Fe34      1.0  0.23038  0.07730  0.48691  1.0000
  S   S64       1.0  0.23805  0.05329  0.48848  1.0000
  S   S65       1.0  0.21890  0.11849  0.48501  1.0000
  S   S66       1.0  0.20987  0.09070  0.47998  1.0000
  Fe  Fe35      1.0  0.28988  0.01587  0.42756  1.0000
  S   S67       1.0  0.31337  0.01384  0.42723  1.0000
  S   S68       1.0  0.27375  0.03697  0.42949  1.0000
  H   H73       1.0  0.30908  0.06829  0.37344  1.0000
  C   C42       1.0  0.31814  0.00070  0.60417  1.0000
  H   H74       1.0  0.22779  0.00853  0.47216  1.0000
  H   H75       1.0  0.07403  0.21133  0.44022  1.0000
  H   H76       1.0  0.18607  0.16093  0.46982  1.0000
  Fe  Fe36      1.0  0.31799  0.00766  0.40624  1.0000
  S   S69       1.0  0.33462  0.01813  0.38908  1.0000
  H   H77       1.0  0.19400  0.11188  0.53636  1.0000
  S   S70       1.0  0.29452  0.01104  0.40579  1.0000
  C   C43       1.0  0.00807  0.23589  0.39683  1.0000
  H   H78       1.0  0.02742  0.05924  0.54814  1.0000
  H   H79       1.0  0.36837  0.00993  0.34423  1.0000
  C   C44       1.0  0.24349  0.07173  0.63661  1.0000
  C   C45       1.0  0.00879  0.07503  0.54199  1.0000
  H   H80       1.0  0.06843  0.10430  0.49740  1.0000
  H   H81       1.0  0.08527  0.17879  0.54953  1.0000
  C   C46       1.0  0.31183  0.02314  0.58758  1.0000
  H   H82       1.0  0.21510  0.16732  0.45190  1.0000
  H   H83       1.0  0.12709  0.15783  0.52872  1.0000
  C   C47       1.0  0.14850  0.22519  0.55993  1.0000
  H   H84       1.0  0.10721  0.18758  0.52127  1.0000
  N   N5        1.0  0.19294  0.17959  0.45529  1.0000
  H   H85       1.0  0.28842  0.04240  0.39980  1.0000
  C   C48       1.0  0.34986  0.00043  0.34858  1.0000
  H   H86       1.0  0.15372  0.21369  0.56352  1.0000
  C   C49       1.0  0.32899  0.02058  0.60189  1.0000
  H   H87       1.0  0.03615  0.07609  0.55632  1.0000
  C   C50       1.0  0.00621  0.09891  0.54554  1.0000
  H   H88       1.0  0.25402  0.06885  0.62900  1.0000
  H   H89       1.0  0.19452  0.04416  0.48419  1.0000
  C   C51       1.0  0.34026  0.01135  0.37352  1.0000
  H   H90       1.0  0.23051  0.02128  0.48930  1.0000
  C   C52       1.0  0.33671  0.99815  0.35811  1.0000
  C   C53       1.0  0.12430  0.22037  0.56811  1.0000
  H   H91       1.0  0.17690  0.17423  0.44792  1.0000
  Fe  Fe37      1.0  0.31774  0.01621  0.65167  1.0000
  H   H92       1.0  0.24468  0.04952  0.62576  1.0000
  H   H93       1.0  0.29423  0.07679  0.40238  1.0000
  H   H94       1.0  0.33312  0.03007  0.59464  1.0000
  H   H95       1.0  0.33814  0.01338  0.60679  1.0000
  H   H96       1.0  0.14256  0.23241  0.58522  1.0000
  H   H97       1.0  0.00911  0.00782  0.54819  1.0000
  H   H98       1.0  0.33243  0.00184  0.57689  1.0000
  C   C54       1.0  0.19383  0.10273  0.54586  1.0000
  N   N6        1.0  0.21300  0.02751  0.47824  1.0000
  H   H99       1.0  0.04563  0.11912  0.48998  1.0000
  H   H100      1.0  0.11696  0.23174  0.41218  1.0000
  H   H101      1.0  0.06468  0.08850  0.49498  1.0000
  H   H102      1.0  0.11086  0.00655  0.58862  1.0000
  H   H103      1.0  0.34511  0.00033  0.58745  1.0000
  H   H104      1.0  0.15144  0.00298  0.50787  1.0000
  H   H105      1.0  0.06607  0.22445  0.62453  1.0000
  H   H106      1.0  0.32187  0.00160  0.37804  1.0000
  H   H107      1.0  0.07234  0.22988  0.41778  1.0000
  C   C55       1.0  0.24865  0.04883  0.47224  1.0000
  C   C56       1.0  0.25723  0.03489  0.47210  1.0000
  C   C57       1.0  0.26520  0.03109  0.45907  1.0000
  C   C58       1.0  0.26445  0.04120  0.44615  1.0000
  C   C59       1.0  0.25582  0.05508  0.44635  1.0000
  C   C60       1.0  0.24800  0.05891  0.45934  1.0000
  H   H108      1.0  0.25776  0.02704  0.48206  1.0000
  H   H109      1.0  0.27184  0.02035  0.45898  1.0000
  H   H110      1.0  0.25514  0.06293  0.43640  1.0000
  H   H111      1.0  0.24130  0.06963  0.45931  1.0000
  C   C61       1.0  0.27417  0.03512  0.61461  1.0000
  C   C62       1.0  0.28025  0.02224  0.62320  1.0000
  C   C63       1.0  0.28854  0.02234  0.63262  1.0000
  C   C64       1.0  0.29078  0.03536  0.63354  1.0000
  C   C65       1.0  0.28484  0.04822  0.62483  1.0000
  C   C66       1.0  0.27669  0.04809  0.61530  1.0000
  H   H112      1.0  0.27833  0.01216  0.62275  1.0000
  H   H113      1.0  0.17083  0.19058  0.45424  1.0000
  H   H114      1.0  0.28664  0.05831  0.62541  1.0000
  H   H115      1.0  0.27247  0.05802  0.60844  1.0000
  C   C67       1.0  0.25783  0.10401  0.54330  1.0000
  C   C68       1.0  0.26650  0.11218  0.53225  1.0000
  C   C69       1.0  0.26554  0.11420  0.51805  1.0000
  C   C70       1.0  0.25577  0.10824  0.51485  1.0000
  C   C71       1.0  0.24684  0.10031  0.52594  1.0000
  C   C72       1.0  0.24794  0.09810  0.54017  1.0000
  H   H116      1.0  0.27413  0.11678  0.53462  1.0000
  H   H117      1.0  0.27246  0.12034  0.50950  1.0000
  H   H118      1.0  0.23916  0.09584  0.52356  1.0000
  H   H119      1.0  0.24111  0.09188  0.54867  1.0000
  C   C73       1.0  0.10910  0.20508  0.60619  1.0000
  C   C74       1.0  0.09799  0.21750  0.60728  1.0000
  C   C75       1.0  0.09813  0.22693  0.61545  1.0000
  C   C76       1.0  0.10919  0.22385  0.62291  1.0000
  C   C77       1.0  0.12032  0.21144  0.62177  1.0000
  C   C78       1.0  0.12034  0.20212  0.61338  1.0000
  H   H120      1.0  0.08929  0.21989  0.60169  1.0000
  H   H121      1.0  0.08957  0.23646  0.61610  1.0000
  H   H122      1.0  0.12892  0.20894  0.62750  1.0000
  H   H123      1.0  0.12892  0.19253  0.61269  1.0000
  C   C79       1.0  0.18486  0.13525  0.60572  1.0000
  C   C80       1.0  0.18392  0.12464  0.59942  1.0000
  C   C81       1.0  0.19133  0.11027  0.60358  1.0000
  C   C82       1.0  0.19922  0.10648  0.61436  1.0000
  C   C83       1.0  0.19978  0.11705  0.62083  1.0000
  C   C84       1.0  0.19285  0.13139  0.61636  1.0000
  H   H124      1.0  0.17776  0.12759  0.59118  1.0000
  H   H125      1.0  0.19073  0.10207  0.59866  1.0000
  H   H126      1.0  0.20579  0.11420  0.62918  1.0000
  H   H127      1.0  0.19364  0.13955  0.62122  1.0000
  C   C85       1.0  0.09627  0.21138  0.43926  1.0000
  C   C86       1.0  0.10847  0.21692  0.43113  1.0000
  S   S71       1.0  0.34048  0.01802  0.65096  1.0000
  N   N7        1.0  0.06152  0.21752  0.64749  1.0000
  Fe  Fe38      1.0  0.17296  0.01079  0.51936  1.0000
  C   C87       1.0  0.08340  0.21581  0.43414  1.0000
  H   H128      1.0  0.11845  0.21360  0.43494  1.0000
  H   H129      1.0  0.18309  0.19003  0.43716  1.0000
  H   H130      1.0  0.30252  0.02734  0.59585  1.0000
  C   C88       1.0  0.31373  0.06261  0.38302  1.0000
  C   C89       1.0  0.17892  0.14823  0.43975  1.0000
  C   C90       1.0  0.18173  0.14254  0.45348  1.0000
  C   C91       1.0  0.19513  0.13314  0.45528  1.0000
  C   C92       1.0  0.20581  0.12971  0.44329  1.0000
  C   C93       1.0  0.20305  0.13564  0.42961  1.0000
  C   C94       1.0  0.18961  0.14476  0.42786  1.0000
  H   H131      1.0  0.17347  0.14503  0.46271  1.0000
  H   H132      1.0  0.19721  0.12853  0.46589  1.0000
  H   H133      1.0  0.21128  0.13300  0.42033  1.0000
  H   H134      1.0  0.18748  0.14914  0.41723  1.0000
  C   C95       1.0  0.15653  0.20158  0.49576  1.0000
  C   C96       1.0  0.15135  0.19060  0.50675  1.0000
  C   C97       1.0  0.15274  0.18901  0.52086  1.0000
  C   C98       1.0  0.15919  0.19847  0.52390  1.0000
  C   C99       1.0  0.16433  0.20935  0.51287  1.0000
  C   C100      1.0  0.16304  0.21087  0.49888  1.0000
  H   H135      1.0  0.20358  0.10131  0.55019  1.0000
  H   H136      1.0  0.14896  0.18047  0.52933  1.0000
  H   H137      1.0  0.16937  0.21664  0.51513  1.0000
  C   C101      1.0  0.06257  0.09539  0.50273  1.0000
  C   C102      1.0  0.15861  0.07423  0.52232  1.0000
  C   C103      1.0  0.15170  0.08814  0.52433  1.0000
  C   C104      1.0  0.15997  0.09841  0.52171  1.0000
  C   C105      1.0  0.17510  0.09487  0.51676  1.0000
  C   C106      1.0  0.18206  0.08087  0.51510  1.0000
  C   C107      1.0  0.17381  0.07048  0.51804  1.0000
  H   H138      1.0  0.13993  0.09109  0.52752  1.0000
  H   H139      1.0  0.15458  0.10925  0.52301  1.0000
  H   H140      1.0  0.19379  0.07809  0.51143  1.0000
  H   H141      1.0  0.17915  0.05975  0.51648  1.0000
  C   C108      1.0  0.20142  0.02769  0.55841  1.0000
  C   C109      1.0  0.19447  0.04115  0.55154  1.0000
  C   C110      1.0  0.19752  0.05371  0.55273  1.0000
  C   C111      1.0  0.20742  0.05284  0.56088  1.0000
  C   C112      1.0  0.21406  0.03943  0.56809  1.0000
  C   C113      1.0  0.21114  0.02685  0.56676  1.0000
  H   H142      1.0  0.18701  0.04187  0.54504  1.0000
  H   H143      1.0  0.19248  0.06407  0.54700  1.0000
  H   H144      1.0  0.22170  0.03874  0.57441  1.0000
  H   H145      1.0  0.21646  0.01643  0.57212  1.0000
  C   C114      1.0  0.09404  0.12614  0.57289  1.0000
  C   C115      1.0  0.09636  0.13575  0.57959  1.0000
  C   C116      1.0  0.11039  0.13820  0.57731  1.0000
  C   C117      1.0  0.12216  0.13091  0.56843  1.0000
  C   C118      1.0  0.11990  0.12121  0.56184  1.0000
  C   C119      1.0  0.10585  0.11889  0.56400  1.0000
  H   H146      1.0  0.08725  0.14142  0.58644  1.0000
  H   H147      1.0  0.11208  0.14570  0.58243  1.0000
  H   H148      1.0  0.12893  0.11578  0.55472  1.0000
  H   H149      1.0  0.10411  0.11186  0.55843  1.0000
  C   C120      1.0  0.10065  0.11511  0.51081  1.0000
  C   C121      1.0  0.10109  0.12662  0.49887  1.0000
  C   C122      1.0  0.10947  0.13664  0.49716  1.0000
  C   C123      1.0  0.11768  0.13489  0.50720  1.0000
  C   C124      1.0  0.11746  0.12324  0.51896  1.0000
  C   C125      1.0  0.10889  0.11341  0.52080  1.0000
  H   H150      1.0  0.09465  0.12801  0.49118  1.0000
  H   H151      1.0  0.10946  0.14573  0.48816  1.0000
  H   H152      1.0  0.12385  0.12183  0.52671  1.0000
  H   H153      1.0  0.10885  0.10439  0.52985  1.0000
  C   C126      1.0  0.09433  0.04053  0.57404  1.0000
  C   C127      1.0  0.09736  0.02784  0.58428  1.0000
  C   C128      1.0  0.10856  0.01627  0.58058  1.0000
  C   C129      1.0  0.11710  0.01744  0.56666  1.0000
  C   C130      1.0  0.11400  0.03007  0.55629  1.0000
  C   C131      1.0  0.10236  0.04148  0.55989  1.0000
  H   H154      1.0  0.09112  0.02700  0.59521  1.0000
  H   H155      1.0  0.15596  0.23176  0.56011  1.0000
  H   H156      1.0  0.12044  0.03096  0.54545  1.0000
  H   H157      1.0  0.09979  0.05107  0.55180  1.0000
  S   S72       1.0  0.10928  0.23497  0.63399  1.0000
  C   C132      1.0  0.02650  0.07987  0.55193  1.0000
  H   H158      1.0  0.00826  0.12193  0.57832  1.0000
  Fe  Fe39      1.0  0.34741  0.00139  0.63782  1.0000
  C   C133      1.0  0.01899  0.09423  0.55080  1.0000
  H   H159      1.0  0.18164  0.08264  0.56644  1.0000
  C   C134      1.0  0.08242  0.22633  0.42143  1.0000
  H   H160      1.0  0.23244  0.03294  0.46349  1.0000
  H   H161      1.0  0.19518  0.09288  0.54192  1.0000
  C   C135      1.0  0.29043  0.06887  0.39911  1.0000
  H   H162      1.0  0.19002  0.09167  0.57411  1.0000
  C   C136      1.0  0.02146  0.07030  0.54743  1.0000
  C   C137      1.0  0.21590  0.01346  0.47438  1.0000
  C   C138      1.0  0.24764  0.04820  0.65226  1.0000
  C   C139      1.0  0.19712  0.03362  0.48111  1.0000
  H   H163      1.0  0.21183  0.01457  0.46468  1.0000
  H   H164      1.0  0.18789  0.11834  0.56555  1.0000
  H   H165      1.0  0.31561  0.03260  0.57987  1.0000
  S   S73       1.0  0.17299  0.99804  0.54179  1.0000
  H   H166      1.0  0.21630  0.03966  0.45645  1.0000
  H   H167      1.0  0.17751  0.12810  0.55211  1.0000
  H   H168      1.0  0.17047  0.09457  0.57790  1.0000
  N   N8        1.0  0.12833  0.06432  0.56861  1.0000
  C   C140      1.0  0.12264  0.06510  0.55614  1.0000
  C   C141      1.0  0.14379  0.06541  0.56377  1.0000
  C   C142      1.0  0.12704  0.05047  0.57888  1.0000
  C   C143      1.0  0.11972  0.07633  0.57559  1.0000
  H   H169      1.0  0.12828  0.05574  0.55108  1.0000
  H   H170      1.0  0.12402  0.07503  0.54774  1.0000
  H   H171      1.0  0.11086  0.06501  0.55935  1.0000
  H   H172      1.0  0.14866  0.06436  0.57293  1.0000
  H   H173      1.0  0.15043  0.05686  0.55792  1.0000
  H   H174      1.0  0.14499  0.07588  0.55623  1.0000
  H   H175      1.0  0.13146  0.04929  0.58836  1.0000
  H   H176      1.0  0.13300  0.04115  0.57385  1.0000
  H   H177      1.0  0.11543  0.04950  0.58282  1.0000
  H   H178      1.0  0.12377  0.07619  0.58499  1.0000
  H   H179      1.0  0.10799  0.07572  0.57947  1.0000
  H   H180      1.0  0.12015  0.08694  0.56805  1.0000
  H   H181      1.0  0.19257  0.03528  0.47158  1.0000
  H   H182      1.0  0.39344  0.00782  0.62643  1.0000
  C   C144      1.0  0.10757  0.22727  0.41827  1.0000
  H   H183      1.0  0.41223  0.00135  0.62796  1.0000
  H   H184      1.0  0.23012  0.04274  0.63902  1.0000
  H   H185      1.0  0.32300  0.05371  0.37988  1.0000
  C   C145      1.0  0.30934  0.04947  0.40755  1.0000
  H   H186      1.0  0.31369  0.05684  0.41103  1.0000
  H   H187      1.0  0.30584  0.03742  0.38819  1.0000
  H   H188      1.0  0.05032  0.11899  0.51336  1.0000
  C   C146      1.0  0.22049  0.03746  0.46630  1.0000
  N   N9        1.0  0.39647  0.99596  0.64744  1.0000
  H   H189      1.0  0.16707  0.21934  0.49045  1.0000
  H   H190      1.0  0.32014  0.02455  0.61064  1.0000
  H   H191      1.0  0.12874  0.20867  0.57164  1.0000
  H   H192      1.0  0.06370  0.19976  0.63812  1.0000
  H   H193      1.0  0.04896  0.10353  0.52768  1.0000
  N   N10       1.0  0.15500  0.11327  0.47819  1.0000
  C   C147      1.0  0.13915  0.11464  0.48022  1.0000
  C   C148      1.0  0.15743  0.12269  0.48607  1.0000
  C   C149      1.0  0.16149  0.11759  0.46278  1.0000
  C   C150      1.0  0.16189  0.09817  0.48371  1.0000
  H   H194      1.0  0.13684  0.10766  0.47450  1.0000
  H   H195      1.0  0.13363  0.12593  0.47619  1.0000
  H   H196      1.0  0.13391  0.11145  0.49176  1.0000
  H   H197      1.0  0.15251  0.13419  0.48207  1.0000
  H   H198      1.0  0.15233  0.11997  0.49767  1.0000
  H   H199      1.0  0.16927  0.12172  0.48512  1.0000
  H   H200      1.0  0.17353  0.11617  0.46082  1.0000
  H   H201      1.0  0.15689  0.12911  0.45834  1.0000
  H   H202      1.0  0.15942  0.11106  0.45644  1.0000
  H   H203      1.0  0.17371  0.09689  0.48315  1.0000
  H   H204      1.0  0.16086  0.09082  0.47760  1.0000
  H   H205      1.0  0.15668  0.09434  0.49508  1.0000
  H   H206      1.0  0.19813  0.16774  0.47553  1.0000
  C   C151      1.0  0.12081  0.16392  0.53714  1.0000
  N   N11       1.0  0.10506  0.16810  0.53724  1.0000
  H   H207      1.0  0.31832  0.07029  0.38579  1.0000
  C   C152      1.0  0.18896  0.17097  0.46994  1.0000
  H   H208      1.0  0.10124  0.18530  0.54791  1.0000
  C   C153      1.0  0.33590  0.00782  0.58283  1.0000
  H   H209      1.0  0.11320  0.22286  0.57503  1.0000
  C   C154      1.0  0.20550  0.17095  0.44686  1.0000
  H   H210      1.0  0.06189  0.23389  0.44779  1.0000
  H   H211      1.0  0.24562  0.07686  0.64419  1.0000
  C   C155      1.0  0.10279  0.17780  0.52343  1.0000
  H   H212      1.0  0.12550  0.17347  0.53515  1.0000
  H   H213      1.0  0.20278  0.16112  0.44591  1.0000
  H   H214      1.0  0.09873  0.16834  0.55962  1.0000
  C   C156      1.0  0.09721  0.17550  0.54907  1.0000
  H   H215      1.0  0.21616  0.03579  0.49464  1.0000
  C   C157      1.0  0.18041  0.18379  0.44835  1.0000
  C   C158      1.0  0.19682  0.19270  0.45603  1.0000
  H   H216      1.0  0.17941  0.17714  0.47656  1.0000
  C   C159      1.0  0.50369  0.00108  0.62704  1.0000
  H   H217      1.0  0.21330  0.01773  0.50035  1.0000
  H   H218      1.0  0.30745  0.01782  0.58175  1.0000
  H   H219      1.0  0.20626  0.18998  0.46117  1.0000
  H   H220      1.0  0.18751  0.19936  0.46242  1.0000
  H   H221      1.0  0.30902  0.00421  0.61293  1.0000
  C   C160      1.0  0.35827  0.00805  0.35160  1.0000
  H   H222      1.0  0.14642  0.18330  0.50436  1.0000
  H   H223      1.0  0.29203  0.05192  0.38151  1.0000
  H   H224      1.0  0.34031  0.01685  0.57494  1.0000
  C   C161      1.0  0.21848  0.02546  0.49121  1.0000
  C   C162      1.0  0.40123  0.99875  0.63167  1.0000
  H   H225      1.0  0.35980  0.01975  0.36617  1.0000
  H   H226      1.0  0.04083  0.08179  0.50727  1.0000
  C   C163      1.0  0.17847  0.11863  0.56124  1.0000
  S   S74       1.0  0.30036  0.03593  0.64587  1.0000
  C   C164      1.0  0.29699  0.04673  0.39097  1.0000
  H   H227      1.0  0.29280  0.01239  0.63949  1.0000
  H   H228      1.0  0.08092  0.22386  0.64731  1.0000
  H   H229      1.0  0.04191  0.10337  0.48740  1.0000
  C   C165      1.0  0.35337  0.01367  0.36396  1.0000
  H   H230      1.0  0.19972  0.19957  0.44518  1.0000
  C   C166      1.0  0.05922  0.22834  0.63425  1.0000
  H   H231      1.0  0.31855  0.04036  0.40498  1.0000
  N   N12       1.0  0.24633  0.04674  0.52828  1.0000
  C   C167      1.0  0.24811  0.04408  0.54308  1.0000
  C   C168      1.0  0.25315  0.03357  0.52262  1.0000
  C   C169      1.0  0.25339  0.05860  0.51919  1.0000
  C   C170      1.0  0.23061  0.05071  0.52827  1.0000
  H   H232      1.0  0.24265  0.05374  0.54774  1.0000
  H   H233      1.0  0.25981  0.04143  0.54355  1.0000
  H   H234      1.0  0.24313  0.03503  0.55018  1.0000
  H   H235      1.0  0.25206  0.03532  0.51141  1.0000
  H   H236      1.0  0.26500  0.03017  0.52258  1.0000
  H   H237      1.0  0.24793  0.02446  0.52912  1.0000
  H   H238      1.0  0.25211  0.06100  0.50794  1.0000
  H   H239      1.0  0.26529  0.05593  0.51884  1.0000
  H   H240      1.0  0.24859  0.06868  0.52323  1.0000
  H   H241      1.0  0.22872  0.05284  0.51734  1.0000
  H   H242      1.0  0.22510  0.06062  0.53245  1.0000
  H   H243      1.0  0.22499  0.04196  0.53499  1.0000
  H   H244      1.0  0.15716  0.10778  0.55868  1.0000
  C   C171      1.0  0.09944  0.15512  0.53933  1.0000
  H   H245      1.0  0.10104  0.14758  0.54957  1.0000
  H   H246      1.0  0.10518  0.14915  0.53071  1.0000
  H   H247      1.0  0.08758  0.15779  0.53951  1.0000
  H   H248      1.0  0.09102  0.18131  0.52315  1.0000
  H   H249      1.0  0.10841  0.17230  0.51441  1.0000
  H   H250      1.0  0.12288  0.15689  0.54751  1.0000
  N   N13       1.0  0.22609  0.13849  0.56614  1.0000
  C   C172      1.0  0.21293  0.13676  0.57760  1.0000
  C   C173      1.0  0.22725  0.13030  0.55540  1.0000
  C   C174      1.0  0.23913  0.13297  0.57241  1.0000
  C   C175      1.0  0.22504  0.15389  0.55918  1.0000
  H   H251      1.0  0.21169  0.14278  0.58593  1.0000
  H   H252      1.0  0.21338  0.12526  0.58311  1.0000
  H   H253      1.0  0.20278  0.14087  0.57338  1.0000
  H   H254      1.0  0.23712  0.13134  0.54660  1.0000
  H   H255      1.0  0.22826  0.11861  0.56027  1.0000
  H   H256      1.0  0.21757  0.13407  0.55050  1.0000
  H   H257      1.0  0.24937  0.13346  0.56401  1.0000
  H   H258      1.0  0.23993  0.12149  0.57817  1.0000
  H   H259      1.0  0.23887  0.13917  0.58024  1.0000
  H   H260      1.0  0.23485  0.15558  0.55051  1.0000
  H   H261      1.0  0.22403  0.16040  0.56701  1.0000
  H   H262      1.0  0.21529  0.15836  0.55433  1.0000
  H   H263      1.0  0.30128  0.04501  0.41690  1.0000
  H   H264      1.0  0.16876  0.09622  0.54705  1.0000
  H   H265      1.0  0.40648  0.01186  0.64936  1.0000
  C   C176      1.0  0.18056  0.09298  0.56938  1.0000
  H   H266      1.0  0.28498  0.07470  0.39007  1.0000
  S   S75       1.0  0.32486  0.00090  0.63708  1.0000
  C   C177      1.0  0.16767  0.10616  0.55070  1.0000
  N   N14       1.0  0.18015  0.10513  0.55680  1.0000
  S   S76       1.0  0.18279  0.99894  0.50147  1.0000
  H   H267      1.0  0.04761  0.23106  0.63338  1.0000
  C   C178      1.0  0.09444  0.23227  0.41356  1.0000
  N   N15       1.0  0.23725  0.05896  0.64421  1.0000
  H   H268      1.0  0.28195  0.06477  0.40831  1.0000
  H   H269      1.0  0.16842  0.12056  0.56974  1.0000
  S   S77       1.0  0.13180  0.00315  0.56263  1.0000
  H   H270      1.0  0.16686  0.11536  0.54129  1.0000
  N   N16       1.0  0.30262  0.05694  0.39515  1.0000
  N   N17       1.0  0.04679  0.10096  0.50776  1.0000
  C   C179      1.0  0.03956  0.08874  0.51476  1.0000
  C   C180      1.0  0.04043  0.10978  0.49545  1.0000
  N   N18       1.0  0.32372  0.01306  0.59411  1.0000
  C   C181      1.0  0.04461  0.10991  0.51811  1.0000
  H   H271      1.0  0.08732  0.23996  0.44169  1.0000
  H   H272      1.0  0.08417  0.20897  0.63912  1.0000
  H   H273      1.0  0.12311  0.22218  0.55693  1.0000
  C   C182      1.0  0.05720  0.20434  0.64758  1.0000
  H   H274      1.0  0.12438  0.22938  0.59126  1.0000
  H   H275      1.0  0.06773  0.08879  0.51181  1.0000
  N   N19       1.0  0.13388  0.22909  0.56909  1.0000
  H   H276      1.0  0.37366  0.00153  0.64727  1.0000
  H   H277      1.0  0.21907  0.04797  0.46909  1.0000
  H   H278      1.0  0.20891  0.17715  0.43578  1.0000
  H   H279      1.0  0.02765  0.09252  0.51885  1.0000
  H   H280      1.0  0.04421  0.08181  0.52403  1.0000
  H   H281      1.0  0.03022  0.23857  0.39173  1.0000
  C   C183      1.0  0.39567  0.00891  0.65244  1.0000
  C   C184      1.0  0.33199  0.00346  0.37068  1.0000
  C   C185      1.0  0.13516  0.22627  0.58409  1.0000
  C   C186      1.0  0.07709  0.21403  0.64807  1.0000
  H   H282      1.0  0.00974  0.22683  0.40570  1.0000
  H   H283      1.0  0.02850  0.11407  0.49892  1.0000
  H   H284      1.0  0.13955  0.21464  0.58823  1.0000
  H   H285      1.0  0.49461  0.00851  0.63203  1.0000
  C   C187      1.0  0.23452  0.05260  0.63373  1.0000
  H   H286      1.0  0.22648  0.06031  0.62770  1.0000
  H   H287      1.0  0.21038  0.00569  0.48317  1.0000
  S   S78       1.0  0.35577  0.99345  0.33311  1.0000
  H   H288      1.0  0.21532  0.07152  0.64837  1.0000
  H   H289      1.0  0.23595  0.08003  0.63035  1.0000
  S   S79       1.0  0.36663  0.00145  0.61934  1.0000
  H   H290      1.0  0.06197  0.23855  0.63403  1.0000
  H   H291      1.0  0.19114  0.02631  0.49000  1.0000
  H   H292      1.0  0.14794  0.22669  0.54859  1.0000
  H   H293      1.0  0.04547  0.20660  0.64726  1.0000
  H   H294      1.0  0.25814  0.04448  0.64496  1.0000
  C   C188      1.0  0.01966  0.24258  0.38897  1.0000
  H   H295      1.0  0.43292  0.99372  0.53409  1.0000
  H   H296      1.0  0.38582  0.99308  0.59387  1.0000
  H   H297      1.0  0.00575  0.03220  0.55261  1.0000
  H   H298      1.0  0.31401  0.99482  0.59868  1.0000
  Fe  Fe40      1.0  0.47194  0.04656  0.81072  1.0000
  S   S80       1.0  0.48701  0.04365  0.78979  1.0000
  S   S81       1.0  0.46833  0.02737  0.82845  1.0000
  Fe  Fe41      1.0  0.46612  0.07922  0.80219  1.0000
  S   S82       1.0  0.48067  0.07908  0.78029  1.0000
  S   S83       1.0  0.45273  0.09868  0.81109  1.0000
  Fe  Fe42      1.0  0.47021  0.06140  0.78021  1.0000
  S   S84       1.0  0.46349  0.06107  0.76028  1.0000
  Fe  Fe43      1.0  0.49602  0.06127  0.79187  1.0000
  H   H299      1.0  0.04076  0.22682  0.65960  1.0000
  S   S85       1.0  0.45440  0.06303  0.80120  1.0000
  S   S86       1.0  0.48225  0.06276  0.81365  1.0000
  Fe  Fe44      1.0  0.46169  0.16579  0.87141  1.0000
  S   S87       1.0  0.46015  0.14305  0.87260  1.0000
  S   S88       1.0  0.44293  0.18498  0.87464  1.0000
  S   S89       1.0  0.44006  0.99515  0.73216  1.0000
  H   H300      1.0  0.49445  0.19124  0.86600  1.0000
  C   C189      1.0  0.43009  0.09287  0.75808  1.0000
  Fe  Fe45      1.0  0.47764  0.14412  0.85222  1.0000
  S   S90       1.0  0.48424  0.13417  0.83271  1.0000
  Fe  Fe46      1.0  0.47867  0.13678  0.88391  1.0000
  C   C190      1.0  0.41595  0.10404  0.77779  1.0000
  S   S91       1.0  0.47778  0.16729  0.85015  1.0000
  S   S92       1.0  0.47882  0.15923  0.88429  1.0000
  H   H301      1.0  0.45815  0.10296  0.90596  1.0000
  S   S93       1.0  0.31668  0.99891  0.67197  1.0000
  S   S94       1.0  0.48636  0.02446  0.91032  1.0000
  C   C191      1.0  0.49024  0.02962  0.66544  1.0000
  S   S95       1.0  0.46255  0.05043  0.88252  1.0000
  H   H302      1.0  0.35179  0.00273  0.73802  1.0000
  C   C192      1.0  0.45551  0.09216  0.90844  1.0000
  H   H303      1.0  0.46796  0.20093  0.87246  1.0000
  H   H304      1.0  0.43525  0.06959  0.77911  1.0000
  H   H305      1.0  0.36019  0.99925  0.72063  1.0000
  H   H306      1.0  0.47339  0.05738  0.91795  1.0000
  H   H307      1.0  0.42017  0.09102  0.75612  1.0000
  Fe  Fe47      1.0  0.42294  0.01390  0.73897  1.0000
  S   S96       1.0  0.42340  0.02778  0.71678  1.0000
  S   S97       1.0  0.42348  0.02059  0.75889  1.0000
  H   H308      1.0  0.41456  0.10416  0.78924  1.0000
  C   C193      1.0  0.37685  0.99641  0.69305  1.0000
  H   H309      1.0  0.49968  0.09747  0.92173  1.0000
  Fe  Fe48      1.0  0.43973  0.00862  0.70998  1.0000
  S   S98       1.0  0.46002  0.01024  0.69265  1.0000
  Fe  Fe49      1.0  0.40663  0.01666  0.71557  1.0000
  S   S99       1.0  0.38646  0.02737  0.70629  1.0000
  H   H310      1.0  0.46859  0.02153  0.87857  1.0000
  S   S100      1.0  0.40452  0.00460  0.73850  1.0000
  S   S101      1.0  0.48253  0.11840  0.90263  1.0000
  H   H311      1.0  0.46256  0.08168  0.93420  1.0000
  H   H312      1.0  0.50047  0.02203  0.69709  1.0000
  C   C194      1.0  0.43278  0.20803  0.88775  1.0000
  Fe  Fe50      1.0  0.42832  0.24099  0.92375  1.0000
  H   H313      1.0  0.47001  0.23968  0.97228  1.0000
  H   H314      1.0  0.45310  0.00338  0.84584  1.0000
  H   H315      1.0  0.48737  0.04155  0.66376  1.0000
  H   H316      1.0  0.41748  0.11487  0.77133  1.0000
  C   C195      1.0  0.46576  0.99358  0.68781  1.0000
  S   S102      1.0  0.50025  0.04967  0.88542  1.0000
  H   H317      1.0  0.42455  0.07783  0.79371  1.0000
  C   C196      1.0  0.49320  0.02682  0.68937  1.0000
  H   H318      1.0  0.05892  0.19587  0.65735  1.0000
  H   H319      1.0  0.43218  0.10333  0.75108  1.0000
  Fe  Fe51      1.0  0.34018  0.99926  0.66985  1.0000
  H   H320      1.0  0.45159  0.08670  0.77195  1.0000
  H   H321      1.0  0.46127  0.06465  0.90587  1.0000
  C   C197      1.0  0.44191  0.09504  0.77538  1.0000
  H   H322      1.0  0.48364  0.09192  0.89686  1.0000
  C   C198      1.0  0.48186  0.09065  0.84802  1.0000
  C   C199      1.0  0.42592  0.07843  0.78211  1.0000
  C   C200      1.0  0.41361  0.24131  0.98303  1.0000
  H   H323      1.0  0.47594  0.08830  0.85940  1.0000
  H   H324      1.0  0.48770  0.22951  0.86797  1.0000
  H   H325      1.0  0.24321  0.03850  0.65829  1.0000
  H   H326      1.0  0.39493  0.99863  0.70010  1.0000
  H   H327      1.0  0.46313  0.00320  0.82026  1.0000
  C   C201      1.0  0.43235  0.21580  0.89779  1.0000
  C   C202      1.0  0.37834  0.01816  0.69882  1.0000
  C   C203      1.0  0.36495  0.02502  0.69488  1.0000
  C   C204      1.0  0.35739  0.01755  0.69034  1.0000
  H   H328      1.0  0.49791  0.01080  0.82713  1.0000
  H   H329      1.0  0.49455  0.08285  0.82287  1.0000
  H   H330      1.0  0.47987  0.02574  0.66966  1.0000
  H   H331      1.0  0.36016  0.03606  0.69582  1.0000
  H   H332      1.0  0.34677  0.02278  0.68800  1.0000
  H   H333      1.0  0.22495  0.06816  0.66229  1.0000
  H   H334      1.0  0.49648  0.03546  0.82836  1.0000
  H   H335      1.0  0.05349  0.21535  0.67024  1.0000
  C   C205      1.0  0.48711  0.22167  0.87845  1.0000
  C   C206      1.0  0.50205  0.08244  0.82960  1.0000
  S   S103      1.0  0.49588  0.13600  0.86385  1.0000
  H   H336      1.0  0.47506  0.20280  0.90011  1.0000
  H   H337      1.0  0.42616  0.22679  0.89706  1.0000
  H   H338      1.0  0.44577  0.09199  0.91748  1.0000
  H   H339      1.0  0.45466  0.06540  0.92442  1.0000
  H   H340      1.0  0.44118  0.09472  0.78682  1.0000
  H   H341      1.0  0.48292  0.02282  0.69419  1.0000
  H   H342      1.0  0.47473  0.09286  0.92270  1.0000
  H   H343      1.0  0.49422  0.19526  0.89512  1.0000
  N   N20       1.0  0.46802  0.08052  0.91205  1.0000
  C   C207      1.0  0.44121  0.19392  0.88829  1.0000
  H   H344      1.0  0.49043  0.07298  0.90236  1.0000
  H   H345      1.0  0.37615  0.99604  0.74370  1.0000
  C   C208      1.0  0.44032  0.20944  0.90848  1.0000
  C   C209      1.0  0.44824  0.19516  0.90934  1.0000
  C   C210      1.0  0.44872  0.18746  0.89930  1.0000
  H   H346      1.0  0.41601  0.07610  0.78065  1.0000
  H   H347      1.0  0.45422  0.19008  0.91773  1.0000
  H   H348      1.0  0.45484  0.17649  0.90015  1.0000
  H   H349      1.0  0.42684  0.21308  0.87932  1.0000
  H   H350      1.0  0.47406  0.09163  0.84136  1.0000
  N   N21       1.0  0.50028  0.02306  0.67533  1.0000
  C   C211      1.0  0.48067  0.08127  0.89979  1.0000
  C   C212      1.0  0.22333  0.06333  0.65419  1.0000
  N   N22       1.0  0.42846  0.09260  0.77334  1.0000
  S   S104      1.0  0.42317  0.99892  0.70667  1.0000
  H   H351      1.0  0.50064  0.05642  0.84710  1.0000
  H   H352      1.0  0.46112  0.21584  0.88112  1.0000
  H   H353      1.0  0.47483  0.00213  0.66569  1.0000
  C   C213      1.0  0.45298  0.04914  0.76007  1.0000
  C   C214      1.0  0.44601  0.04103  0.77271  1.0000
  C   C215      1.0  0.43708  0.03231  0.77216  1.0000
  C   C216      1.0  0.43523  0.03137  0.75899  1.0000
  C   C217      1.0  0.44239  0.03932  0.74634  1.0000
  C   C218      1.0  0.45110  0.04825  0.74690  1.0000
  H   H354      1.0  0.44737  0.04156  0.78293  1.0000
  H   H355      1.0  0.43157  0.02623  0.78199  1.0000
  H   H356      1.0  0.44102  0.03875  0.73614  1.0000
  H   H357      1.0  0.45641  0.05449  0.73706  1.0000
  C   C219      1.0  0.46143  0.10864  0.81705  1.0000
  C   C220      1.0  0.47607  0.10923  0.81113  1.0000
  C   C221      1.0  0.48266  0.11747  0.81581  1.0000
  C   C222      1.0  0.47486  0.12490  0.82669  1.0000
  C   C223      1.0  0.46026  0.12421  0.83275  1.0000
  C   C224      1.0  0.45352  0.11626  0.82779  1.0000
  H   H358      1.0  0.48222  0.10359  0.80273  1.0000
  H   H359      1.0  0.49393  0.11803  0.81103  1.0000
  H   H360      1.0  0.45412  0.12990  0.84112  1.0000
  H   H361      1.0  0.44217  0.11593  0.83237  1.0000
  C   C225      1.0  0.46413  0.03338  0.84431  1.0000
  N   N23       1.0  0.48437  0.20806  0.87757  1.0000
  C   C226      1.0  0.46586  0.02894  0.86896  1.0000
  C   C227      1.0  0.46119  0.04370  0.86860  1.0000
  C   C228      1.0  0.45715  0.05320  0.85637  1.0000
  C   C229      1.0  0.45869  0.04804  0.84420  1.0000
  S   S105      1.0  0.44192  0.21910  0.92020  1.0000
  C   C230      1.0  0.46734  0.02376  0.85681  1.0000
  H   H362      1.0  0.45342  0.06461  0.85608  1.0000
  H   H363      1.0  0.45584  0.05548  0.83465  1.0000
  C   C231      1.0  0.38449  0.00394  0.69742  1.0000
  H   H364      1.0  0.40558  0.10248  0.77651  1.0000
  H   H365      1.0  0.44412  0.10568  0.76904  1.0000
  C   C232      1.0  0.46415  0.06639  0.91521  1.0000
  H   H366      1.0  0.45235  0.09117  0.89893  1.0000
  N   N24       1.0  0.49508  0.07934  0.84500  1.0000
  H   H367      1.0  0.49758  0.21980  0.88175  1.0000
  C   C233      1.0  0.05252  0.22338  0.66004  1.0000
  C   C234      1.0  0.49095  0.06527  0.84899  1.0000
  H   H368      1.0  0.47830  0.07953  0.89020  1.0000
  H   H369      1.0  0.47043  0.21854  0.86264  1.0000
  H   H370      1.0  0.49030  0.03867  0.68840  1.0000
  C   C235      1.0  0.47181  0.08228  0.92471  1.0000
  H   H371      1.0  0.47964  0.99552  0.83715  1.0000
  H   H372      1.0  0.50300  0.02992  0.84453  1.0000
  H   H373      1.0  0.48319  0.06517  0.84275  1.0000
  H   H374      1.0  0.43942  0.08428  0.75444  1.0000
  H   H375      1.0  0.41310  0.23865  0.97345  1.0000
  Fe  Fe52      1.0  0.48333  0.03734  0.88872  1.0000
  S   S106      1.0  0.49855  0.02091  0.87699  1.0000
  H   H376      1.0  0.47150  0.01241  0.85699  1.0000
  H   H377      1.0  0.48132  0.07376  0.92766  1.0000
  C   C236      1.0  0.47037  0.21099  0.87325  1.0000
  H   H378      1.0  0.48694  0.24000  0.95919  1.0000
  C   C237      1.0  0.50021  0.11659  0.90485  1.0000
  H   H379      1.0  0.48119  0.18778  0.89158  1.0000
  H   H380      1.0  0.48462  0.10133  0.84579  1.0000
  Fe  Fe53      1.0  0.49475  0.15893  0.86330  1.0000
  H   H381      1.0  0.48547  0.06267  0.86049  1.0000
  C   C238      1.0  0.48369  0.19802  0.89171  1.0000
  H   H382      1.0  0.05589  0.23304  0.66054  1.0000
  C   C239      1.0  0.36313  0.00307  0.68982  1.0000
  H   H383      1.0  0.47823  0.22684  0.88644  1.0000
  H   H384      1.0  0.39206  0.00719  0.66430  1.0000
  H   H385      1.0  0.25025  0.05270  0.66005  1.0000
  H   H386      1.0  0.49378  0.00280  0.68194  1.0000
  H   H387      1.0  0.07912  0.20640  0.65821  1.0000
  H   H388      1.0  0.21820  0.05401  0.66001  1.0000
  H   H389      1.0  0.50038  0.07739  0.86502  1.0000
  H   H390      1.0  0.49521  0.02691  0.65475  1.0000
  H   H391      1.0  0.49713  0.20874  0.85604  1.0000
  C   C240      1.0  0.49628  0.20153  0.86687  1.0000
  S   S107      1.0  0.41171  0.24269  0.94446  1.0000
  H   H392      1.0  0.50295  0.00500  0.84415  1.0000
  Fe  Fe54      1.0  0.50338  0.00895  0.89832  1.0000
  C   C241      1.0  0.35559  0.99412  0.73182  1.0000
  S   S108      1.0  0.50358  0.04868  0.92157  1.0000
  Fe  Fe55      1.0  0.34553  0.32266  0.02594  1.0000
  S   S109      1.0  0.35718  0.31087  0.04362  1.0000
  S   S110      1.0  0.35470  0.31672  0.00455  1.0000
  Fe  Fe56      1.0  0.32490  0.34408  0.04318  1.0000
  S   S111      1.0  0.33504  0.33415  0.06219  1.0000
  S   S112      1.0  0.30535  0.36272  0.04219  1.0000
  Fe  Fe57      1.0  0.35637  0.33275  0.04618  1.0000
  S   S113      1.0  0.37661  0.33527  0.05073  1.0000
  Fe  Fe58      1.0  0.33495  0.31317  0.05797  1.0000
  S   S114      1.0  0.32817  0.29653  0.07745  1.0000
  S   S115      1.0  0.34637  0.34452  0.02737  1.0000
  S   S116      1.0  0.32312  0.32309  0.04005  1.0000
  H   H393      1.0  0.38863  0.42806  0.04491  1.0000
  C   C242      1.0  0.38336  0.44887  0.02186  1.0000
  H   H394      1.0  0.27476  0.33934  0.10285  1.0000
  H   H395      1.0  0.11532  0.43306  0.15883  1.0000
  C   C243      1.0  0.39816  0.43064  0.00900  1.0000
  H   H396      1.0  0.47468  0.24695  0.00785  1.0000
  Fe  Fe59      1.0  0.39288  0.40012  0.99572  1.0000
  H   H397      1.0  0.11898  0.46086  0.12486  1.0000
  H   H398      1.0  0.11760  0.44279  0.12651  1.0000
  H   H399      1.0  0.44035  0.36501  0.99055  1.0000
  H   H400      1.0  0.27809  0.31201  0.09177  1.0000
  C   C244      1.0  0.37528  0.42706  0.02505  1.0000
  C   C245      1.0  0.29363  0.43691  0.08382  1.0000
  C   C246      1.0  0.28719  0.31358  0.09541  1.0000
  S   S117      1.0  0.40013  0.39104  0.01646  1.0000
  H   H401      1.0  0.29853  0.33887  0.06653  1.0000
  H   H402      1.0  0.38066  0.25105  0.99085  1.0000
  C   C247      1.0  0.44784  0.27125  0.02416  1.0000
  H   H403      1.0  0.10737  0.47286  0.14536  1.0000
  H   H404      1.0  0.43182  0.31941  0.00304  1.0000
  Fe  Fe60      1.0  0.22405  0.41305  0.09034  1.0000
  S   S118      1.0  0.24656  0.41717  0.08294  1.0000
  S   S119      1.0  0.21265  0.41037  0.07499  1.0000
  Fe  Fe61      1.0  0.22295  0.41000  0.12145  1.0000
  S   S120      1.0  0.24557  0.41370  0.11700  1.0000
  S   S121      1.0  0.21002  0.40369  0.14396  1.0000
  Fe  Fe62      1.0  0.23894  0.43125  0.09883  1.0000
  S   S122      1.0  0.24768  0.45139  0.09177  1.0000
  Fe  Fe63      1.0  0.25184  0.39934  0.10140  1.0000
  S   S123      1.0  0.27409  0.38423  0.09973  1.0000
  S   S124      1.0  0.21567  0.42899  0.10450  1.0000
  S   S125      1.0  0.22985  0.39382  0.10761  1.0000
  H   H405      1.0  0.27755  0.40989  0.10548  1.0000
  C   C248      1.0  0.02869  0.38924  0.30969  1.0000
  Fe  Fe64      1.0  0.13113  0.42742  0.18313  1.0000
  S   S126      1.0  0.13656  0.42406  0.20448  1.0000
  S   S127      1.0  0.14396  0.43534  0.16104  1.0000
  Fe  Fe65      1.0  0.10051  0.42303  0.19628  1.0000
  S   S128      1.0  0.10279  0.41965  0.21863  1.0000
  S   S129      1.0  0.07988  0.42293  0.19104  1.0000
  Fe  Fe66      1.0  0.11431  0.43787  0.21020  1.0000
  S   S130      1.0  0.10877  0.45452  0.22325  1.0000
  Fe  Fe67      1.0  0.12461  0.40599  0.21128  1.0000
  S   S131      1.0  0.12967  0.38591  0.22796  1.0000
  S   S132      1.0  0.10972  0.44277  0.18847  1.0000
  S   S133      1.0  0.12142  0.40791  0.18932  1.0000
  Fe  Fe68      1.0  0.06616  0.34222  0.29982  1.0000
  S   S134      1.0  0.06597  0.32970  0.28433  1.0000
  H   H406      1.0  0.38209  0.29711  0.08560  1.0000
  C   C249      1.0  0.13875  0.47647  0.00718  1.0000
  S   S135      1.0  0.04052  0.35682  0.27320  1.0000
  H   H407      1.0  0.32714  0.37001  0.01542  1.0000
  Fe  Fe69      1.0  0.04164  0.33679  0.29054  1.0000
  S   S136      1.0  0.02539  0.32275  0.29993  1.0000
  Fe  Fe70      1.0  0.06509  0.35100  0.26851  1.0000
  S   S137      1.0  0.07674  0.35496  0.24527  1.0000
  S   S138      1.0  0.04196  0.34775  0.30709  1.0000
  S   S139      1.0  0.06726  0.36305  0.28349  1.0000
  N   N25       1.0  0.13984  0.41059  0.24881  1.0000
  H   H408      1.0  0.30030  0.32853  0.10479  1.0000
  H   H409      1.0  0.14538  0.43001  0.24907  1.0000
  C   C250      1.0  0.30316  0.41117  0.08692  1.0000
  H   H410      1.0  0.30360  0.38895  0.98929  1.0000
  C   C251      1.0  0.01053  0.33666  0.27853  1.0000
  S   S140      1.0  0.40855  0.47680  0.00213  1.0000
  H   H411      1.0  0.29671  0.30455  0.09323  1.0000
  H   H412      1.0  0.30043  0.40037  0.08974  1.0000
  S   S141      1.0  0.02731  0.38778  0.29308  1.0000
  S   S142      1.0  0.14759  0.44531  0.08000  1.0000
  H   H413      1.0  0.28385  0.31251  0.10721  1.0000
  H   H414      1.0  0.29919  0.36806  0.00961  1.0000
  H   H415      1.0  0.30635  0.33958  0.08766  1.0000
  S   S143      1.0  0.37126  0.41489  0.99353  1.0000
  H   H416      1.0  0.14936  0.40096  0.23054  1.0000
  H   H417      1.0  0.37774  0.45442  0.01287  1.0000
  C   C252      1.0  0.39640  0.33783  0.00766  1.0000
  H   H418      1.0  0.40254  0.27609  0.08290  1.0000
  H   H419      1.0  0.12781  0.42876  0.23603  1.0000
  H   H420      1.0  0.13391  0.46714  0.01153  1.0000
  H   H421      1.0  0.40749  0.43596  0.00631  1.0000
  C   C253      1.0  0.41973  0.32097  0.00686  1.0000
  H   H422      1.0  0.36926  0.43217  0.01629  1.0000
  H   H423      1.0  0.09140  0.46520  0.10664  1.0000
  S   S144      1.0  0.38203  0.24572  0.08991  1.0000
  N   N26       1.0  0.41237  0.33618  0.00240  1.0000
  C   C254      1.0  0.14589  0.48038  0.01546  1.0000
  C   C255      1.0  0.13804  0.47796  0.19767  1.0000
  H   H424      1.0  0.28049  0.35012  0.08550  1.0000
  H   H425      1.0  0.40276  0.28844  0.04412  1.0000
  H   H426      1.0  0.44551  0.29424  0.01753  1.0000
  H   H427      1.0  0.19353  0.48934  0.17448  1.0000
  H   H428      1.0  0.10742  0.48013  0.23195  1.0000
  C   C256      1.0  0.20556  0.48281  0.09171  1.0000
  H   H429      1.0  0.37547  0.30839  0.07020  1.0000
  S   S145      1.0  0.16454  0.47955  0.06104  1.0000
  C   C257      1.0  0.28064  0.42052  0.10225  1.0000
  H   H430      1.0  0.32321  0.32173  0.00944  1.0000
  C   C258      1.0  0.36675  0.25933  0.08618  1.0000
  H   H431      1.0  0.15393  0.41778  0.22868  1.0000
  H   H432      1.0  0.31030  0.41242  0.07599  1.0000
  H   H433      1.0  0.37569  0.45133  0.03189  1.0000
  H   H434      1.0  0.41196  0.27308  0.06539  1.0000
  N   N27       1.0  0.20891  0.48448  0.07601  1.0000
  C   C259      1.0  0.12359  0.49059  0.21628  1.0000
  C   C260      1.0  0.38070  0.29721  0.07488  1.0000
  C   C261      1.0  0.30961  0.36185  0.00418  1.0000
  H   H435      1.0  0.30702  0.35689  0.99673  1.0000
  H   H436      1.0  0.10570  0.47845  0.08481  1.0000
  H   H437      1.0  0.04967  0.37455  0.30901  1.0000
  H   H438      1.0  0.42961  0.34407  0.00500  1.0000
  H   H439      1.0  0.13481  0.42190  0.26570  1.0000
  C   C262      1.0  0.27811  0.33938  0.09122  1.0000
  N   N28       1.0  0.10570  0.45188  0.14478  1.0000
  C   C263      1.0  0.46384  0.28328  0.00378  1.0000
  C   C264      1.0  0.14365  0.41950  0.25629  1.0000
  H   H440      1.0  0.16223  0.40170  0.23987  1.0000
  H   H441      1.0  0.30960  0.41112  0.09452  1.0000
  C   C265      1.0  0.00966  0.32956  0.29290  1.0000
  S   S146      1.0  0.40107  0.25367  0.04810  1.0000
  C   C266      1.0  0.11569  0.37635  0.23276  1.0000
  C   C267      1.0  0.11098  0.36960  0.24708  1.0000
  C   C268      1.0  0.09924  0.36267  0.25103  1.0000
  C   C269      1.0  0.09248  0.36211  0.24062  1.0000
  C   C270      1.0  0.09762  0.36835  0.22625  1.0000
  C   C271      1.0  0.10894  0.37575  0.22238  1.0000
  H   H442      1.0  0.11621  0.36993  0.25515  1.0000
  H   H443      1.0  0.09551  0.35768  0.26212  1.0000
  H   H444      1.0  0.09264  0.36773  0.21810  1.0000
  H   H445      1.0  0.11264  0.38075  0.21129  1.0000
  C   C272      1.0  0.06841  0.43981  0.19187  1.0000
  C   C273      1.0  0.05919  0.44615  0.18231  1.0000
  C   C274      1.0  0.05053  0.46000  0.18249  1.0000
  C   C275      1.0  0.05061  0.46719  0.19268  1.0000
  C   C276      1.0  0.05956  0.46070  0.20249  1.0000
  C   C277      1.0  0.06878  0.44716  0.20183  1.0000
  H   H446      1.0  0.05903  0.44055  0.17449  1.0000
  H   H447      1.0  0.04374  0.46511  0.17478  1.0000
  H   H448      1.0  0.05968  0.46632  0.21029  1.0000
  H   H449      1.0  0.07609  0.44241  0.20907  1.0000
  H   H450      1.0  0.00880  0.35110  0.31938  1.0000
  H   H451      1.0  0.39340  0.33450  0.01954  1.0000
  C   C278      1.0  0.13015  0.46702  0.20356  1.0000
  C   C279      1.0  0.11909  0.46781  0.21592  1.0000
  C   C280      1.0  0.28160  0.42226  0.07738  1.0000
  H   H452      1.0  0.09067  0.45037  0.13335  1.0000
  H   H453      1.0  0.40719  0.30097  0.07422  1.0000
  H   H454      1.0  0.13266  0.45801  0.19854  1.0000
  H   H455      1.0  0.38445  0.28621  0.05224  1.0000
  H   H456      1.0  0.02102  0.33776  0.27156  1.0000
  C   C281      1.0  0.19206  0.41338  0.14915  1.0000
  C   C282      1.0  0.18329  0.40794  0.16225  1.0000
  C   C283      1.0  0.16858  0.41480  0.16618  1.0000
  C   C284      1.0  0.16259  0.42714  0.15698  1.0000
  C   C285      1.0  0.17141  0.43275  0.14403  1.0000
  C   C286      1.0  0.18614  0.42593  0.14015  1.0000
  H   H457      1.0  0.18784  0.39825  0.16927  1.0000
  H   H458      1.0  0.16183  0.41041  0.17619  1.0000
  H   H459      1.0  0.16684  0.44236  0.13693  1.0000
  H   H460      1.0  0.19285  0.43035  0.13017  1.0000
  C   C287      1.0  0.23999  0.46386  0.10279  1.0000
  C   C288      1.0  0.22895  0.46133  0.11502  1.0000
  C   C289      1.0  0.22254  0.47186  0.12323  1.0000
  H   H461      1.0  0.22281  0.46334  0.07677  1.0000
  H   H462      1.0  0.28363  0.44576  0.08433  1.0000
  C   C290      1.0  0.24474  0.47676  0.09893  1.0000
  H   H463      1.0  0.22528  0.45134  0.11811  1.0000
  H   H464      1.0  0.21392  0.46996  0.13261  1.0000
  Fe  Fe71      1.0  0.04284  0.36722  0.28931  1.0000
  C   C291      1.0  0.47210  0.26995  0.00102  1.0000
  C   C292      1.0  0.19501  0.42105  0.07525  1.0000
  C   C293      1.0  0.19058  0.43380  0.08025  1.0000
  C   C294      1.0  0.17608  0.44160  0.08129  1.0000
  C   C295      1.0  0.16599  0.43648  0.07757  1.0000
  C   C296      1.0  0.17047  0.42381  0.07248  1.0000
  C   C297      1.0  0.18502  0.41626  0.07108  1.0000
  H   H465      1.0  0.19834  0.43770  0.08320  1.0000
  H   H466      1.0  0.17260  0.45139  0.08525  1.0000
  H   H467      1.0  0.16270  0.41990  0.06952  1.0000
  H   H468      1.0  0.18845  0.40646  0.06711  1.0000
  H   H469      1.0  0.39205  0.33115  0.00325  1.0000
  H   H470      1.0  0.40852  0.36870  0.03977  1.0000
  C   C298      1.0  0.42103  0.25567  0.99461  1.0000
  H   H471      1.0  0.25336  0.47872  0.08955  1.0000
  H   H472      1.0  0.48686  0.34645  0.98889  1.0000
  H   H473      1.0  0.35712  0.25927  0.10843  1.0000
  C   C299      1.0  0.35609  0.26417  0.09751  1.0000
  H   H474      1.0  0.20571  0.47140  0.09740  1.0000
  H   H475      1.0  0.37286  0.29033  0.07655  1.0000
  C   C300      1.0  0.40502  0.30129  0.06376  1.0000
  C   C301      1.0  0.12635  0.41842  0.24373  1.0000
  H   H476      1.0  0.37304  0.26167  0.06332  1.0000
  C   C302      1.0  0.29701  0.36949  0.05783  1.0000
  C   C303      1.0  0.28258  0.37753  0.05953  1.0000
  C   C304      1.0  0.27548  0.38235  0.07225  1.0000
  C   C305      1.0  0.28282  0.37916  0.08331  1.0000
  C   C306      1.0  0.29735  0.37143  0.08147  1.0000
  C   C307      1.0  0.30444  0.36666  0.06875  1.0000
  H   H477      1.0  0.27677  0.37982  0.05110  1.0000
  H   H478      1.0  0.26425  0.38827  0.07357  1.0000
  H   H479      1.0  0.30311  0.36903  0.08995  1.0000
  H   H480      1.0  0.31567  0.36084  0.06740  1.0000
  C   C308      1.0  0.38241  0.35125  0.04153  1.0000
  C   C309      1.0  0.39417  0.35412  0.04480  1.0000
  C   C310      1.0  0.39942  0.36651  0.03721  1.0000
  C   C311      1.0  0.39307  0.37593  0.02618  1.0000
  C   C312      1.0  0.38133  0.37309  0.02287  1.0000
  C   C313      1.0  0.37591  0.36081  0.03065  1.0000
  C   C314      1.0  0.32268  0.37808  0.00661  1.0000
  C   C315      1.0  0.40109  0.27711  0.07197  1.0000
  H   H481      1.0  0.37630  0.38043  0.01443  1.0000
  H   H482      1.0  0.36682  0.35873  0.02810  1.0000
  H   H483      1.0  0.11705  0.42103  0.25270  1.0000
  H   H484      1.0  0.29979  0.43769  0.09131  1.0000
  H   H485      1.0  0.27143  0.43085  0.07759  1.0000
  C   C316      1.0  0.41523  0.24778  0.00802  1.0000
  C   C317      1.0  0.10518  0.43770  0.15464  1.0000
  H   H486      1.0  0.14741  0.39061  0.26280  1.0000
  C   C318      1.0  0.13746  0.39684  0.25875  1.0000
  H   H487      1.0  0.27844  0.41173  0.07996  1.0000
  H   H488      1.0  0.08227  0.45856  0.14839  1.0000
  C   C319      1.0  0.00916  0.46876  0.12949  1.0000
  C   C320      1.0  0.45616  0.25793  0.02145  1.0000
  C   C321      1.0  0.46828  0.25727  0.00989  1.0000
  H   H489      1.0  0.19937  0.48188  0.06014  1.0000
  H   H490      1.0  0.09193  0.46836  0.13223  1.0000
  H   H491      1.0  0.45343  0.24812  0.02837  1.0000
  H   H492      1.0  0.31301  0.32046  0.09081  1.0000
  C   C322      1.0  0.34410  0.27539  0.09478  1.0000
  C   C323      1.0  0.34285  0.28201  0.08069  1.0000
  C   C324      1.0  0.35340  0.27708  0.06934  1.0000
  C   C325      1.0  0.36524  0.26566  0.07210  1.0000
  H   H493      1.0  0.33593  0.27910  0.10360  1.0000
  H   H494      1.0  0.35223  0.28181  0.05845  1.0000
  H   H495      1.0  0.26856  0.33849  0.08781  1.0000
  C   C326      1.0  0.22301  0.47480  0.07147  1.0000
  N   N29       1.0  0.28978  0.42272  0.08759  1.0000
  H   H496      1.0  0.31237  0.38476  0.01166  1.0000
  C   C327      1.0  0.15188  0.40765  0.23645  1.0000
  C   C328      1.0  0.11832  0.45036  0.13256  1.0000
  C   C329      1.0  0.45178  0.28392  0.01537  1.0000
  H   H497      1.0  0.39240  0.43470  0.00003  1.0000
  H   H498      1.0  0.13462  0.38986  0.25338  1.0000
  C   C330      1.0  0.23835  0.48724  0.10712  1.0000
  Fe  Fe72      1.0  0.42453  0.25178  0.04767  1.0000
  H   H499      1.0  0.11740  0.45815  0.15649  1.0000
  C   C331      1.0  0.13774  0.48460  0.99339  1.0000
  C   C332      1.0  0.07274  0.48292  0.10820  1.0000
  C   C333      1.0  0.37670  0.26187  0.99348  1.0000
  H   H500      1.0  0.14663  0.47729  0.18814  1.0000
  H   H501      1.0  0.36753  0.42866  0.03531  1.0000
  H   H502      1.0  0.28611  0.32790  0.06818  1.0000
  H   H503      1.0  0.14676  0.47391  0.02599  1.0000
  H   H504      1.0  0.00935  0.47856  0.12070  1.0000
  H   H505      1.0  0.42612  0.26428  0.99396  1.0000
  N   N30       1.0  0.32017  0.37109  0.99650  1.0000
  C   C334      1.0  0.30317  0.32913  0.09306  1.0000
  H   H506      1.0  0.40057  0.31272  0.05901  1.0000
  H   H507      1.0  0.41570  0.29771  0.05660  1.0000
  H   H508      1.0  0.03412  0.29164  0.31969  1.0000
  H   H509      1.0  0.31397  0.35297  0.01261  1.0000
  H   H510      1.0  0.39058  0.34923  0.00458  1.0000
  C   C335      1.0  0.39243  0.29271  0.05132  1.0000
  H   H511      1.0  0.38003  0.48642  0.99531  1.0000
  C   C336      1.0  0.22711  0.48492  0.11918  1.0000
  H   H512      1.0  0.09782  0.46329  0.16180  1.0000
  N   N31       1.0  0.06145  0.40141  0.23474  1.0000
  C   C337      1.0  0.06026  0.41709  0.22944  1.0000
  C   C338      1.0  0.07141  0.39579  0.24474  1.0000
  C   C339      1.0  0.06724  0.39432  0.22246  1.0000
  C   C340      1.0  0.04691  0.39845  0.24229  1.0000
  H   H513      1.0  0.05575  0.42292  0.23831  1.0000
  H   H514      1.0  0.05313  0.42167  0.22156  1.0000
  H   H515      1.0  0.07113  0.41953  0.22385  1.0000
  H   H516      1.0  0.06792  0.40158  0.25361  1.0000
  H   H517      1.0  0.07168  0.38422  0.24975  1.0000
  H   H518      1.0  0.08281  0.39672  0.23919  1.0000
  H   H519      1.0  0.06028  0.39868  0.21444  1.0000
  H   H520      1.0  0.06789  0.38251  0.22597  1.0000
  H   H521      1.0  0.07840  0.39599  0.21674  1.0000
  H   H522      1.0  0.04754  0.38664  0.24620  1.0000
  H   H523      1.0  0.03907  0.40269  0.23511  1.0000
  H   H524      1.0  0.04234  0.40340  0.25179  1.0000
  N   N32       1.0  0.17674  0.40000  0.11895  1.0000
  C   C341      1.0  0.16677  0.40418  0.13201  1.0000
  C   C342      1.0  0.18356  0.38449  0.12227  1.0000
  C   C343      1.0  0.18827  0.40835  0.11375  1.0000
  C   C344      1.0  0.16845  0.40297  0.10775  1.0000
  H   H525      1.0  0.16175  0.41592  0.12998  1.0000
  H   H526      1.0  0.17265  0.40182  0.14074  1.0000
  H   H527      1.0  0.15777  0.39828  0.13612  1.0000
  H   H528      1.0  0.17522  0.37779  0.12623  1.0000
  H   H529      1.0  0.19123  0.38104  0.11262  1.0000
  H   H530      1.0  0.18997  0.38198  0.13065  1.0000
  H   H531      1.0  0.19591  0.40550  0.10387  1.0000
  H   H532      1.0  0.19491  0.40617  0.12182  1.0000
  H   H533      1.0  0.18361  0.42013  0.11125  1.0000
  H   H534      1.0  0.17564  0.39970  0.09785  1.0000
  H   H535      1.0  0.16351  0.41467  0.10472  1.0000
  H   H536      1.0  0.15947  0.39707  0.11133  1.0000
  H   H537      1.0  0.39396  0.26979  0.07287  1.0000
  C   C345      1.0  0.41754  0.34535  0.00847  1.0000
  C   C346      1.0  0.10714  0.46200  0.15246  1.0000
  H   H538      1.0  0.01444  0.38069  0.27210  1.0000
  N   N33       1.0  0.38814  0.43321  0.02262  1.0000
  H   H539      1.0  0.12836  0.39862  0.26814  1.0000
  H   H540      1.0  0.38817  0.30397  0.04594  1.0000
  H   H541      1.0  0.37855  0.41529  0.02541  1.0000
  H   H542      1.0  0.28818  0.42382  0.06621  1.0000
  H   H543      1.0  0.08443  0.47316  0.20555  1.0000
  H   H544      1.0  0.12306  0.41192  0.23822  1.0000
  C   C347      1.0  0.09209  0.45752  0.13947  1.0000
  S   S147      1.0  0.43254  0.27236  0.03847  1.0000
  C   C348      1.0  0.39580  0.42626  0.03445  1.0000
  H   H545      1.0  0.15384  0.41398  0.26020  1.0000
  C   C349      1.0  0.29520  0.32858  0.07244  1.0000
  H   H546      1.0  0.41254  0.35697  0.00503  1.0000
  Fe  Fe73      1.0  0.05540  0.49091  0.13860  1.0000
  H   H547      1.0  0.30044  0.43903  0.07278  1.0000
  H   H548      1.0  0.28641  0.42087  0.11024  1.0000
  H   H549      1.0  0.08905  0.48326  0.21530  1.0000
  N   N34       1.0  0.29090  0.32768  0.08804  1.0000
  H   H550      1.0  0.41739  0.31727  0.01873  1.0000
  H   H551      1.0  0.27037  0.42896  0.10313  1.0000
  S   S148      1.0  0.06364  0.47455  0.12496  1.0000
  H   H552      1.0  0.23206  0.47742  0.07430  1.0000
  N   N35       1.0  0.39480  0.29210  0.06549  1.0000
  H   H553      1.0  0.10394  0.42984  0.14924  1.0000
  H   H554      1.0  0.30457  0.31967  0.06972  1.0000
  Fe  Fe74      1.0  0.14550  0.46895  0.07093  1.0000
  S   S149      1.0  0.13332  0.48032  0.05352  1.0000
  C   C350      1.0  0.31820  0.33057  0.98855  1.0000
  C   C351      1.0  0.11589  0.47954  0.22232  1.0000
  H   H555      1.0  0.39279  0.45388  0.02003  1.0000
  H   H556      1.0  0.46682  0.29311  0.99709  1.0000
  C   C352      1.0  0.34266  0.32368  0.99294  1.0000
  H   H557      1.0  0.40286  0.41901  0.00945  1.0000
  C   C353      1.0  0.09483  0.48365  0.08953  1.0000
  H   H558      1.0  0.41477  0.34258  0.02037  1.0000
  C   C354      1.0  0.32760  0.32512  0.99812  1.0000
  H   H559      1.0  0.12880  0.44618  0.13623  1.0000
  C   C355      1.0  0.33408  0.36222  0.99018  1.0000
  H   H560      1.0  0.39922  0.34676  0.05322  1.0000
  H   H561      1.0  0.30657  0.33141  0.99253  1.0000
  H   H562      1.0  0.39949  0.41440  0.03526  1.0000
  H   H563      1.0  0.33855  0.35321  0.99842  1.0000
  H   H564      1.0  0.09581  0.43849  0.16401  1.0000
  C   C356      1.0  0.19723  0.48078  0.07192  1.0000
  H   H565      1.0  0.40565  0.43059  0.03277  1.0000
  S   S150      1.0  0.13348  0.48448  0.08490  1.0000
  C   C357      1.0  0.08670  0.47612  0.10185  1.0000
  H   H566      1.0  0.41585  0.25038  0.01761  1.0000
  H   H567      1.0  0.41614  0.31371  0.00246  1.0000
  C   C358      1.0  0.15202  0.49251  0.01002  1.0000
  H   H568      1.0  0.36709  0.26133  0.00262  1.0000
  H   H569      1.0  0.18646  0.48797  0.07511  1.0000
  C   C359      1.0  0.00444  0.38020  0.26917  1.0000
  H   H570      1.0  0.22581  0.47565  0.05971  1.0000
  H   H571      1.0  0.01820  0.46010  0.12563  1.0000
  H   H572      1.0  0.19459  0.48929  0.09560  1.0000
  Fe  Fe75      1.0  0.15133  0.49233  0.04455  1.0000
  H   H573      1.0  0.21361  0.48643  0.09509  1.0000
  H   H574      1.0  0.09567  0.49005  0.03254  1.0000
  H   H575      1.0  0.33057  0.38517  0.00119  1.0000
  H   H576      1.0  0.05598  0.30206  0.30950  1.0000
  H   H577      1.0  0.00587  0.36909  0.26780  1.0000
  H   H578      1.0  0.19815  0.48997  0.15560  1.0000
  H   H579      1.0  0.35729  0.28722  0.99378  1.0000
  H   H580      1.0  0.01170  0.47113  0.13867  1.0000
  H   H581      1.0  0.19614  0.46952  0.07716  1.0000
  H   H582      1.0  0.38549  0.26386  0.99729  1.0000
  C   C360      1.0  0.01735  0.39774  0.31783  1.0000
  S   S151      1.0  0.06686  0.48896  0.15572  1.0000
  H   H583      1.0  0.10163  0.48098  0.18377  1.0000
  H   H584      1.0  0.07044  0.48602  0.21424  1.0000
  C   C361      1.0  0.38616  0.47758  0.99024  1.0000
  C   C362      1.0  0.13468  0.48981  0.20395  1.0000
  C   C363      1.0  0.08194  0.48396  0.20809  1.0000
  C   C364      1.0  0.04079  0.38102  0.31528  1.0000
  C   C365      1.0  0.40064  0.47140  0.99131  1.0000
  H   H585      1.0  0.11506  0.48717  0.03011  1.0000
  S   S152      1.0  0.04071  0.48486  0.19216  1.0000
  S   S153      1.0  0.08061  0.33135  0.31546  1.0000
  H   H586      1.0  0.00797  0.40413  0.31354  1.0000
  H   H587      1.0  0.00383  0.38768  0.25861  1.0000
  H   H588      1.0  0.10753  0.49103  0.19267  1.0000
  H   H589      1.0  0.07483  0.48612  0.18361  1.0000
  H   H590      1.0  0.37544  0.29020  0.98899  1.0000
  C   C366      1.0  0.09936  0.49160  0.18658  1.0000
  H   H591      1.0  0.16768  0.49214  0.17389  1.0000
  H   H592      1.0  0.04825  0.31531  0.32012  1.0000
  C   C367      1.0  0.05493  0.30421  0.32015  1.0000
  S   S154      1.0  0.03096  0.38859  0.35477  1.0000
  H   H593      1.0  0.05900  0.34300  0.37312  1.0000
  C   C368      1.0  0.04732  0.34369  0.40071  1.0000
  Fe  Fe76      1.0  0.01005  0.36708  0.56200  1.0000
  S   S155      1.0  0.02293  0.34471  0.56050  1.0000
  S   S156      1.0  0.02379  0.38338  0.55710  1.0000
  H   H594      1.0  0.01059  0.43243  0.38248  1.0000
  S   S157      1.0  0.03663  0.25992  0.65033  1.0000
  C   C369      1.0  0.07184  0.32660  0.33353  1.0000
  S   S158      1.0  0.01123  0.32059  0.60002  1.0000
  H   H595      1.0  0.04983  0.33270  0.39859  1.0000
  Fe  Fe77      1.0  0.02785  0.41350  0.61704  1.0000
  S   S159      1.0  0.02418  0.42974  0.63011  1.0000
  H   H596      1.0  0.05357  0.36195  0.36596  1.0000
  Fe  Fe78      1.0  0.04799  0.42950  0.62110  1.0000
  S   S160      1.0  0.05706  0.44938  0.61076  1.0000
  S   S161      1.0  0.05112  0.41464  0.60651  1.0000
  S   S162      1.0  0.03404  0.39438  0.63412  1.0000
  S   S163      1.0  0.07709  0.30348  0.60430  1.0000
  C   C370      1.0  0.07142  0.47832  0.62147  1.0000
  C   C371      1.0  0.06946  0.46925  0.61397  1.0000
  C   C372      1.0  0.06166  0.45845  0.62109  1.0000
  H   H597      1.0  0.07740  0.48666  0.61584  1.0000
  H   H598      1.0  0.07368  0.47085  0.60252  1.0000
  C   C373      1.0  0.01906  0.39333  0.57036  1.0000
  H   H599      1.0  0.00736  0.32511  0.49191  1.0000
  N   N36       1.0  0.00431  0.29285  0.56914  1.0000
  C   C374      1.0  0.00654  0.44281  0.38527  1.0000
  C   C375      1.0  0.02610  0.40668  0.58343  1.0000
  C   C376      1.0  0.02918  0.40012  0.57182  1.0000
  C   C377      1.0  0.05612  0.35381  0.37570  1.0000
  H   H600      1.0  0.04698  0.26355  0.61948  1.0000
  H   H601      1.0  0.03395  0.41179  0.58470  1.0000
  H   H602      1.0  0.03951  0.40004  0.56417  1.0000
  C   C378      1.0  0.02966  0.31578  0.60059  1.0000
  C   C379      1.0  0.03486  0.30283  0.60947  1.0000
  C   C380      1.0  0.04955  0.29886  0.61017  1.0000
  C   C381      1.0  0.05906  0.30793  0.60222  1.0000
  C   C382      1.0  0.05392  0.32080  0.59311  1.0000
  C   C383      1.0  0.03917  0.32477  0.59235  1.0000
  H   H603      1.0  0.02757  0.29576  0.61571  1.0000
  H   H604      1.0  0.05346  0.28870  0.61682  1.0000
  H   H605      1.0  0.06134  0.32767  0.58677  1.0000
  H   H606      1.0  0.03514  0.33482  0.58552  1.0000
  S   S164      1.0  0.01083  0.33328  0.53153  1.0000
  H   H607      1.0  0.04988  0.37125  0.39402  1.0000
  C   C384      1.0  0.02572  0.29508  0.44928  1.0000
  S   S165      1.0  0.02366  0.47578  0.38479  1.0000
  H   H608      1.0  0.00914  0.40409  0.33808  1.0000
  H   H609      1.0  0.03761  0.37797  0.38211  1.0000
  C   C385      1.0  0.01393  0.25845  0.64015  1.0000
  H   H610      1.0  0.02615  0.29632  0.56107  1.0000
  H   H611      1.0  0.03538  0.33624  0.47860  1.0000
  H   H612      1.0  0.05702  0.34492  0.40359  1.0000
  H   H613      1.0  0.02802  0.44690  0.38147  1.0000
  H   H614      1.0  0.15290  0.32870  0.65117  1.0000
  H   H615      1.0  0.05383  0.36554  0.64939  1.0000
  H   H616      1.0  0.04107  0.33690  0.35793  1.0000
  C   C386      1.0  0.05153  0.33061  0.35363  1.0000
  S   S166      1.0  0.07420  0.37685  0.62558  1.0000
  H   H617      1.0  0.00803  0.26185  0.46227  1.0000
  H   H618      1.0  0.05661  0.25062  0.43583  1.0000
  H   H619      1.0  0.05028  0.44801  0.64147  1.0000
  C   C387      1.0  0.01632  0.29277  0.46276  1.0000
  H   H620      1.0  0.04141  0.28941  0.35485  1.0000
  C   C388      1.0  0.06911  0.24391  0.46607  1.0000
  C   C389      1.0  0.04153  0.38115  0.32903  1.0000
  S   S167      1.0  0.05531  0.41208  0.63919  1.0000
  H   H621      1.0  0.03804  0.34419  0.41020  1.0000
  Fe  Fe79      1.0  0.05688  0.39725  0.62524  1.0000
  H   H622      1.0  0.04922  0.35352  0.58225  1.0000
  S   S168      1.0  0.03219  0.26258  0.36748  1.0000
  H   H623      1.0  0.03462  0.37006  0.61400  1.0000
  Fe  Fe80      1.0  0.00731  0.33816  0.58102  1.0000
  S   S169      1.0  0.05996  0.27598  0.40857  1.0000
  H   H624      1.0  0.00543  0.35433  0.45916  1.0000
  C   C390      1.0  0.01502  0.30088  0.55892  1.0000
  N   N37       1.0  0.04367  0.35489  0.38813  1.0000
  C   C391      1.0  0.05837  0.46541  0.64347  1.0000
  H   H625      1.0  0.04631  0.24692  0.45391  1.0000
  Fe  Fe81      1.0  0.04022  0.26691  0.41293  1.0000
  C   C392      1.0  0.07203  0.31059  0.35697  1.0000
  C   C393      1.0  0.01795  0.39764  0.33175  1.0000
  S   S170      1.0  0.01139  0.30533  0.47346  1.0000
  H   H626      1.0  0.07201  0.35011  0.59926  1.0000
  H   H627      1.0  0.05599  0.34275  0.60621  1.0000
  H   H628      1.0  0.01766  0.34707  0.34753  1.0000
  C   C394      1.0  0.04040  0.36927  0.39138  1.0000
  N   N38       1.0  0.04820  0.29353  0.33190  1.0000
  C   C395      1.0  0.00406  0.25908  0.37368  1.0000
  H   H629      1.0  0.08603  0.39875  0.62939  1.0000
  S   S171      1.0  0.05115  0.24906  0.40141  1.0000
  C   C396      1.0  0.02218  0.27348  0.44507  1.0000
  H   H630      1.0  0.01248  0.36574  0.34846  1.0000
  C   C397      1.0  0.08426  0.37664  0.63772  1.0000
  S   S172      1.0  0.09580  0.27674  0.63575  1.0000
  H   H631      1.0  0.04770  0.37233  0.57488  1.0000
  H   H632      1.0  0.02806  0.36071  0.37498  1.0000
  C   C398      1.0  0.07879  0.31469  0.34252  1.0000
  H   H633      1.0  0.05299  0.34404  0.33234  1.0000
  H   H634      1.0  0.00786  0.25730  0.65115  1.0000
  H   H635      1.0  0.01942  0.27233  0.57124  1.0000
  H   H636      1.0  0.13442  0.25142  0.56496  1.0000
  H   H637      1.0  0.02984  0.37710  0.59696  1.0000
  H   H638      1.0  0.06966  0.37633  0.58987  1.0000
  H   H639      1.0  0.01450  0.28915  0.58680  1.0000
  H   H640      1.0  0.05963  0.35425  0.61534  1.0000
  H   H641      1.0  0.03122  0.34474  0.46130  1.0000
  C   C399      1.0  0.02954  0.26110  0.61178  1.0000
  H   H642      1.0  0.07619  0.24840  0.46987  1.0000
  S   S173      1.0  0.00826  0.40234  0.38872  1.0000
  H   H643      1.0  0.03042  0.30449  0.44558  1.0000
  H   H644      1.0  0.05223  0.38776  0.58789  1.0000
  C   C400      1.0  0.03639  0.36775  0.60328  1.0000
  H   H645      1.0  0.08838  0.25678  0.44405  1.0000
  H   H646      1.0  0.05092  0.37473  0.33329  1.0000
  C   C401      1.0  0.06024  0.35253  0.60461  1.0000
  H   H647      1.0  0.00908  0.47070  0.34398  1.0000
  S   S174      1.0  0.04995  0.31365  0.38068  1.0000
  H   H648      1.0  0.08942  0.30859  0.33828  1.0000
  H   H649      1.0  0.06533  0.36083  0.57592  1.0000
  H   H650      1.0  0.06602  0.35557  0.37775  1.0000
  C   C402      1.0  0.05818  0.33457  0.33910  1.0000
  C   C403      1.0  0.01277  0.40668  0.59336  1.0000
  C   C404      1.0  0.02422  0.48202  0.61865  1.0000
  C   C405      1.0  0.05745  0.27897  0.33158  1.0000
  H   H651      1.0  0.02825  0.28592  0.33878  1.0000
  H   H652      1.0  0.03565  0.26208  0.60081  1.0000
  C   C406      1.0  0.05638  0.45629  0.63593  1.0000
  C   C407      1.0  0.02846  0.28552  0.44031  1.0000
  N   N39       1.0  0.06697  0.25200  0.45165  1.0000
  H   H653      1.0  0.01216  0.31234  0.55962  1.0000
  H   H654      1.0  0.12649  0.24704  0.55293  1.0000
  C   C408      1.0  0.00555  0.39384  0.57999  1.0000
  C   C409      1.0  0.03076  0.35277  0.38475  1.0000
  H   H655      1.0  0.05837  0.27352  0.44118  1.0000
  Fe  Fe82      1.0  0.05272  0.28959  0.38857  1.0000
  H   H656      1.0  0.01541  0.33397  0.50017  1.0000
  H   H657      1.0  0.07750  0.30139  0.36384  1.0000
  C   C410      1.0  0.03600  0.26191  0.62237  1.0000
  C   C411      1.0  0.05776  0.37802  0.59471  1.0000
  H   H658      1.0  0.03533  0.28754  0.42972  1.0000
  S   S175      1.0  0.02572  0.26111  0.43441  1.0000
  S   S176      1.0  0.03185  0.28212  0.39438  1.0000
  H   H659      1.0  0.05851  0.24415  0.47401  1.0000
  C   C412      1.0  0.05755  0.24559  0.44710  1.0000
  H   H660      1.0  0.01510  0.48032  0.62812  1.0000
  H   H661      1.0  0.06859  0.27824  0.33290  1.0000
  Fe  Fe83      1.0  0.07055  0.25903  0.39568  1.0000
  H   H662      1.0  0.05612  0.38055  0.60532  1.0000
  Fe  Fe84      1.0  0.07817  0.28504  0.62331  1.0000
  H   H663      1.0  0.04864  0.49184  0.60417  1.0000
  S   S177      1.0  0.00889  0.41386  0.60845  1.0000
  H   H664      1.0  0.08475  0.35440  0.64812  1.0000
  C   C413      1.0  0.05839  0.31853  0.36255  1.0000
  Fe  Fe85      1.0  0.05876  0.26545  0.64357  1.0000
  H   H665      1.0  0.00458  0.33769  0.33526  1.0000
  H   H666      1.0  0.03094  0.37052  0.40060  1.0000
  H   H667      1.0  0.03176  0.35827  0.60463  1.0000
  Fe  Fe86      1.0  0.04447  0.26510  0.38226  1.0000
  H   H668      1.0  0.03424  0.47438  0.62144  1.0000
  C   C414      1.0  0.12753  0.24452  0.56424  1.0000
  H   H669      1.0  0.03266  0.34184  0.38276  1.0000
  H   H670      1.0  0.00425  0.40750  0.64833  1.0000
  C   C415      1.0  0.05368  0.36287  0.58167  1.0000
  H   H671      1.0  0.05270  0.27068  0.34038  1.0000
  S   S178      1.0  0.06030  0.28770  0.64257  1.0000
  C   C416      1.0  0.01304  0.35917  0.48101  1.0000
  C   C417      1.0  0.06559  0.47667  0.63616  1.0000
  S   S179      1.0  0.06503  0.27350  0.37508  1.0000
  N   N40       1.0  0.05202  0.36529  0.59606  1.0000
  C   C418      1.0  0.08812  0.38921  0.63769  1.0000
  H   H672      1.0  0.01667  0.36645  0.47061  1.0000
  C   C419      1.0  0.02729  0.33810  0.47199  1.0000
  C   C420      1.0  0.14196  0.32667  0.65231  1.0000
  C   C421      1.0  0.09471  0.38951  0.64837  1.0000
  H   H673      1.0  0.02103  0.35400  0.39372  1.0000
  H   H674      1.0  0.02206  0.47880  0.60974  1.0000
  C   C422      1.0  0.03006  0.38933  0.33733  1.0000
  C   C423      1.0  0.02829  0.26036  0.63663  1.0000
  H   H675      1.0  0.00795  0.27044  0.41479  1.0000
  C   C424      1.0  0.01772  0.25412  0.37731  1.0000
  H   H676      1.0  0.09759  0.39931  0.64831  1.0000
  C   C425      1.0  0.01297  0.27111  0.45861  1.0000
  C   C426      1.0  0.00990  0.28085  0.46737  1.0000
  H   H677      1.0  0.00829  0.31190  0.51868  1.0000
  H   H678      1.0  0.06659  0.27237  0.45556  1.0000
  H   H679      1.0  0.02728  0.32742  0.47038  1.0000
  C   C427      1.0  0.00782  0.33584  0.49302  1.0000
  S   S180      1.0  0.00769  0.25745  0.60190  1.0000
  N   N41       1.0  0.01259  0.34511  0.47896  1.0000
  H   H680      1.0  0.11646  0.24776  0.57093  1.0000
  H   H681      1.0  0.01558  0.30074  0.54766  1.0000
  C   C428      1.0  0.01640  0.45107  0.38458  1.0000
  C   C429      1.0  0.05129  0.35468  0.65237  1.0000
  C   C430      1.0  0.08747  0.36421  0.64819  1.0000
  H   H682      1.0  0.02625  0.30478  0.33041  1.0000
  S   S181      1.0  0.06601  0.48946  0.64511  1.0000
  H   H683      1.0  0.04896  0.26819  0.45937  1.0000
  Fe  Fe87      1.0  0.00928  0.39544  0.36889  1.0000
  S   S182      1.0  0.07535  0.26343  0.62315  1.0000
  C   C431      1.0  0.01524  0.25903  0.61532  1.0000
  Fe  Fe88      1.0  0.03183  0.41065  0.64659  1.0000
  C   C432      1.0  0.03356  0.29397  0.33015  1.0000
  Fe  Fe89      1.0  0.09155  0.25498  0.63713  1.0000
  H   H684      1.0  0.01011  0.27660  0.55685  1.0000
  C   C433      1.0  0.05993  0.26720  0.45198  1.0000
  H   H685      1.0  0.00751  0.32642  0.62895  1.0000
  H   H686      1.0  0.06139  0.34708  0.64829  1.0000
  H   H687      1.0  0.05778  0.29610  0.34764  1.0000
  C   C434      1.0  0.00737  0.25789  0.62951  1.0000
  Fe  Fe90      1.0  0.00592  0.34444  0.54961  1.0000
  H   H688      1.0  0.02068  0.35787  0.48795  1.0000
  C   C435      1.0  0.00886  0.27763  0.56796  1.0000
  H   H689      1.0  0.04046  0.30806  0.34623  1.0000
  H   H690      1.0  0.13798  0.33293  0.64246  1.0000
  H   H691      1.0  0.08014  0.25628  0.43023  1.0000
  C   C436      1.0  0.01335  0.35812  0.34175  1.0000
  H   H692      1.0  0.06601  0.30418  0.32111  1.0000
  C   C437      1.0  0.01126  0.46495  0.38728  1.0000
  C   C438      1.0  0.04687  0.29695  0.34576  1.0000
  S   S183      1.0  0.09311  0.24650  0.39836  1.0000
  H   H693      1.0  0.02167  0.36075  0.33177  1.0000
  C   C439      1.0  0.08129  0.25127  0.44147  1.0000
  H   H694      1.0  0.04287  0.35528  0.64657  1.0000
  H   H695      1.0  0.00484  0.48038  0.35790  1.0000
  H   H696      1.0  0.05864  0.27599  0.32129  1.0000
  H   H697      1.0  0.14340  0.31504  0.65268  1.0000
  S   S184      1.0  0.41006  0.27742  0.93467  1.0000
  S   S185      1.0  0.41501  0.25922  0.91013  1.0000
  S   S186      1.0  0.43494  0.29235  0.90066  1.0000
  H   H698      1.0  0.00825  0.27809  0.69430  1.0000
  S   S187      1.0  0.37508  0.26850  0.93813  1.0000
  Fe  Fe91      1.0  0.32228  0.34959  0.93888  1.0000
  S   S188      1.0  0.34570  0.34079  0.92954  1.0000
  Fe  Fe92      1.0  0.31771  0.37102  0.91106  1.0000
  S   S189      1.0  0.34109  0.36424  0.89985  1.0000
  S   S190      1.0  0.30355  0.38919  0.89815  1.0000
  Fe  Fe93      1.0  0.33786  0.34189  0.91027  1.0000
  S   S191      1.0  0.34759  0.32478  0.89753  1.0000
  Fe  Fe94      1.0  0.34670  0.36386  0.92023  1.0000
  S   S192      1.0  0.36657  0.36974  0.92221  1.0000
  S   S193      1.0  0.31412  0.34855  0.92026  1.0000
  S   S194      1.0  0.32363  0.37275  0.93063  1.0000
  C   C440      1.0  0.03243  0.29983  0.67915  1.0000
  S   S195      1.0  0.47742  0.31495  0.92271  1.0000
  H   H699      1.0  0.17749  0.39702  0.89741  1.0000
  C   C441      1.0  0.04423  0.41592  0.68094  1.0000
  Fe  Fe95      1.0  0.39944  0.26192  0.93119  1.0000
  H   H700      1.0  0.13175  0.34081  0.81344  1.0000
  H   H701      1.0  0.14068  0.34876  0.66374  1.0000
  S   S196      1.0  0.38259  0.41570  0.95898  1.0000
  C   C442      1.0  0.31883  0.35512  0.87973  1.0000
  H   H702      1.0  0.13472  0.47933  0.91080  1.0000
  C   C443      1.0  0.12252  0.35014  0.81156  1.0000
  Fe  Fe96      1.0  0.09755  0.36348  0.69424  1.0000
  S   S197      1.0  0.08309  0.37222  0.71301  1.0000
  S   S198      1.0  0.10456  0.37820  0.67315  1.0000
  Fe  Fe97      1.0  0.09778  0.33268  0.70958  1.0000
  S   S199      1.0  0.08320  0.33858  0.72998  1.0000
  S   S200      1.0  0.10739  0.31100  0.70361  1.0000
  Fe  Fe98      1.0  0.07035  0.35577  0.71541  1.0000
  S   S201      1.0  0.04604  0.36313  0.71728  1.0000
  Fe  Fe99      1.0  0.09704  0.35477  0.72634  1.0000
  S   S202      1.0  0.10026  0.36078  0.74564  1.0000
  S   S203      1.0  0.08366  0.34857  0.69554  1.0000
  S   S204      1.0  0.11279  0.34729  0.70711  1.0000
  Fe  Fe100     1.0  0.14556  0.39418  0.77639  1.0000
  S   S205      1.0  0.14532  0.37979  0.79817  1.0000
  S   S206      1.0  0.14878  0.38560  0.75652  1.0000
  Fe  Fe101     1.0  0.13940  0.42106  0.78814  1.0000
  S   S207      1.0  0.13751  0.40890  0.81103  1.0000
  S   S208      1.0  0.13593  0.44524  0.78189  1.0000
  Fe  Fe102     1.0  0.15764  0.39386  0.80208  1.0000
  S   S209      1.0  0.17568  0.38427  0.81428  1.0000
  Fe  Fe103     1.0  0.12535  0.39600  0.80528  1.0000
  S   S210      1.0  0.10600  0.38663  0.81802  1.0000
  S   S211      1.0  0.16022  0.40669  0.77935  1.0000
  S   S212      1.0  0.12496  0.40975  0.78331  1.0000
  S   S213      1.0  0.17698  0.47088  0.80263  1.0000
  Fe  Fe104     1.0  0.23118  0.40080  0.87761  1.0000
  S   S214      1.0  0.20781  0.39973  0.88006  1.0000
  S   S215      1.0  0.24823  0.38059  0.88292  1.0000
  Fe  Fe105     1.0  0.22495  0.43317  0.87042  1.0000
  S   S216      1.0  0.20137  0.43496  0.87200  1.0000
  S   S217      1.0  0.23407  0.45317  0.86423  1.0000
  Fe  Fe106     1.0  0.20245  0.41750  0.89163  1.0000
  S   S218      1.0  0.18325  0.41982  0.91005  1.0000
  Fe  Fe107     1.0  0.20808  0.41723  0.86012  1.0000
  S   S219      1.0  0.19249  0.42343  0.84521  1.0000
  S   S220      1.0  0.22560  0.41703  0.89118  1.0000
  S   S221      1.0  0.23202  0.41701  0.85652  1.0000
  C   C444      1.0  0.45952  0.26830  0.96714  1.0000
  H   H703      1.0  0.03093  0.46574  0.94270  1.0000
  H   H704      1.0  0.01712  0.36542  0.71416  1.0000
  C   C445      1.0  0.50002  0.36889  0.97565  1.0000
  S   S222      1.0  0.50166  0.29519  0.95082  1.0000
  H   H705      1.0  0.03067  0.43252  0.90541  1.0000
  H   H706      1.0  0.49446  0.33695  0.97477  1.0000
  S   S223      1.0  0.13051  0.47928  0.94397  1.0000
  N   N42       1.0  0.05347  0.40248  0.68743  1.0000
  Fe  Fe108     1.0  0.07079  0.42868  0.87710  1.0000
  S   S224      1.0  0.05629  0.44818  0.86664  1.0000
  S   S225      1.0  0.07019  0.40702  0.87487  1.0000
  Fe  Fe109     1.0  0.08104  0.44567  0.89202  1.0000
  S   S226      1.0  0.06700  0.46653  0.88308  1.0000
  S   S227      1.0  0.09612  0.44327  0.90641  1.0000
  Fe  Fe110     1.0  0.04980  0.45394  0.88805  1.0000
  S   S228      1.0  0.02642  0.46333  0.89716  1.0000
  Fe  Fe111     1.0  0.07495  0.45874  0.86266  1.0000
  S   S229      1.0  0.06299  0.43363  0.89893  1.0000
  S   S230      1.0  0.09019  0.43864  0.87118  1.0000
  H   H707      1.0  0.11269  0.33429  0.65679  1.0000
  C   C446      1.0  0.01540  0.45168  0.89804  1.0000
  S   S231      1.0  0.48699  0.26910  0.98632  1.0000
  C   C447      1.0  0.15274  0.49119  0.88724  1.0000
  H   H708      1.0  0.00461  0.29726  0.69134  1.0000
  C   C448      1.0  0.36731  0.28725  0.98506  1.0000
  C   C449      1.0  0.02032  0.43682  0.90226  1.0000
  H   H709      1.0  0.50083  0.37937  0.96796  1.0000
  C   C450      1.0  0.09377  0.36462  0.65905  1.0000
  H   H710      1.0  0.47714  0.27911  0.94306  1.0000
  C   C451      1.0  0.29901  0.35207  0.87170  1.0000
  H   H711      1.0  0.05385  0.46410  0.65486  1.0000
  H   H712      1.0  0.42784  0.33867  0.98227  1.0000
  C   C452      1.0  0.09146  0.47260  0.90314  1.0000
  C   C453      1.0  0.09717  0.45895  0.91068  1.0000
  C   C454      1.0  0.10366  0.45776  0.92196  1.0000
  C   C455      1.0  0.10417  0.47015  0.92585  1.0000
  H   H713      1.0  0.10811  0.44722  0.92784  1.0000
  H   H714      1.0  0.10894  0.46913  0.93473  1.0000
  C   C456      1.0  0.17954  0.43735  0.91266  1.0000
  C   C457      1.0  0.16696  0.44247  0.92230  1.0000
  C   C458      1.0  0.16382  0.45673  0.92385  1.0000
  C   C459      1.0  0.17317  0.46589  0.91565  1.0000
  C   C460      1.0  0.18580  0.46070  0.90618  1.0000
  C   C461      1.0  0.18902  0.44644  0.90478  1.0000
  H   H715      1.0  0.15965  0.43544  0.92854  1.0000
  H   H716      1.0  0.15417  0.46056  0.93135  1.0000
  H   H717      1.0  0.19310  0.46773  0.89986  1.0000
  H   H718      1.0  0.19890  0.44247  0.89762  1.0000
  H   H719      1.0  0.23412  0.46735  0.83064  1.0000
  C   C462      1.0  0.22378  0.46429  0.90264  1.0000
  C   C463      1.0  0.22502  0.45709  0.89193  1.0000
  C   C464      1.0  0.23087  0.46281  0.87763  1.0000
  C   C465      1.0  0.23505  0.47602  0.87406  1.0000
  C   C466      1.0  0.13727  0.32217  0.67809  1.0000
  C   C467      1.0  0.05408  0.45895  0.92194  1.0000
  H   H720      1.0  0.22180  0.44693  0.89481  1.0000
  C   C468      1.0  0.09720  0.37732  0.65930  1.0000
  H   H721      1.0  0.37570  0.41786  0.91780  1.0000
  C   C469      1.0  0.31427  0.38226  0.98497  1.0000
  C   C470      1.0  0.48328  0.36476  0.96421  1.0000
  C   C471      1.0  0.44062  0.36498  0.97964  1.0000
  C   C472      1.0  0.18026  0.39517  0.82294  1.0000
  C   C473      1.0  0.19026  0.38896  0.83187  1.0000
  C   C474      1.0  0.19420  0.39744  0.83878  1.0000
  C   C475      1.0  0.18819  0.41222  0.83671  1.0000
  C   C476      1.0  0.17814  0.41841  0.82785  1.0000
  C   C477      1.0  0.17417  0.40993  0.82100  1.0000
  H   H722      1.0  0.19505  0.37754  0.83337  1.0000
  H   H723      1.0  0.20197  0.39256  0.84557  1.0000
  H   H724      1.0  0.17359  0.42987  0.82608  1.0000
  H   H725      1.0  0.16662  0.41484  0.81401  1.0000
  C   C478      1.0  0.14792  0.45247  0.78673  1.0000
  C   C479      1.0  0.16096  0.44386  0.79027  1.0000
  C   C480      1.0  0.16989  0.44966  0.79499  1.0000
  C   C481      1.0  0.16567  0.46397  0.79651  1.0000
  C   C482      1.0  0.15264  0.47256  0.79294  1.0000
  C   C483      1.0  0.14397  0.46692  0.78777  1.0000
  H   H726      1.0  0.16415  0.43271  0.78948  1.0000
  H   H727      1.0  0.17997  0.44292  0.79771  1.0000
  H   H728      1.0  0.14920  0.48354  0.79418  1.0000
  H   H729      1.0  0.13387  0.47363  0.78508  1.0000
  C   C484      1.0  0.09637  0.39273  0.83368  1.0000
  C   C485      1.0  0.09785  0.40543  0.83614  1.0000
  C   C486      1.0  0.08976  0.41005  0.84876  1.0000
  C   C487      1.0  0.08046  0.40179  0.85896  1.0000
  C   C488      1.0  0.07903  0.38914  0.85642  1.0000
  C   C489      1.0  0.08686  0.38470  0.84377  1.0000
  H   H730      1.0  0.10505  0.41171  0.82824  1.0000
  H   H731      1.0  0.09073  0.41991  0.85066  1.0000
  H   H732      1.0  0.07186  0.38275  0.86428  1.0000
  H   H733      1.0  0.08567  0.37490  0.84189  1.0000
  C   C490      1.0  0.11354  0.36910  0.74708  1.0000
  C   C491      1.0  0.10996  0.37685  0.75788  1.0000
  C   C492      1.0  0.12055  0.38217  0.76071  1.0000
  C   C493      1.0  0.13492  0.37976  0.75276  1.0000
  C   C494      1.0  0.13841  0.37249  0.74159  1.0000
  C   C495      1.0  0.12778  0.36716  0.73875  1.0000
  H   H734      1.0  0.09889  0.37865  0.76416  1.0000
  H   H735      1.0  0.11762  0.38796  0.76917  1.0000
  H   H736      1.0  0.14947  0.37063  0.73531  1.0000
  H   H737      1.0  0.13072  0.36115  0.73046  1.0000
  C   C496      1.0  0.09728  0.30543  0.69477  1.0000
  C   C497      1.0  0.10420  0.29477  0.68680  1.0000
  C   C498      1.0  0.09631  0.29029  0.67960  1.0000
  H   H738      1.0  0.11564  0.28989  0.68626  1.0000
  N   N43       1.0  0.02580  0.28774  0.68035  1.0000
  C   C499      1.0  0.03753  0.35027  0.71587  1.0000
  C   C500      1.0  0.04517  0.33607  0.71588  1.0000
  C   C501      1.0  0.03847  0.32615  0.71393  1.0000
  C   C502      1.0  0.02412  0.33037  0.71195  1.0000
  H   H739      1.0  0.47292  0.25071  0.93981  1.0000
  C   C503      1.0  0.02309  0.35445  0.71415  1.0000
  H   H740      1.0  0.05624  0.33272  0.71740  1.0000
  H   H741      1.0  0.04447  0.31518  0.71388  1.0000
  H   H742      1.0  0.17445  0.48579  0.74692  1.0000
  Fe  Fe112     1.0  0.37135  0.40190  0.97837  1.0000
  H   H743      1.0  0.10894  0.33800  0.79039  1.0000
  N   N44       1.0  0.26422  0.43214  0.90045  1.0000
  H   H744      1.0  0.10310  0.33667  0.80939  1.0000
  H   H745      1.0  0.14720  0.46555  0.90224  1.0000
  H   H746      1.0  0.03817  0.40051  0.70773  1.0000
  H   H747      1.0  0.12130  0.32793  0.80185  1.0000
  C   C504      1.0  0.09179  0.48496  0.90714  1.0000
  H   H748      1.0  0.16063  0.40519  0.90761  1.0000
  H   H749      1.0  0.37707  0.40546  0.93461  1.0000
  S   S232      1.0  0.35144  0.39610  0.97669  1.0000
  H   H750      1.0  0.09613  0.35507  0.66709  1.0000
  C   C505      1.0  0.44141  0.36524  0.95134  1.0000
  C   C506      1.0  0.11254  0.33778  0.80013  1.0000
  C   C507      1.0  0.43196  0.37638  0.97175  1.0000
  H   H751      1.0  0.05396  0.34663  0.68705  1.0000
  H   H752      1.0  0.32837  0.34974  0.88470  1.0000
  H   H753      1.0  0.10312  0.44172  0.83665  1.0000
  C   C508      1.0  0.07451  0.30681  0.68868  1.0000
  H   H754      1.0  0.11751  0.42640  0.84079  1.0000
  C   C509      1.0  0.23370  0.48330  0.88476  1.0000
  H   H755      1.0  0.15360  0.42379  0.72016  1.0000
  H   H756      1.0  0.43966  0.28765  0.92956  1.0000
  H   H757      1.0  0.11347  0.34925  0.82123  1.0000
  S   S233      1.0  0.44119  0.25501  0.92699  1.0000
  H   H758      1.0  0.13947  0.34273  0.78729  1.0000
  H   H759      1.0  0.13649  0.42101  0.71926  1.0000
  C   C510      1.0  0.36217  0.37658  0.93768  1.0000
  C   C511      1.0  0.37231  0.37313  0.94627  1.0000
  C   C512      1.0  0.36914  0.37928  0.95816  1.0000
  C   C513      1.0  0.35567  0.38862  0.96167  1.0000
  C   C514      1.0  0.34548  0.39194  0.95317  1.0000
  C   C515      1.0  0.34879  0.38604  0.94112  1.0000
  H   H760      1.0  0.38257  0.36562  0.94381  1.0000
  H   H761      1.0  0.08688  0.47367  0.89415  1.0000
  H   H762      1.0  0.33520  0.39942  0.95564  1.0000
  H   H763      1.0  0.34115  0.38920  0.93425  1.0000
  C   C516      1.0  0.28836  0.38632  0.89399  1.0000
  C   C517      1.0  0.28241  0.39620  0.88287  1.0000
  C   C518      1.0  0.26994  0.39464  0.87961  1.0000
  C   C519      1.0  0.26348  0.38303  0.88730  1.0000
  C   C520      1.0  0.26962  0.37295  0.89824  1.0000
  C   C521      1.0  0.28195  0.37466  0.90168  1.0000
  H   H764      1.0  0.28748  0.40508  0.87672  1.0000
  H   H765      1.0  0.26543  0.40230  0.87099  1.0000
  H   H766      1.0  0.26465  0.36394  0.90422  1.0000
  H   H767      1.0  0.28633  0.36711  0.91042  1.0000
  C   C522      1.0  0.44631  0.29842  0.90755  1.0000
  C   C523      1.0  0.45507  0.30759  0.89814  1.0000
  C   C524      1.0  0.46442  0.31252  0.90309  1.0000
  C   C525      1.0  0.46497  0.30856  0.91757  1.0000
  C   C526      1.0  0.45586  0.29973  0.92720  1.0000
  C   C527      1.0  0.44662  0.29453  0.92216  1.0000
  H   H768      1.0  0.45485  0.31070  0.88689  1.0000
  H   H769      1.0  0.47135  0.31940  0.89560  1.0000
  H   H770      1.0  0.45589  0.29700  0.93845  1.0000
  C   C528      1.0  0.36719  0.28374  0.92660  1.0000
  C   C529      1.0  0.35456  0.29309  0.93220  1.0000
  C   C530      1.0  0.34839  0.30561  0.92325  1.0000
  C   C531      1.0  0.35458  0.30859  0.90858  1.0000
  C   C532      1.0  0.36693  0.29900  0.90288  1.0000
  C   C533      1.0  0.37343  0.28674  0.91194  1.0000
  H   H771      1.0  0.34962  0.29076  0.94350  1.0000
  H   H772      1.0  0.33877  0.31290  0.92770  1.0000
  H   H773      1.0  0.37168  0.30121  0.89152  1.0000
  H   H774      1.0  0.38310  0.27946  0.90754  1.0000
  C   C534      1.0  0.25334  0.43179  0.91418  1.0000
  H   H775      1.0  0.24860  0.43435  0.88810  1.0000
  N   N45       1.0  0.12455  0.44624  0.83034  1.0000
  C   C535      1.0  0.12051  0.45921  0.81936  1.0000
  C   C536      1.0  0.11471  0.43648  0.83275  1.0000
  C   C537      1.0  0.12315  0.45040  0.84385  1.0000
  C   C538      1.0  0.13980  0.43891  0.82535  1.0000
  H   H776      1.0  0.12747  0.46703  0.81738  1.0000
  H   H777      1.0  0.10900  0.46485  0.82260  1.0000
  H   H778      1.0  0.12150  0.45640  0.80903  1.0000
  H   H779      1.0  0.11528  0.43342  0.82266  1.0000
  H   H780      1.0  0.12668  0.44093  0.85218  1.0000
  H   H781      1.0  0.11164  0.45528  0.84824  1.0000
  H   H782      1.0  0.12975  0.45847  0.84224  1.0000
  H   H783      1.0  0.14329  0.42900  0.83329  1.0000
  H   H784      1.0  0.14749  0.44607  0.82327  1.0000
  H   H785      1.0  0.14119  0.43562  0.81520  1.0000
  H   H786      1.0  0.49116  0.37108  0.98511  1.0000
  S   S234      1.0  0.07054  0.29023  0.67301  1.0000
  H   H787      1.0  0.05798  0.37979  0.68835  1.0000
  S   S235      1.0  0.07464  0.25536  0.65784  1.0000
  S   S236      1.0  0.16491  0.49212  0.83269  1.0000
  C   C539      1.0  0.02068  0.28974  0.66718  1.0000
  H   H788      1.0  0.14152  0.41863  0.87744  1.0000
  H   H789      1.0  0.03370  0.33608  0.66661  1.0000
  H   H790      1.0  0.32634  0.33981  0.85951  1.0000
  H   H791      1.0  0.05267  0.39116  0.67225  1.0000
  C   C540      1.0  0.21042  0.48044  0.81925  1.0000
  H   H792      1.0  0.06082  0.36012  0.67251  1.0000
  Fe  Fe113     1.0  0.07748  0.27779  0.65536  1.0000
  H   H793      1.0  0.45880  0.26668  0.94106  1.0000
  H   H794      1.0  0.05391  0.45038  0.93192  1.0000
  C   C541      1.0  0.09814  0.48377  0.91850  1.0000
  H   H795      1.0  0.36802  0.47642  0.98265  1.0000
  N   N46       1.0  0.39469  0.32075  0.91213  1.0000
  C   C542      1.0  0.40778  0.31919  0.91755  1.0000
  C   C543      1.0  0.38932  0.33607  0.90580  1.0000
  C   C544      1.0  0.38313  0.31557  0.92405  1.0000
  C   C545      1.0  0.39849  0.31219  0.90111  1.0000
  H   H796      1.0  0.41210  0.30775  0.92239  1.0000
  H   H797      1.0  0.40541  0.32556  0.92581  1.0000
  H   H798      1.0  0.41682  0.32276  0.90876  1.0000
  H   H799      1.0  0.39772  0.34035  0.89672  1.0000
  H   H800      1.0  0.37938  0.33762  0.90169  1.0000
  H   H801      1.0  0.38631  0.34285  0.91384  1.0000
  H   H802      1.0  0.37305  0.31692  0.92032  1.0000
  H   H803      1.0  0.38013  0.32163  0.93269  1.0000
  H   H804      1.0  0.38655  0.30393  0.92884  1.0000
  H   H805      1.0  0.38910  0.31369  0.89625  1.0000
  H   H806      1.0  0.40190  0.30047  0.90569  1.0000
  H   H807      1.0  0.40776  0.31523  0.89232  1.0000
  Fe  Fe114     1.0  0.42347  0.25819  0.94634  1.0000
  H   H808      1.0  0.47391  0.36679  0.97334  1.0000
  H   H809      1.0  0.06721  0.47556  0.92890  1.0000
  Fe  Fe115     1.0  0.14794  0.49129  0.93113  1.0000
  H   H810      1.0  0.19868  0.48575  0.82009  1.0000
  H   H811      1.0  0.00727  0.38271  0.69069  1.0000
  H   H812      1.0  0.29995  0.32843  0.89314  1.0000
  H   H813      1.0  0.01318  0.30037  0.66486  1.0000
  H   H814      1.0  0.17821  0.42005  0.88000  1.0000
  H   H815      1.0  0.20783  0.46077  0.85333  1.0000
  H   H816      1.0  0.01470  0.28135  0.66809  1.0000
  H   H817      1.0  0.21483  0.47830  0.80831  1.0000
  H   H818      1.0  0.34252  0.36870  0.98486  1.0000
  S   S237      1.0  0.22803  0.48528  0.91293  1.0000
  S   S238      1.0  0.39173  0.38579  0.98246  1.0000
  H   H819      1.0  0.39532  0.41376  0.89593  1.0000
  H   H820      1.0  0.46413  0.27235  0.97382  1.0000
  N   N47       1.0  0.11774  0.35090  0.79852  1.0000
  C   C546      1.0  0.13011  0.35205  0.78598  1.0000
  C   C547      1.0  0.10573  0.36366  0.79639  1.0000
  H   H821      1.0  0.48079  0.35726  0.95921  1.0000
  H   H822      1.0  0.13418  0.36197  0.78426  1.0000
  H   H823      1.0  0.12691  0.35247  0.77597  1.0000
  C   C548      1.0  0.05545  0.47619  0.93418  1.0000
  Fe  Fe116     1.0  0.12867  0.49136  0.96071  1.0000
  H   H824      1.0  0.10952  0.37382  0.79420  1.0000
  H   H825      1.0  0.09664  0.36372  0.80606  1.0000
  H   H826      1.0  0.10114  0.36405  0.78725  1.0000
  H   H827      1.0  0.31264  0.37739  0.97689  1.0000
  H   H828      1.0  0.12620  0.36003  0.81080  1.0000
  C   C549      1.0  0.47806  0.24644  0.96609  1.0000
  H   H829      1.0  0.31466  0.33081  0.89908  1.0000
  C   C550      1.0  0.42021  0.25244  0.98212  1.0000
  N   N48       1.0  0.04613  0.35024  0.66800  1.0000
  S   S239      1.0  0.49269  0.30769  0.98021  1.0000
  H   H830      1.0  0.21437  0.48255  0.94561  1.0000
  H   H831      1.0  0.39496  0.27644  0.97269  1.0000
  C   C551      1.0  0.48210  0.26859  0.94934  1.0000
  H   H832      1.0  0.06567  0.45813  0.91608  1.0000
  C   C552      1.0  0.38626  0.27376  0.96936  1.0000
  H   H833      1.0  0.40770  0.44529  0.97266  1.0000
  H   H834      1.0  0.27435  0.44765  0.88369  1.0000
  H   H835      1.0  0.23954  0.48058  0.86301  1.0000
  H   H836      1.0  0.15871  0.48717  0.76144  1.0000
  H   H837      1.0  0.13398  0.47459  0.87527  1.0000
  H   H838      1.0  0.20579  0.44685  0.83692  1.0000
  S   S240      1.0  0.42732  0.26270  0.96556  1.0000
  N   N49       1.0  0.02991  0.41928  0.86197  1.0000
  C   C553      1.0  0.04421  0.42024  0.85210  1.0000
  C   C554      1.0  0.02170  0.41258  0.85623  1.0000
  C   C555      1.0  0.02149  0.43389  0.86350  1.0000
  C   C556      1.0  0.03220  0.41040  0.87610  1.0000
  H   H839      1.0  0.05061  0.42525  0.85619  1.0000
  H   H840      1.0  0.04298  0.42679  0.84129  1.0000
  H   H841      1.0  0.05095  0.40939  0.85085  1.0000
  H   H842      1.0  0.01085  0.41170  0.86353  1.0000
  H   H843      1.0  0.01967  0.41902  0.84561  1.0000
  H   H844      1.0  0.02772  0.40153  0.85498  1.0000
  H   H845      1.0  0.01028  0.43363  0.87008  1.0000
  H   H846      1.0  0.02033  0.44117  0.85296  1.0000
  H   H847      1.0  0.02676  0.43891  0.86883  1.0000
  H   H848      1.0  0.02166  0.40873  0.88356  1.0000
  H   H849      1.0  0.03761  0.41554  0.88117  1.0000
  H   H850      1.0  0.03931  0.39961  0.87524  1.0000
  N   N50       1.0  0.47105  0.26001  0.95750  1.0000
  C   C557      1.0  0.04987  0.40088  0.70312  1.0000
  H   H851      1.0  0.12819  0.46980  0.90190  1.0000
  H   H852      1.0  0.03889  0.33218  0.68336  1.0000
  C   C558      1.0  0.26628  0.44700  0.89412  1.0000
  C   C559      1.0  0.08245  0.31154  0.69553  1.0000
  H   H853      1.0  0.29284  0.34445  0.87110  1.0000
  S   S241      1.0  0.08302  0.47282  0.84165  1.0000
  C   C560      1.0  0.01176  0.42745  0.90263  1.0000
  H   H854      1.0  0.24257  0.43872  0.91261  1.0000
  H   H855      1.0  0.02865  0.35792  0.68454  1.0000
  H   H856      1.0  0.14839  0.32344  0.67746  1.0000
  H   H857      1.0  0.22973  0.44999  0.83709  1.0000
  H   H858      1.0  0.05497  0.46818  0.94456  1.0000
  H   H859      1.0  0.04812  0.45641  0.91528  1.0000
  H   H860      1.0  0.48356  0.37511  0.95618  1.0000
  C   C561      1.0  0.04823  0.48437  0.91148  1.0000
  C   C562      1.0  0.20448  0.45707  0.82873  1.0000
  H   H861      1.0  0.02398  0.36175  0.66755  1.0000
  C   C563      1.0  0.09735  0.48069  0.85720  1.0000
  H   H862      1.0  0.17186  0.47711  0.94807  1.0000
  H   H863      1.0  0.20798  0.46726  0.95786  1.0000
  N   N51       1.0  0.31128  0.34451  0.87883  1.0000
  H   H864      1.0  0.01557  0.41597  0.90610  1.0000
  H   H865      1.0  0.03231  0.26478  0.68270  1.0000
  C   C564      1.0  0.32169  0.33422  0.87051  1.0000
  H   H866      1.0  0.11806  0.31639  0.66696  1.0000
  C   C565      1.0  0.13009  0.34621  0.66443  1.0000
  H   H867      1.0  0.39360  0.39543  0.89961  1.0000
  H   H868      1.0  0.02572  0.47194  0.92575  1.0000
  H   H869      1.0  0.07695  0.31950  0.70188  1.0000
  H   H870      1.0  0.44166  0.36528  0.94042  1.0000
  Fe  Fe117     1.0  0.48178  0.31098  0.94463  1.0000
  N   N52       1.0  0.14017  0.48539  0.88781  1.0000
  C   C566      1.0  0.01642  0.34454  0.71212  1.0000
  C   C567      1.0  0.05076  0.39001  0.68402  1.0000
  H   H871      1.0  0.35991  0.32702  0.97425  1.0000
  H   H872      1.0  0.03243  0.41600  0.68540  1.0000
  Fe  Fe118     1.0  0.42672  0.27318  0.91516  1.0000
  C   C568      1.0  0.08138  0.29619  0.68069  1.0000
  H   H873      1.0  0.33102  0.32827  0.87572  1.0000
  C   C569      1.0  0.14352  0.42008  0.72666  1.0000
  H   H874      1.0  0.12397  0.44542  0.72386  1.0000
  H   H875      1.0  0.07154  0.41236  0.68393  1.0000
  H   H876      1.0  0.06766  0.34137  0.67215  1.0000
  H   H877      1.0  0.05974  0.48432  0.90561  1.0000
  H   H878      1.0  0.18015  0.39842  0.87149  1.0000
  H   H879      1.0  0.04066  0.27207  0.69231  1.0000
  H   H880      1.0  0.06291  0.31120  0.68984  1.0000
  H   H881      1.0  0.14112  0.44824  0.72453  1.0000
  H   H882      1.0  0.14687  0.40841  0.73146  1.0000
  H   H883      1.0  0.21942  0.45968  0.91369  1.0000
  H   H884      1.0  0.37699  0.37657  0.96477  1.0000
  H   H885      1.0  0.25694  0.41615  0.89512  1.0000
  H   H886      1.0  0.26697  0.42710  0.88010  1.0000
  H   H887      1.0  0.13769  0.31050  0.67965  1.0000
  H   H888      1.0  0.04133  0.30101  0.66940  1.0000
  H   H889      1.0  0.33267  0.35743  0.98196  1.0000
  C   C570      1.0  0.13145  0.44378  0.73105  1.0000
  C   C571      1.0  0.11730  0.32797  0.66625  1.0000
  N   N53       1.0  0.13579  0.42841  0.73783  1.0000
  H   H890      1.0  0.11651  0.42895  0.75481  1.0000
  H   H891      1.0  0.12571  0.45034  0.73924  1.0000
  H   H892      1.0  0.12580  0.35312  0.65494  1.0000
  H   H893      1.0  0.10166  0.28197  0.67361  1.0000
  C   C572      1.0  0.14343  0.47861  0.87551  1.0000
  H   H894      1.0  0.42506  0.38509  0.97664  1.0000
  H   H895      1.0  0.49076  0.26285  0.94168  1.0000
  C   C573      1.0  0.22831  0.47730  0.89912  1.0000
  H   H896      1.0  0.00538  0.34792  0.71059  1.0000
  C   C574      1.0  0.16802  0.40085  0.87345  1.0000
  H   H897      1.0  0.16136  0.42832  0.89014  1.0000
  H   H898      1.0  0.16462  0.39046  0.87584  1.0000
  H   H899      1.0  0.16510  0.40737  0.86317  1.0000
  H   H900      1.0  0.34327  0.33761  0.95768  1.0000
  H   H901      1.0  0.02422  0.31017  0.67868  1.0000
  H   H902      1.0  0.40109  0.41152  0.93177  1.0000
  H   H903      1.0  0.39620  0.37938  0.92271  1.0000
  C   C575      1.0  0.12264  0.42294  0.74626  1.0000
  H   H904      1.0  0.15552  0.43100  0.74145  1.0000
  H   H905      1.0  0.09258  0.47332  0.86629  1.0000
  H   H906      1.0  0.16345  0.42920  0.87132  1.0000
  C   C576      1.0  0.14555  0.42680  0.74737  1.0000
  H   H907      1.0  0.11508  0.42381  0.73940  1.0000
  H   H908      1.0  0.14926  0.41530  0.75243  1.0000
  H   H909      1.0  0.16187  0.38920  0.90175  1.0000
  C   C577      1.0  0.03199  0.47399  0.93249  1.0000
  H   H910      1.0  0.45283  0.27777  0.96107  1.0000
  H   H911      1.0  0.12557  0.41138  0.75158  1.0000
  H   H912      1.0  0.14000  0.43267  0.75615  1.0000
  H   H913      1.0  0.01662  0.28651  0.70284  1.0000
  H   H914      1.0  0.20857  0.45428  0.81803  1.0000
  S   S242      1.0  0.02033  0.40470  0.66948  1.0000
  N   N54       1.0  0.16118  0.40859  0.88520  1.0000
  C   C578      1.0  0.16618  0.42219  0.88149  1.0000
  C   C579      1.0  0.43232  0.37653  0.95760  1.0000
  C   C580      1.0  0.16544  0.39957  0.89856  1.0000
  H   H915      1.0  0.05210  0.40988  0.70618  1.0000
  S   S243      1.0  0.01646  0.31795  0.70842  1.0000
  C   C581      1.0  0.06900  0.40310  0.68163  1.0000
  H   H916      1.0  0.23298  0.45773  0.81822  1.0000
  C   C582      1.0  0.40339  0.41171  0.92017  1.0000
  C   C583      1.0  0.40114  0.38709  0.92503  1.0000
  H   H917      1.0  0.41546  0.40842  0.91667  1.0000
  H   H918      1.0  0.18325  0.46397  0.95903  1.0000
  H   H919      1.0  0.41106  0.39927  0.89766  1.0000
  C   C584      1.0  0.20632  0.47051  0.84467  1.0000
  C   C585      1.0  0.40167  0.45428  0.97755  1.0000
  H   H920      1.0  0.07204  0.40417  0.66981  1.0000
  C   C586      1.0  0.14512  0.41180  0.88730  1.0000
  H   H921      1.0  0.14097  0.40176  0.89012  1.0000
  H   H922      1.0  0.39986  0.42306  0.91457  1.0000
  H   H923      1.0  0.39833  0.38606  0.93684  1.0000
  H   H924      1.0  0.25163  0.42068  0.91928  1.0000
  C   C587      1.0  0.37998  0.40647  0.92279  1.0000
  H   H925      1.0  0.02658  0.48472  0.93503  1.0000
  S   S244      1.0  0.31179  0.34233  0.96212  1.0000
  C   C588      1.0  0.39912  0.40266  0.90197  1.0000
  H   H926      1.0  0.41322  0.38358  0.92189  1.0000
  H   H927      1.0  0.37397  0.39969  0.92042  1.0000
  H   H928      1.0  0.03723  0.29820  0.68854  1.0000
  N   N55       1.0  0.39590  0.40199  0.91749  1.0000
  C   C589      1.0  0.34828  0.32792  0.97827  1.0000
  C   C590      1.0  0.03678  0.27408  0.68230  1.0000
  C   C591      1.0  0.00702  0.39593  0.66952  1.0000
  H   H929      1.0  0.10930  0.33081  0.67598  1.0000
  H   H930      1.0  0.04243  0.48245  0.90426  1.0000
  N   N56       1.0  0.21231  0.46707  0.83039  1.0000
  H   H931      1.0  0.28262  0.42593  0.91037  1.0000
  Fe  Fe119     1.0  0.16772  0.49190  0.80979  1.0000
  H   H932      1.0  0.45649  0.34473  0.95461  1.0000
  C   C592      1.0  0.04261  0.33591  0.67159  1.0000
  H   H933      1.0  0.13964  0.41764  0.89611  1.0000
  Fe  Fe120     1.0  0.47378  0.32259  0.97152  1.0000
  H   H934      1.0  0.31638  0.32606  0.86957  1.0000
  H   H935      1.0  0.02989  0.28909  0.65771  1.0000
  C   C593      1.0  0.10129  0.49167  0.83191  1.0000
  H   H936      1.0  0.31147  0.36278  0.88632  1.0000
  H   H937      1.0  0.05627  0.39066  0.70845  1.0000
  C   C594      1.0  0.25898  0.42719  0.89052  1.0000
  N   N57       1.0  0.13166  0.33076  0.66527  1.0000
  C   C595      1.0  0.44987  0.35365  0.95935  1.0000
  C   C596      1.0  0.10675  0.48813  0.85888  1.0000
  H   H938      1.0  0.25590  0.45453  0.89206  1.0000
  H   H939      1.0  0.29112  0.36011  0.87757  1.0000
  S   S245      1.0  0.48718  0.32933  0.94966  1.0000
  H   H940      1.0  0.29773  0.34401  0.89999  1.0000
  N   N58       1.0  0.19212  0.48244  0.94676  1.0000
  C   C597      1.0  0.27823  0.42251  0.90301  1.0000
  C   C598      1.0  0.30565  0.33660  0.89340  1.0000
  C   C599      1.0  0.09442  0.48258  0.84378  1.0000
  H   H941      1.0  0.14594  0.48643  0.86519  1.0000
  Fe  Fe121     1.0  0.40313  0.40073  0.96427  1.0000
  H   H942      1.0  0.41145  0.33441  0.98168  1.0000
  C   C600      1.0  0.44945  0.35353  0.97352  1.0000
  H   H943      1.0  0.28669  0.42224  0.89287  1.0000
  H   H944      1.0  0.27018  0.45115  0.90132  1.0000
  H   H945      1.0  0.32186  0.38961  0.97926  1.0000
  C   C601      1.0  0.32380  0.33500  0.97386  1.0000
  H   H946      1.0  0.05093  0.48710  0.93654  1.0000
  C   C602      1.0  0.46453  0.25669  0.94746  1.0000
  H   H947      1.0  0.04616  0.41723  0.66916  1.0000
  C   C603      1.0  0.05766  0.34957  0.67522  1.0000
  H   H948      1.0  0.07629  0.39317  0.68633  1.0000
  H   H949      1.0  0.27701  0.41121  0.90789  1.0000
  H   H950      1.0  0.21221  0.46855  0.93885  1.0000
  C   C604      1.0  0.40850  0.46002  0.98462  1.0000
  H   H951      1.0  0.25681  0.43566  0.92188  1.0000
  Fe  Fe122     1.0  0.38430  0.42754  0.97436  1.0000
  S   S246      1.0  0.42090  0.39051  0.94807  1.0000
  H   H952      1.0  0.10876  0.48674  0.86934  1.0000
  H   H953      1.0  0.45198  0.26156  0.97466  1.0000
  S   S247      1.0  0.46664  0.30562  0.96591  1.0000
  H   H954      1.0  0.32290  0.36158  0.86898  1.0000
  H   H955      1.0  0.30288  0.35800  0.86061  1.0000
  H   H956      1.0  0.04639  0.42556  0.68290  1.0000
  C   C605      1.0  0.18595  0.49049  0.95832  1.0000
  C   C606      1.0  0.13746  0.47453  0.90128  1.0000
  C   C607      1.0  0.18337  0.47181  0.94856  1.0000
  H   H957      1.0  0.03930  0.38879  0.68881  1.0000
  H   H958      1.0  0.13010  0.32550  0.68798  1.0000
  N   N59       1.0  0.49718  0.35867  0.96900  1.0000
  Fe  Fe123     1.0  0.48694  0.29125  0.97263  1.0000
  S   S248      1.0  0.45925  0.33885  0.98401  1.0000
  C   C608      1.0  0.22799  0.46025  0.82896  1.0000
  H   H959      1.0  0.48752  0.27088  0.95661  1.0000
  H   H960      1.0  0.41127  0.35225  0.98284  1.0000
  S   S249      1.0  0.16925  0.48394  0.91674  1.0000
  H   H961      1.0  0.19445  0.47546  0.84626  1.0000
  N   N60       1.0  0.37303  0.27315  0.98096  1.0000
  H   H962      1.0  0.39093  0.26323  0.96612  1.0000
  C   C609      1.0  0.03293  0.36088  0.67281  1.0000
  C   C610      1.0  0.38696  0.45994  0.97716  1.0000
  S   S250      1.0  0.40606  0.41386  0.97784  1.0000
  H   H963      1.0  0.21596  0.48835  0.82036  1.0000
  H   H964      1.0  0.15303  0.46941  0.87586  1.0000
  C   C611      1.0  0.20733  0.47484  0.94736  1.0000
  C   C612      1.0  0.37935  0.47188  0.98311  1.0000
  N   N61       1.0  0.04744  0.47338  0.92504  1.0000
  H   H965      1.0  0.21186  0.47818  0.84624  1.0000
  C   C613      1.0  0.01330  0.28733  0.69279  1.0000
  H   H966      1.0  0.04655  0.27429  0.67331  1.0000
  H   H967      1.0  0.19256  0.46178  0.82987  1.0000
  S   S251      1.0  0.12745  0.48017  0.98394  1.0000
  C   C614      1.0  0.33885  0.33381  0.96881  1.0000
  S   S252      1.0  0.37765  0.45168  0.97018  1.0000
  H   H968      1.0  0.19613  0.48682  0.92379  1.0000
  H   H969      1.0  0.36595  0.25928  0.97237  1.0000
  H   H970      1.0  0.18770  0.46565  0.93992  1.0000
  H   H971      1.0  0.38382  0.28193  0.95963  1.0000
  H   H972      1.0  0.05229  0.32762  0.66797  1.0000
  H   H973      1.0  0.12237  0.34961  0.67406  1.0000
  H   H974      1.0  0.16275  0.48250  0.88802  1.0000
  C   C615      1.0  0.36185  0.26970  0.97588  1.0000
  H   H975      1.0  0.45636  0.24997  0.95326  1.0000
  H   H976      1.0  0.17649  0.47946  0.76517  1.0000
  H   H977      1.0  0.48290  0.24855  0.97395  1.0000
  H   H978      1.0  0.35174  0.26893  0.98438  1.0000
  H   H979      1.0  0.41977  0.45538  0.98525  1.0000
  H   H980      1.0  0.35879  0.27804  0.96647  1.0000
  H   H981      1.0  0.36442  0.29603  0.97587  1.0000
  H   H982      1.0  0.03518  0.37183  0.67033  1.0000
  C   C616      1.0  0.19191  0.49259  0.93274  1.0000
  H   H983      1.0  0.18582  0.48318  0.96908  1.0000
  C   C617      1.0  0.49618  0.34498  0.97959  1.0000
  C   C618      1.0  0.17033  0.48811  0.75781  1.0000
  C   C619      1.0  0.41584  0.34058  0.98661  1.0000
  H   H984      1.0  0.41449  0.52685  0.03338  1.0000
  H   H985      1.0  0.46733  0.61798  0.10065  1.0000
  H   H986      1.0  0.09378  0.54355  0.10077  1.0000
  S   S253      1.0  0.47608  0.72146  0.14548  1.0000
  S   S254      1.0  0.07170  0.58996  0.29693  1.0000
  H   H987      1.0  0.44658  0.62777  0.99756  1.0000
  Fe  Fe124     1.0  0.36567  0.51738  0.01037  1.0000
  Fe  Fe125     1.0  0.47581  0.72005  0.12332  1.0000
  S   S255      1.0  0.46591  0.70224  0.12185  1.0000
  C   C620      1.0  0.38307  0.60949  0.00231  1.0000
  C   C621      1.0  0.30713  0.58877  0.00747  1.0000
  H   H988      1.0  0.36422  0.60998  0.98698  1.0000
  H   H989      1.0  0.04461  0.64346  0.29689  1.0000
  C   C622      1.0  0.32819  0.65397  0.02076  1.0000
  H   H990      1.0  0.04165  0.57250  0.27407  1.0000
  H   H991      1.0  0.09684  0.50653  0.00879  1.0000
  Fe  Fe126     1.0  0.38116  0.51138  0.03436  1.0000
  S   S256      1.0  0.37818  0.50911  0.05807  1.0000
  H   H992      1.0  0.11614  0.50392  0.00624  1.0000
  Fe  Fe127     1.0  0.45388  0.56163  0.02866  1.0000
  S   S257      1.0  0.45485  0.58301  0.01354  1.0000
  S   S258      1.0  0.45739  0.54181  0.02043  1.0000
  Fe  Fe128     1.0  0.44447  0.57400  0.05497  1.0000
  S   S259      1.0  0.44467  0.59630  0.04203  1.0000
  S   S260      1.0  0.43594  0.57428  0.07815  1.0000
  Fe  Fe129     1.0  0.43381  0.59079  0.02814  1.0000
  Fe  Fe130     1.0  0.46568  0.58652  0.02890  1.0000
  H   H993      1.0  0.35639  0.65148  0.01880  1.0000
  S   S261      1.0  0.43183  0.56919  0.04206  1.0000
  S   S262      1.0  0.46659  0.56435  0.04302  1.0000
  Fe  Fe131     1.0  0.42486  0.67913  0.07432  1.0000
  S   S263      1.0  0.42108  0.65779  0.08848  1.0000
  S   S264      1.0  0.42963  0.69837  0.07919  1.0000
  Fe  Fe132     1.0  0.42434  0.67016  0.04738  1.0000
  S   S265      1.0  0.42136  0.64799  0.05909  1.0000
  S   S266      1.0  0.42697  0.67720  0.02349  1.0000
  Fe  Fe133     1.0  0.40495  0.65918  0.07540  1.0000
  S   S267      1.0  0.38326  0.65236  0.08511  1.0000
  Fe  Fe134     1.0  0.43753  0.64844  0.07091  1.0000
  S   S268      1.0  0.45655  0.63014  0.07423  1.0000
  S   S269      1.0  0.40695  0.68159  0.06294  1.0000
  S   S270      1.0  0.44231  0.66946  0.05750  1.0000
  Fe  Fe135     1.0  0.34544  0.58503  0.06389  1.0000
  S   S271      1.0  0.33001  0.58095  0.05317  1.0000
  S   S272      1.0  0.36065  0.56852  0.07660  1.0000
  Fe  Fe136     1.0  0.33751  0.61736  0.05451  1.0000
  S   S273      1.0  0.32087  0.61639  0.04330  1.0000
  S   S274      1.0  0.34467  0.63817  0.05152  1.0000
  Fe  Fe137     1.0  0.31419  0.59906  0.06229  1.0000
  S   S275      1.0  0.29009  0.59875  0.07004  1.0000
  Fe  Fe138     1.0  0.33758  0.59839  0.03499  1.0000
  S   S276      1.0  0.34311  0.59891  0.01137  1.0000
  S   S277      1.0  0.32908  0.60197  0.07448  1.0000
  S   S278      1.0  0.35471  0.60052  0.04472  1.0000
  Fe  Fe139     1.0  0.22158  0.52053  0.11657  1.0000
  S   S279      1.0  0.20115  0.53785  0.11626  1.0000
  Fe  Fe140     1.0  0.24140  0.54116  0.09802  1.0000
  S   S280      1.0  0.22234  0.55989  0.09584  1.0000
  S   S281      1.0  0.26556  0.54158  0.08952  1.0000
  Fe  Fe141     1.0  0.21402  0.55162  0.11941  1.0000
  S   S282      1.0  0.20673  0.56681  0.13445  1.0000
  Fe  Fe142     1.0  0.21113  0.54419  0.09288  1.0000
  S   S283      1.0  0.19837  0.54756  0.07607  1.0000
  S   S284      1.0  0.23375  0.53375  0.12183  1.0000
  S   S285      1.0  0.23091  0.52614  0.09299  1.0000
  Fe  Fe143     1.0  0.10743  0.54967  0.19439  1.0000
  S   S286      1.0  0.10894  0.53051  0.21254  1.0000
  S   S287      1.0  0.08630  0.55610  0.18714  1.0000
  Fe  Fe144     1.0  0.13629  0.55534  0.19492  1.0000
  S   S288      1.0  0.13990  0.53676  0.21349  1.0000
  S   S289      1.0  0.15162  0.57051  0.18645  1.0000
  Fe  Fe145     1.0  0.13247  0.52499  0.20150  1.0000
  Fe  Fe146     1.0  0.11600  0.54423  0.22268  1.0000
  S   S290      1.0  0.10359  0.54641  0.24505  1.0000
  S   S291      1.0  0.13049  0.54319  0.18231  1.0000
  S   S292      1.0  0.11294  0.56382  0.20516  1.0000
  H   H994      1.0  0.19212  0.52287  0.14649  1.0000
  H   H995      1.0  0.37901  0.67638  0.05093  1.0000
  Fe  Fe147     1.0  0.08923  0.60254  0.28886  1.0000
  H   H996      1.0  0.42134  0.68505  0.99526  1.0000
  S   S293      1.0  0.10887  0.59476  0.27224  1.0000
  H   H997      1.0  0.00844  0.61908  0.28126  1.0000
  H   H998      1.0  0.08913  0.52064  0.09953  1.0000
  S   S294      1.0  0.03504  0.61790  0.28847  1.0000
  H   H999      1.0  0.11070  0.54372  0.10449  1.0000
  S   S295      1.0  0.40259  0.54837  0.99572  1.0000
  H   H1000     1.0  0.15594  0.50993  0.99186  1.0000
  S   S296      1.0  0.37358  0.49707  0.02544  1.0000
  S   S297      1.0  0.07372  0.62418  0.28578  1.0000
  H   H1001     1.0  0.04010  0.66272  0.29241  1.0000
  Fe  Fe148     1.0  0.06572  0.51255  0.14769  1.0000
  S   S298      1.0  0.08713  0.51813  0.14544  1.0000
  C   C623      1.0  0.06661  0.49692  0.10174  1.0000
  S   S299      1.0  0.05615  0.51410  0.12925  1.0000
  S   S300      1.0  0.14019  0.51011  0.05642  1.0000
  S   S301      1.0  0.09962  0.50812  0.06937  1.0000
  H   H1002     1.0  0.36340  0.64109  0.00535  1.0000
  H   H1003     1.0  0.12084  0.51523  0.08380  1.0000
  H   H1004     1.0  0.47197  0.68879  0.08564  1.0000
  H   H1005     1.0  0.12735  0.61918  0.21365  1.0000
  N   N62       1.0  0.35763  0.69010  0.05150  1.0000
  H   H1006     1.0  0.46991  0.68212  0.05157  1.0000
  H   H1007     1.0  0.34054  0.68217  0.04855  1.0000
  C   C624      1.0  0.07467  0.50440  0.08937  1.0000
  C   C625      1.0  0.02983  0.60562  0.28216  1.0000
  H   H1008     1.0  0.06998  0.51536  0.08463  1.0000
  N   N63       1.0  0.10390  0.50941  0.02621  1.0000
  Fe  Fe149     1.0  0.03449  0.51813  0.14458  1.0000
  H   H1009     1.0  0.47020  0.63065  0.01962  1.0000
  H   H1010     1.0  0.10773  0.53170  0.08060  1.0000
  H   H1011     1.0  0.31763  0.65828  0.01732  1.0000
  H   H1012     1.0  0.24230  0.49702  0.10420  1.0000
  H   H1013     1.0  0.12124  0.53904  0.29787  1.0000
  H   H1014     1.0  0.08353  0.51799  0.18928  1.0000
  N   N64       1.0  0.48042  0.72499  0.19082  1.0000
  H   H1015     1.0  0.36886  0.67850  0.06844  1.0000
  H   H1016     1.0  0.42617  0.52386  0.00185  1.0000
  H   H1017     1.0  0.00705  0.66626  0.29816  1.0000
  C   C626      1.0  0.01217  0.66592  0.30694  1.0000
  S   S302      1.0  0.04409  0.51912  0.16222  1.0000
  C   C627      1.0  0.33059  0.60033  0.98960  1.0000
  H   H1018     1.0  0.05011  0.58989  0.28185  1.0000
  N   N65       1.0  0.18098  0.50741  0.16208  1.0000
  H   H1019     1.0  0.13478  0.57400  0.21647  1.0000
  H   H1020     1.0  0.01626  0.67595  0.30441  1.0000
  H   H1021     1.0  0.05564  0.50204  0.10632  1.0000
  H   H1022     1.0  0.48706  0.57948  0.04686  1.0000
  H   H1023     1.0  0.43066  0.64650  0.02792  1.0000
  C   C628      1.0  0.38423  0.58701  0.99670  1.0000
  H   H1024     1.0  0.14996  0.58242  0.21139  1.0000
  H   H1025     1.0  0.43567  0.53685  0.04464  1.0000
  H   H1026     1.0  0.01263  0.63988  0.30402  1.0000
  C   C629      1.0  0.10521  0.56061  0.25139  1.0000
  C   C630      1.0  0.11889  0.56286  0.25075  1.0000
  C   C631      1.0  0.11992  0.57334  0.25722  1.0000
  C   C632      1.0  0.10728  0.58185  0.26403  1.0000
  C   C633      1.0  0.09362  0.57990  0.26420  1.0000
  C   C634      1.0  0.09260  0.56912  0.25817  1.0000
  H   H1027     1.0  0.12868  0.55614  0.24575  1.0000
  H   H1028     1.0  0.13053  0.57477  0.25711  1.0000
  H   H1029     1.0  0.08380  0.58675  0.26887  1.0000
  H   H1030     1.0  0.08199  0.56739  0.25873  1.0000
  C   C635      1.0  0.08656  0.54618  0.17495  1.0000
  C   C636      1.0  0.07351  0.54615  0.17176  1.0000
  C   C637      1.0  0.07356  0.53762  0.16262  1.0000
  C   C638      1.0  0.08671  0.52930  0.15648  1.0000
  C   C639      1.0  0.09976  0.52954  0.15947  1.0000
  C   C640      1.0  0.09967  0.53783  0.16881  1.0000
  H   H1031     1.0  0.06334  0.55263  0.17643  1.0000
  H   H1032     1.0  0.06347  0.53768  0.16016  1.0000
  H   H1033     1.0  0.10997  0.52316  0.15472  1.0000
  H   H1034     1.0  0.10976  0.53777  0.17118  1.0000
  C   C641      1.0  0.19122  0.56691  0.14876  1.0000
  C   C642      1.0  0.18837  0.57700  0.15711  1.0000
  C   C643      1.0  0.17625  0.57781  0.16856  1.0000
  C   C644      1.0  0.16677  0.56851  0.17193  1.0000
  C   C645      1.0  0.16953  0.55827  0.16366  1.0000
  C   C646      1.0  0.18178  0.55748  0.15203  1.0000
  H   H1035     1.0  0.44486  0.65371  0.99621  1.0000
  H   H1036     1.0  0.17421  0.58576  0.17483  1.0000
  H   H1037     1.0  0.16213  0.55118  0.16608  1.0000
  H   H1038     1.0  0.18382  0.54979  0.14550  1.0000
  C   C647      1.0  0.18704  0.53527  0.07991  1.0000
  C   C648      1.0  0.17988  0.53497  0.06963  1.0000
  C   C649      1.0  0.17109  0.52493  0.07259  1.0000
  C   C650      1.0  0.16918  0.51545  0.08598  1.0000
  C   C651      1.0  0.17611  0.51596  0.09628  1.0000
  C   C652      1.0  0.18525  0.52558  0.09314  1.0000
  H   H1039     1.0  0.18127  0.54241  0.05933  1.0000
  H   H1040     1.0  0.16575  0.52462  0.06458  1.0000
  H   H1041     1.0  0.17487  0.50869  0.18423  1.0000
  H   H1042     1.0  0.19090  0.52544  0.10100  1.0000
  C   C653      1.0  0.28387  0.58262  0.07408  1.0000
  C   C654      1.0  0.29286  0.56916  0.07809  1.0000
  C   C655      1.0  0.28715  0.55666  0.08260  1.0000
  C   C656      1.0  0.27244  0.55748  0.08311  1.0000
  C   C657      1.0  0.26359  0.57086  0.07864  1.0000
  C   C658      1.0  0.26927  0.58338  0.07421  1.0000
  H   H1043     1.0  0.30408  0.56844  0.07818  1.0000
  H   H1044     1.0  0.29406  0.54633  0.08605  1.0000
  H   H1045     1.0  0.25238  0.57155  0.07858  1.0000
  H   H1046     1.0  0.26228  0.59374  0.07100  1.0000
  C   C659      1.0  0.32923  0.59699  0.00444  1.0000
  H   H1047     1.0  0.33182  0.66709  0.99293  1.0000
  S   S303      1.0  0.15863  0.50247  0.09037  1.0000
  C   C660      1.0  0.31728  0.59151  0.01342  1.0000
  H   H1048     1.0  0.12165  0.61052  0.19518  1.0000
  N   N66       1.0  0.41756  0.52658  0.05395  1.0000
  H   H1049     1.0  0.31591  0.58927  0.02491  1.0000
  C   C661      1.0  0.37381  0.64632  0.07593  1.0000
  C   C662      1.0  0.36012  0.64322  0.08308  1.0000
  C   C663      1.0  0.35158  0.63965  0.07590  1.0000
  C   C664      1.0  0.35666  0.63912  0.06145  1.0000
  C   C665      1.0  0.37060  0.64170  0.05439  1.0000
  C   C666      1.0  0.37919  0.64522  0.06161  1.0000
  H   H1050     1.0  0.35587  0.64401  0.09415  1.0000
  H   H1051     1.0  0.34077  0.63792  0.08141  1.0000
  H   H1052     1.0  0.37461  0.64135  0.04319  1.0000
  H   H1053     1.0  0.38979  0.64742  0.05602  1.0000
  C   C667      1.0  0.38948  0.67347  0.00685  1.0000
  C   C668      1.0  0.38983  0.66820  0.02135  1.0000
  C   C669      1.0  0.40145  0.66911  0.02648  1.0000
  C   C670      1.0  0.41273  0.67535  0.01712  1.0000
  C   C671      1.0  0.41262  0.68022  0.00254  1.0000
  H   H1054     1.0  0.11493  0.51393  0.03976  1.0000
  H   H1055     1.0  0.38106  0.66350  0.02862  1.0000
  H   H1056     1.0  0.40168  0.66509  0.03766  1.0000
  H   H1057     1.0  0.43830  0.51987  0.04021  1.0000
  H   H1058     1.0  0.32046  0.54338  0.99490  1.0000
  S   S304      1.0  0.37183  0.53173  0.02027  1.0000
  H   H1059     1.0  0.07083  0.51231  0.20538  1.0000
  H   H1060     1.0  0.40366  0.63639  0.00868  1.0000
  C   C672      1.0  0.44219  0.58871  0.07940  1.0000
  C   C673      1.0  0.45639  0.59015  0.07223  1.0000
  C   C674      1.0  0.46087  0.60276  0.07096  1.0000
  C   C675      1.0  0.45109  0.61408  0.07667  1.0000
  C   C676      1.0  0.43694  0.61260  0.08406  1.0000
  C   C677      1.0  0.43254  0.59983  0.08560  1.0000
  H   H1061     1.0  0.46379  0.58170  0.06722  1.0000
  H   H1062     1.0  0.47169  0.60397  0.06496  1.0000
  H   H1063     1.0  0.42934  0.62136  0.08849  1.0000
  H   H1064     1.0  0.42151  0.59884  0.09102  1.0000
  H   H1065     1.0  0.11162  0.54869  0.28393  1.0000
  H   H1066     1.0  0.17468  0.50866  0.10665  1.0000
  H   H1067     1.0  0.37271  0.58661  0.00209  1.0000
  C   C678      1.0  0.44305  0.54376  0.01223  1.0000
  H   H1068     1.0  0.03725  0.56181  0.31696  1.0000
  H   H1069     1.0  0.43933  0.52056  0.05770  1.0000
  H   H1070     1.0  0.47625  0.65723  0.08608  1.0000
  H   H1071     1.0  0.07556  0.50470  0.17608  1.0000
  C   C679      1.0  0.36436  0.55185  0.07206  1.0000
  C   C680      1.0  0.37031  0.53927  0.08103  1.0000
  C   C681      1.0  0.37394  0.52601  0.07700  1.0000
  C   C682      1.0  0.37171  0.52536  0.06395  1.0000
  C   C683      1.0  0.36512  0.53786  0.05540  1.0000
  C   C684      1.0  0.36165  0.55110  0.05931  1.0000
  H   H1072     1.0  0.37223  0.53979  0.09102  1.0000
  H   H1073     1.0  0.37875  0.51633  0.08384  1.0000
  H   H1074     1.0  0.36255  0.53740  0.04584  1.0000
  H   H1075     1.0  0.35716  0.56076  0.05229  1.0000
  C   C685      1.0  0.45556  0.70158  0.11003  1.0000
  C   C686      1.0  0.45093  0.68883  0.11180  1.0000
  C   C687      1.0  0.44297  0.68764  0.10252  1.0000
  C   C688      1.0  0.43951  0.69923  0.09134  1.0000
  C   C689      1.0  0.44409  0.71200  0.08960  1.0000
  C   C690      1.0  0.45211  0.71317  0.09883  1.0000
  H   H1076     1.0  0.45345  0.67984  0.12048  1.0000
  H   H1077     1.0  0.43933  0.67784  0.10417  1.0000
  H   H1078     1.0  0.44138  0.72107  0.08106  1.0000
  H   H1079     1.0  0.45553  0.72306  0.09735  1.0000
  H   H1080     1.0  0.02424  0.58558  0.31081  1.0000
  H   H1081     1.0  0.50029  0.66063  0.06947  1.0000
  N   N67       1.0  0.12895  0.59701  0.21402  1.0000
  H   H1082     1.0  0.11601  0.52573  0.02235  1.0000
  N   N68       1.0  0.39254  0.59694  0.07156  1.0000
  C   C691      1.0  0.40221  0.60729  0.06539  1.0000
  C   C692      1.0  0.37745  0.60433  0.07029  1.0000
  C   C693      1.0  0.39288  0.59088  0.08682  1.0000
  C   C694      1.0  0.39764  0.58517  0.06376  1.0000
  H   H1083     1.0  0.41373  0.60195  0.06600  1.0000
  H   H1084     1.0  0.39881  0.61623  0.07115  1.0000
  H   H1085     1.0  0.40211  0.61217  0.05390  1.0000
  H   H1086     1.0  0.36992  0.59675  0.07458  1.0000
  H   H1087     1.0  0.37316  0.61304  0.07636  1.0000
  H   H1088     1.0  0.38563  0.58308  0.09179  1.0000
  H   H1089     1.0  0.38923  0.59949  0.09302  1.0000
  H   H1090     1.0  0.40411  0.58509  0.08815  1.0000
  H   H1091     1.0  0.39025  0.57746  0.06776  1.0000
  H   H1092     1.0  0.40875  0.57901  0.06509  1.0000
  H   H1093     1.0  0.39813  0.58942  0.05208  1.0000
  N   N69       1.0  0.24563  0.57999  0.11867  1.0000
  C   C695      1.0  0.25974  0.58447  0.11299  1.0000
  C   C696      1.0  0.23599  0.58714  0.10848  1.0000
  C   C697      1.0  0.23856  0.58409  0.13256  1.0000
  C   C698      1.0  0.24818  0.56422  0.12069  1.0000
  H   H1094     1.0  0.26707  0.57971  0.12065  1.0000
  H   H1095     1.0  0.25824  0.59638  0.11061  1.0000
  H   H1096     1.0  0.26566  0.58090  0.10288  1.0000
  H   H1097     1.0  0.22530  0.58384  0.11240  1.0000
  H   H1098     1.0  0.23371  0.59906  0.10676  1.0000
  H   H1099     1.0  0.24094  0.58434  0.09788  1.0000
  H   H1100     1.0  0.22781  0.58097  0.13704  1.0000
  H   H1101     1.0  0.23656  0.59592  0.13146  1.0000
  H   H1102     1.0  0.24539  0.57869  0.14061  1.0000
  H   H1103     1.0  0.23782  0.56044  0.12544  1.0000
  H   H1104     1.0  0.25580  0.55841  0.12791  1.0000
  H   H1105     1.0  0.25293  0.56076  0.11035  1.0000
  C   C699      1.0  0.13440  0.60835  0.21657  1.0000
  C   C700      1.0  0.03921  0.59250  0.28004  1.0000
  C   C701      1.0  0.13866  0.58287  0.21805  1.0000
  C   C702      1.0  0.41824  0.61638  0.00493  1.0000
  H   H1106     1.0  0.13933  0.58044  0.22945  1.0000
  H   H1107     1.0  0.41340  0.54646  0.06059  1.0000
  H   H1108     1.0  0.08997  0.50875  0.20527  1.0000
  H   H1109     1.0  0.50282  0.57755  0.06322  1.0000
  H   H1110     1.0  0.10624  0.60719  0.21952  1.0000
  H   H1111     1.0  0.44775  0.52138  0.01152  1.0000
  H   H1112     1.0  0.47040  0.73598  0.20815  1.0000
  H   H1113     1.0  0.49734  0.58787  0.08952  1.0000
  S   S305      1.0  0.48288  0.59962  0.02022  1.0000
  S   S306      1.0  0.37415  0.67346  0.00093  1.0000
  H   H1114     1.0  0.12117  0.49954  0.22135  1.0000
  H   H1115     1.0  0.48946  0.71272  0.20904  1.0000
  Fe  Fe150     1.0  0.39340  0.52845  0.00500  1.0000
  C   C703      1.0  0.41505  0.51186  0.06015  1.0000
  H   H1116     1.0  0.47145  0.60113  0.09555  1.0000
  H   H1117     1.0  0.06235  0.49989  0.19209  1.0000
  C   C704      1.0  0.41032  0.53327  0.04178  1.0000
  S   S307      1.0  0.14446  0.50352  0.19625  1.0000
  S   S308      1.0  0.38626  0.51628  0.99322  1.0000
  H   H1118     1.0  0.21238  0.50125  0.05710  1.0000
  H   H1119     1.0  0.41664  0.53053  0.07435  1.0000
  C   C705      1.0  0.03444  0.58271  0.27554  1.0000
  H   H1120     1.0  0.43570  0.56654  0.01120  1.0000
  H   H1121     1.0  0.48868  0.61068  0.07375  1.0000
  N   N70       1.0  0.34023  0.64961  0.00896  1.0000
  H   H1122     1.0  0.49417  0.73486  0.17200  1.0000
  H   H1123     1.0  0.34881  0.67148  0.06320  1.0000
  C   C706      1.0  0.48542  0.72873  0.17512  1.0000
  H   H1124     1.0  0.48816  0.67515  0.08785  1.0000
  C   C707      1.0  0.30891  0.59144  0.99258  1.0000
  H   H1125     1.0  0.34437  0.69404  0.07179  1.0000
  H   H1126     1.0  0.35082  0.65932  0.98800  1.0000
  N   N71       1.0  0.49024  0.60840  0.09539  1.0000
  H   H1127     1.0  0.46457  0.71402  0.20627  1.0000
  H   H1128     1.0  0.37172  0.60982  0.00879  1.0000
  C   C708      1.0  0.33688  0.63854  0.00382  1.0000
  H   H1129     1.0  0.36895  0.69112  0.02949  1.0000
  C   C709      1.0  0.45836  0.63221  0.02476  1.0000
  C   C710      1.0  0.34195  0.66229  0.99711  1.0000
  C   C711      1.0  0.14410  0.49660  0.98784  1.0000
  C   C712      1.0  0.01573  0.60892  0.27969  1.0000
  C   C713      1.0  0.49447  0.61633  0.10356  1.0000
  C   C714      1.0  0.36113  0.69816  0.03651  1.0000
  H   H1130     1.0  0.34705  0.55277  0.99177  1.0000
  H   H1131     1.0  0.11360  0.59558  0.23429  1.0000
  H   H1132     1.0  0.50105  0.67670  0.05575  1.0000
  H   H1133     1.0  0.36624  0.70719  0.03561  1.0000
  H   H1134     1.0  0.39959  0.53626  0.06882  1.0000
  C   C715      1.0  0.00908  0.52598  0.12668  1.0000
  H   H1135     1.0  0.13994  0.59987  0.19179  1.0000
  C   C716      1.0  0.49343  0.59838  0.03229  1.0000
  C   C717      1.0  0.17653  0.51580  0.17333  1.0000
  H   H1136     1.0  0.37682  0.60927  0.05893  1.0000
  C   C718      1.0  0.01090  0.59906  0.27540  1.0000
  C   C719      1.0  0.49406  0.66889  0.06193  1.0000
  Fe  Fe151     1.0  0.39475  0.49688  0.00917  1.0000
  C   C720      1.0  0.08204  0.50919  0.19894  1.0000
  H   H1137     1.0  0.39064  0.60403  0.00970  1.0000
  C   C721      1.0  0.12878  0.59991  0.19869  1.0000
  H   H1138     1.0  0.03574  0.66223  0.31809  1.0000
  H   H1139     1.0  0.13466  0.60649  0.22806  1.0000
  H   H1140     1.0  0.10985  0.58797  0.22173  1.0000
  S   S309      1.0  0.06866  0.64380  0.31715  1.0000
  H   H1141     1.0  0.43338  0.59803  0.99781  1.0000
  C   C722      1.0  0.47201  0.68703  0.05934  1.0000
  C   C723      1.0  0.10211  0.56230  0.30569  1.0000
  H   H1142     1.0  0.12477  0.59152  0.19638  1.0000
  H   H1143     1.0  0.09723  0.53574  0.11834  1.0000
  H   H1144     1.0  0.41224  0.54429  0.03662  1.0000
  C   C724      1.0  0.11400  0.59693  0.22275  1.0000
  H   H1145     1.0  0.12565  0.50436  0.10804  1.0000
  N   N72       1.0  0.02401  0.65297  0.30890  1.0000
  H   H1146     1.0  0.11267  0.56026  0.30885  1.0000
  S   S310      1.0  0.41427  0.60749  0.02286  1.0000
  H   H1147     1.0  0.40325  0.51200  0.06447  1.0000
  H   H1148     1.0  0.46483  0.62270  0.00064  1.0000
  N   N73       1.0  0.09874  0.54881  0.30528  1.0000
  C   C725      1.0  0.42810  0.60917  0.99469  1.0000
  H   H1149     1.0  0.46942  0.65931  0.07050  1.0000
  C   C726      1.0  0.44042  0.53177  0.00939  1.0000
  C   C727      1.0  0.32875  0.53831  0.98696  1.0000
  H   H1150     1.0  0.19555  0.58433  0.15466  1.0000
  H   H1151     1.0  0.12473  0.53160  0.08446  1.0000
  H   H1152     1.0  0.38464  0.62072  0.99811  1.0000
  H   H1153     1.0  0.08522  0.55934  0.29003  1.0000
  H   H1154     1.0  0.18485  0.52188  0.17248  1.0000
  Fe  Fe152     1.0  0.07383  0.62367  0.30850  1.0000
  C   C728      1.0  0.49279  0.71585  0.19718  1.0000
  H   H1155     1.0  0.45673  0.62193  0.03243  1.0000
  C   C729      1.0  0.41113  0.63068  0.00077  1.0000
  H   H1156     1.0  0.29790  0.58453  0.01438  1.0000
  H   H1157     1.0  0.43109  0.62812  0.02858  1.0000
  N   N74       1.0  0.05760  0.56674  0.23143  1.0000
  C   C730      1.0  0.05833  0.57899  0.23671  1.0000
  C   C731      1.0  0.04417  0.56159  0.23957  1.0000
  C   C732      1.0  0.07053  0.55498  0.23341  1.0000
  C   C733      1.0  0.05737  0.57140  0.21604  1.0000
  H   H1158     1.0  0.06833  0.58316  0.23085  1.0000
  H   H1159     1.0  0.05849  0.57580  0.24830  1.0000
  H   H1160     1.0  0.04868  0.58803  0.23545  1.0000
  H   H1161     1.0  0.04316  0.55237  0.23590  1.0000
  H   H1162     1.0  0.04394  0.55803  0.25125  1.0000
  H   H1163     1.0  0.03419  0.57024  0.23841  1.0000
  H   H1164     1.0  0.07039  0.54556  0.22952  1.0000
  H   H1165     1.0  0.07119  0.55118  0.24488  1.0000
  H   H1166     1.0  0.08084  0.55851  0.22738  1.0000
  H   H1167     1.0  0.05694  0.56239  0.21167  1.0000
  H   H1168     1.0  0.06739  0.57529  0.20956  1.0000
  H   H1169     1.0  0.04777  0.58026  0.21407  1.0000
  N   N75       1.0  0.31598  0.54780  0.04105  1.0000
  C   C734      1.0  0.30266  0.55922  0.04335  1.0000
  C   C735      1.0  0.32703  0.55362  0.02893  1.0000
  C   C736      1.0  0.31234  0.53575  0.03774  1.0000
  C   C737      1.0  0.32189  0.54253  0.05414  1.0000
  H   H1170     1.0  0.29411  0.55521  0.05247  1.0000
  H   H1171     1.0  0.29782  0.56332  0.03374  1.0000
  H   H1172     1.0  0.30497  0.56856  0.04579  1.0000
  H   H1173     1.0  0.33714  0.54519  0.02683  1.0000
  H   H1174     1.0  0.32289  0.55771  0.01889  1.0000
  H   H1175     1.0  0.33015  0.56266  0.03106  1.0000
  H   H1176     1.0  0.32209  0.52679  0.03624  1.0000
  H   H1177     1.0  0.30830  0.53922  0.02765  1.0000
  H   H1178     1.0  0.30376  0.53130  0.04647  1.0000
  H   H1179     1.0  0.33203  0.53398  0.05274  1.0000
  H   H1180     1.0  0.31386  0.53795  0.06345  1.0000
  H   H1181     1.0  0.32463  0.55135  0.05705  1.0000
  N   N76       1.0  0.10909  0.52316  0.10264  1.0000
  C   C738      1.0  0.09772  0.51487  0.10571  1.0000
  C   C739      1.0  0.12036  0.51499  0.11090  1.0000
  C   C740      1.0  0.10242  0.53717  0.10672  1.0000
  C   C741      1.0  0.11589  0.52559  0.08719  1.0000
  C   C742      1.0  0.43368  0.55720  0.00922  1.0000
  H   H1182     1.0  0.33037  0.66235  0.02483  1.0000
  H   H1183     1.0  0.14569  0.60867  0.21015  1.0000
  H   H1184     1.0  0.12922  0.52085  0.10870  1.0000
  H   H1185     1.0  0.11560  0.51303  0.12262  1.0000
  H   H1186     1.0  0.21840  0.50279  0.07198  1.0000
  H   H1187     1.0  0.47829  0.69543  0.05316  1.0000
  C   C743      1.0  0.34049  0.52761  0.99099  1.0000
  C   C744      1.0  0.03543  0.65297  0.29557  1.0000
  H   H1188     1.0  0.10134  0.49979  0.17642  1.0000
  H   H1189     1.0  0.48993  0.71895  0.17056  1.0000
  H   H1190     1.0  0.47635  0.73547  0.16988  1.0000
  C   C745      1.0  0.41864  0.54656  0.00130  1.0000
  H   H1191     1.0  0.20384  0.50202  0.16223  1.0000
  H   H1192     1.0  0.09222  0.51293  0.11724  1.0000
  H   H1193     1.0  0.12672  0.50769  0.02441  1.0000
  H   H1194     1.0  0.08898  0.52995  0.02627  1.0000
  H   H1195     1.0  0.33694  0.70459  0.05657  1.0000
  S   S311      1.0  0.50022  0.71737  0.11569  1.0000
  H   H1196     1.0  0.37672  0.69286  0.05622  1.0000
  C   C746      1.0  0.37113  0.68423  0.05699  1.0000
  C   C747      1.0  0.35392  0.64367  0.01415  1.0000
  C   C748      1.0  0.02023  0.58592  0.27335  1.0000
  Fe  Fe153     1.0  0.15153  0.49620  0.07381  1.0000
  C   C749      1.0  0.20984  0.49954  0.06896  1.0000
  C   C750      1.0  0.40101  0.67928  0.99741  1.0000
  H   H1197     1.0  0.35326  0.63368  0.02263  1.0000
  H   H1198     1.0  0.41897  0.50517  0.05196  1.0000
  H   H1199     1.0  0.35120  0.70273  0.03199  1.0000
  H   H1200     1.0  0.10240  0.50420  0.10281  1.0000
  S   S312      1.0  0.15987  0.49839  0.02066  1.0000
  H   H1201     1.0  0.08188  0.54213  0.30041  1.0000
  C   C751      1.0  0.11050  0.54166  0.29490  1.0000
  Fe  Fe154     1.0  0.05632  0.61144  0.29550  1.0000
  S   S313      1.0  0.01453  0.53328  0.13798  1.0000
  H   H1202     1.0  0.45005  0.65857  0.00978  1.0000
  C   C752      1.0  0.41154  0.53533  0.06493  1.0000
  H   H1203     1.0  0.08045  0.51494  0.03043  1.0000
  Fe  Fe155     1.0  0.04460  0.49556  0.16899  1.0000
  S   S314      1.0  0.03311  0.49492  0.15278  1.0000
  H   H1204     1.0  0.45914  0.72383  0.18980  1.0000
  H   H1205     1.0  0.49262  0.66343  0.05423  1.0000
  H   H1206     1.0  0.48497  0.62733  0.07917  1.0000
  C   C753      1.0  0.08974  0.51843  0.03182  1.0000
  C   C754      1.0  0.49187  0.61625  0.08028  1.0000
  S   S315      1.0  0.09096  0.60309  0.31082  1.0000
  H   H1207     1.0  0.10831  0.53146  0.29425  1.0000
  C   C755      1.0  0.08892  0.49791  0.08349  1.0000
  H   H1208     1.0  0.39832  0.53405  0.04521  1.0000
  H   H1209     1.0  0.41460  0.56907  0.00118  1.0000
  H   H1210     1.0  0.35199  0.70889  0.06031  1.0000
  N   N77       1.0  0.47987  0.67607  0.06968  1.0000
  H   H1211     1.0  0.47316  0.60152  0.11288  1.0000
  S   S316      1.0  0.34232  0.52385  0.00866  1.0000
  N   N78       1.0  0.44930  0.63630  0.01402  1.0000
  C   C756      1.0  0.45303  0.62487  0.00594  1.0000
  H   H1212     1.0  0.48736  0.62730  0.10328  1.0000
  H   H1213     1.0  0.39082  0.58142  0.00490  1.0000
  H   H1214     1.0  0.42652  0.64203  0.01355  1.0000
  C   C757      1.0  0.10551  0.51049  0.01079  1.0000
  H   H1215     1.0  0.50184  0.72159  0.19456  1.0000
  C   C758      1.0  0.42816  0.53315  0.00402  1.0000
  H   H1216     1.0  0.47240  0.70712  0.19025  1.0000
  C   C759      1.0  0.01798  0.63999  0.31248  1.0000
  C   C760      1.0  0.01829  0.51418  0.12134  1.0000
  C   C761      1.0  0.01347  0.50748  0.11344  1.0000
  H   H1217     1.0  0.10508  0.52177  0.00455  1.0000
  C   C762      1.0  0.47489  0.60719  0.10143  1.0000
  H   H1218     1.0  0.07566  0.55744  0.30842  1.0000
  H   H1219     1.0  0.40919  0.59618  0.98909  1.0000
  C   C763      1.0  0.08477  0.55208  0.30082  1.0000
  C   C764      1.0  0.45208  0.64987  0.00399  1.0000
  H   H1220     1.0  0.08818  0.51778  0.04347  1.0000
  H   H1221     1.0  0.46360  0.64852  0.99785  1.0000
  C   C765      1.0  0.11589  0.51443  0.02827  1.0000
  Fe  Fe156     1.0  0.12319  0.49700  0.06654  1.0000
  C   C766      1.0  0.48241  0.68310  0.07975  1.0000
  H   H1222     1.0  0.02075  0.49846  0.10925  1.0000
  C   C767      1.0  0.43371  0.63831  0.02135  1.0000
  H   H1223     1.0  0.34475  0.67077  0.00052  1.0000
  H   H1224     1.0  0.32694  0.64278  0.99928  1.0000
  H   H1225     1.0  0.10314  0.49308  0.04569  1.0000
  H   H1226     1.0  0.45569  0.64056  0.03114  1.0000
  C   C768      1.0  0.49362  0.58732  0.04459  1.0000
  H   H1227     1.0  0.38777  0.58058  0.98833  1.0000
  C   C769      1.0  0.18329  0.51723  0.14786  1.0000
  H   H1228     1.0  0.17323  0.52558  0.14623  1.0000
  S   S317      1.0  0.40337  0.50897  0.01979  1.0000
  H   H1229     1.0  0.37371  0.54762  0.98761  1.0000
  H   H1230     1.0  0.15878  0.50760  0.16267  1.0000
  H   H1231     1.0  0.46121  0.69261  0.06487  1.0000
  H   H1232     1.0  0.49844  0.58736  0.10738  1.0000
  C   C770      1.0  0.19471  0.49671  0.16373  1.0000
  H   H1233     1.0  0.48915  0.69124  0.07409  1.0000
  Fe  Fe157     1.0  0.50001  0.72051  0.13712  1.0000
  C   C771      1.0  0.42165  0.55863  0.00355  1.0000
  H   H1234     1.0  0.16601  0.52372  0.17260  1.0000
  C   C772      1.0  0.43340  0.52589  0.04893  1.0000
  C   C773      1.0  0.47102  0.66527  0.07769  1.0000
  C   C774      1.0  0.35102  0.67817  0.05214  1.0000
  H   H1235     1.0  0.32678  0.64473  0.03001  1.0000
  C   C775      1.0  0.46861  0.71712  0.19448  1.0000
  H   H1236     1.0  0.45078  0.61455  0.01310  1.0000
  H   H1237     1.0  0.34597  0.63463  0.99525  1.0000
  H   H1238     1.0  0.35835  0.67087  0.04514  1.0000
  H   H1239     1.0  0.02662  0.63002  0.31364  1.0000
  H   H1240     1.0  0.18665  0.51128  0.13908  1.0000
  H   H1241     1.0  0.34488  0.57061  0.99386  1.0000
  C   C776      1.0  0.34725  0.69986  0.06042  1.0000
  S   S318      1.0  0.01423  0.57337  0.26820  1.0000
  C   C777      1.0  0.47489  0.73830  0.19640  1.0000
  C   C778      1.0  0.15131  0.50047  0.99610  1.0000
  H   H1242     1.0  0.42071  0.50631  0.06908  1.0000
  S   S319      1.0  0.21848  0.49837  0.12902  1.0000
  H   H1243     1.0  0.03107  0.65253  0.28655  1.0000
  N   N79       1.0  0.08430  0.49532  0.19498  1.0000
  H   H1244     1.0  0.49740  0.70583  0.19301  1.0000
  C   C779      1.0  0.07383  0.49656  0.18630  1.0000
  H   H1245     1.0  0.33497  0.62903  0.01261  1.0000
  H   H1246     1.0  0.02919  0.51020  0.12324  1.0000
  H   H1247     1.0  0.01605  0.60313  0.31418  1.0000
  H   H1248     1.0  0.19939  0.50711  0.07210  1.0000
  H   H1249     1.0  0.45996  0.67044  0.08308  1.0000
  C   C780      1.0  0.49977  0.59385  0.09621  1.0000
  Fe  Fe158     1.0  0.49549  0.74149  0.10933  1.0000
  H   H1250     1.0  0.10292  0.56990  0.29506  1.0000
  H   H1251     1.0  0.49364  0.61061  0.11498  1.0000
  C   C781      1.0  0.16943  0.49989  0.16339  1.0000
  H   H1252     1.0  0.09356  0.56790  0.31354  1.0000
  N   N80       1.0  0.38604  0.60198  0.99058  1.0000
  H   H1253     1.0  0.05209  0.57749  0.31857  1.0000
  S   S320      1.0  0.05518  0.61245  0.31790  1.0000
  H   H1254     1.0  0.09979  0.63522  0.31752  1.0000
  Fe  Fe159     1.0  0.07213  0.59211  0.31854  1.0000
  C   C782      1.0  0.01698  0.59143  0.31912  1.0000
  H   H1255     1.0  0.50191  0.61704  0.01986  1.0000
  C   C783      1.0  0.09751  0.53924  0.31970  1.0000
  C   C784      1.0  0.50201  0.60848  0.02938  1.0000
  H   H1256     1.0  0.17225  0.49375  0.15484  1.0000
  C   C785      1.0  0.50255  0.58624  0.05384  1.0000
  H   H1257     1.0  0.09484  0.52898  0.31988  1.0000
  H   H1258     1.0  0.50336  0.61709  0.07538  1.0000
  H   H1259     1.0  0.37163  0.56466  0.99147  1.0000
  C   C786      1.0  0.10446  0.49426  0.03398  1.0000
  H   H1260     1.0  0.05930  0.63293  0.42379  1.0000
  H   H1261     1.0  0.06210  0.65046  0.41370  1.0000
  C   C787      1.0  0.01239  0.50686  0.61118  1.0000
  Fe  Fe160     1.0  0.06718  0.54235  0.62885  1.0000
  H   H1262     1.0  0.16050  0.72181  0.54496  1.0000
  H   H1263     1.0  0.05877  0.61848  0.36582  1.0000
  H   H1264     1.0  0.03631  0.56214  0.38653  1.0000
  C   C788      1.0  0.12985  0.67813  0.40531  1.0000
  H   H1265     1.0  0.10522  0.63075  0.64988  1.0000
  H   H1266     1.0  0.09221  0.59351  0.56455  1.0000
  C   C789      1.0  0.02841  0.62497  0.64724  1.0000
  C   C790      1.0  0.11849  0.73201  0.40656  1.0000
  H   H1267     1.0  0.05387  0.64166  0.38322  1.0000
  H   H1268     1.0  0.08941  0.56500  0.60586  1.0000
  H   H1269     1.0  0.14688  0.68732  0.63643  1.0000
  S   S321      1.0  0.13002  0.72199  0.43094  1.0000
  C   C791      1.0  0.11564  0.59015  0.64904  1.0000
  Fe  Fe161     1.0  0.09628  0.67199  0.36836  1.0000
  C   C792      1.0  0.08072  0.66258  0.34201  1.0000
  C   C793      1.0  0.01732  0.55127  0.63548  1.0000
  H   H1270     1.0  0.06853  0.59430  0.58207  1.0000
  Fe  Fe162     1.0  0.08159  0.66293  0.61289  1.0000
  S   S322      1.0  0.09679  0.64127  0.61679  1.0000
  S   S323      1.0  0.05762  0.66527  0.62318  1.0000
  Fe  Fe163     1.0  0.10571  0.67759  0.59281  1.0000
  S   S324      1.0  0.12280  0.65710  0.59473  1.0000
  S   S325      1.0  0.10894  0.69965  0.57978  1.0000
  Fe  Fe164     1.0  0.10585  0.64667  0.59309  1.0000
  S   S326      1.0  0.11019  0.62918  0.58105  1.0000
  Fe  Fe165     1.0  0.11223  0.65348  0.61821  1.0000
  S   S327      1.0  0.08956  0.66747  0.58911  1.0000
  S   S328      1.0  0.09627  0.67479  0.61642  1.0000
  Fe  Fe166     1.0  0.06888  0.67876  0.39075  1.0000
  S   S329      1.0  0.08455  0.65815  0.38732  1.0000
  S   S330      1.0  0.04528  0.67724  0.39750  1.0000
  Fe  Fe167     1.0  0.09301  0.69474  0.38559  1.0000
  S   S331      1.0  0.11049  0.67540  0.38086  1.0000
  S   S332      1.0  0.09927  0.71531  0.38545  1.0000
  H   H1271     1.0  0.15632  0.68421  0.37530  1.0000
  Fe  Fe168     1.0  0.09716  0.66325  0.40003  1.0000
  S   S333      1.0  0.10830  0.64805  0.41700  1.0000
  S   S334      1.0  0.08040  0.68261  0.40547  1.0000
  H   H1272     1.0  0.10679  0.56468  0.59341  1.0000
  C   C794      1.0  0.03792  0.56911  0.37565  1.0000
  H   H1273     1.0  0.03617  0.62793  0.63692  1.0000
  S   S335      1.0  0.02763  0.53762  0.33646  1.0000
  C   C795      1.0  0.06285  0.64063  0.37356  1.0000
  C   C796      1.0  0.08438  0.62533  0.36230  1.0000
  N   N81       1.0  0.13045  0.68974  0.62496  1.0000
  H   H1274     1.0  0.00740  0.56180  0.41815  1.0000
  Fe  Fe169     1.0  0.07938  0.53007  0.60257  1.0000
  S   S336      1.0  0.09746  0.53053  0.58301  1.0000
  C   C797      1.0  0.06321  0.61571  0.37562  1.0000
  Fe  Fe170     1.0  0.07655  0.58355  0.43473  1.0000
  S   S337      1.0  0.05712  0.59859  0.44450  1.0000
  S   S338      1.0  0.09827  0.58464  0.43685  1.0000
  Fe  Fe171     1.0  0.05841  0.56837  0.42621  1.0000
  S   S339      1.0  0.03731  0.58196  0.43551  1.0000
  S   S340      1.0  0.06009  0.55058  0.41556  1.0000
  Fe  Fe172     1.0  0.04877  0.60016  0.42530  1.0000
  Fe  Fe173     1.0  0.04758  0.57903  0.45376  1.0000
  S   S341      1.0  0.03592  0.57349  0.47664  1.0000
  S   S342      1.0  0.06922  0.58686  0.41449  1.0000
  S   S343      1.0  0.06780  0.56374  0.44553  1.0000
  Fe  Fe174     1.0  0.06285  0.62905  0.53430  1.0000
  S   S344      1.0  0.06396  0.60915  0.55177  1.0000
  S   S345      1.0  0.07343  0.64671  0.53356  1.0000
  Fe  Fe175     1.0  0.04300  0.61975  0.52130  1.0000
  S   S346      1.0  0.04232  0.59925  0.53810  1.0000
  S   S347      1.0  0.03283  0.62595  0.50217  1.0000
  Fe  Fe176     1.0  0.03991  0.61300  0.55346  1.0000
  Fe  Fe177     1.0  0.06631  0.59776  0.53451  1.0000
  S   S348      1.0  0.08404  0.57897  0.52915  1.0000
  S   S349      1.0  0.03861  0.63373  0.53693  1.0000
  S   S350      1.0  0.06716  0.61742  0.51684  1.0000
  C   C798      1.0  0.03326  0.58817  0.48431  1.0000
  C   C799      1.0  0.03437  0.58581  0.49848  1.0000
  C   C800      1.0  0.03406  0.59739  0.50412  1.0000
  C   C801      1.0  0.03223  0.61140  0.49573  1.0000
  C   C802      1.0  0.03036  0.61382  0.48179  1.0000
  C   C803      1.0  0.03101  0.60222  0.47603  1.0000
  H   H1275     1.0  0.03592  0.57498  0.50499  1.0000
  H   H1276     1.0  0.03515  0.59543  0.51496  1.0000
  H   H1277     1.0  0.02856  0.62466  0.47541  1.0000
  H   H1278     1.0  0.02964  0.60415  0.46522  1.0000
  C   C804      1.0  0.09310  0.54349  0.56793  1.0000
  C   C805      1.0  0.10404  0.54540  0.55551  1.0000
  C   C806      1.0  0.10106  0.55616  0.54354  1.0000
  C   C807      1.0  0.08723  0.56525  0.54405  1.0000
  C   C808      1.0  0.07621  0.56336  0.55642  1.0000
  C   C809      1.0  0.07909  0.55230  0.56829  1.0000
  H   H1279     1.0  0.11485  0.53856  0.55517  1.0000
  H   H1280     1.0  0.10958  0.55759  0.53396  1.0000
  H   H1281     1.0  0.06542  0.57023  0.55674  1.0000
  H   H1282     1.0  0.07046  0.55052  0.57761  1.0000
  H   H1283     1.0  0.06260  0.59504  0.47654  1.0000
  C   C810      1.0  0.01595  0.61121  0.41328  1.0000
  C   C811      1.0  0.03050  0.55690  0.41726  1.0000
  C   C812      1.0  0.04400  0.54785  0.41323  1.0000
  C   C813      1.0  0.04475  0.53659  0.40696  1.0000
  C   C814      1.0  0.03209  0.53456  0.40452  1.0000
  H   H1284     1.0  0.09575  0.56636  0.48105  1.0000
  H   H1285     1.0  0.02981  0.56574  0.42181  1.0000
  H   H1286     1.0  0.05516  0.52952  0.40384  1.0000
  C   C815      1.0  0.02103  0.53212  0.45513  1.0000
  C   C816      1.0  0.03982  0.54729  0.33703  1.0000
  H   H1287     1.0  0.13583  0.73740  0.57012  1.0000
  C   C817      1.0  0.10542  0.63046  0.42205  1.0000
  C   C818      1.0  0.09456  0.62693  0.41788  1.0000
  C   C819      1.0  0.09218  0.61287  0.42253  1.0000
  C   C820      1.0  0.10094  0.60227  0.43101  1.0000
  C   C821      1.0  0.11184  0.60579  0.43506  1.0000
  C   C822      1.0  0.11397  0.61989  0.43071  1.0000
  H   H1288     1.0  0.08790  0.63505  0.41128  1.0000
  H   H1289     1.0  0.08373  0.61015  0.41941  1.0000
  H   H1290     1.0  0.11863  0.59761  0.44160  1.0000
  H   H1291     1.0  0.12237  0.62257  0.43396  1.0000
  C   C823      1.0  0.03837  0.67518  0.38389  1.0000
  C   C824      1.0  0.02558  0.66998  0.38746  1.0000
  H   H1292     1.0  0.01703  0.64918  0.63016  1.0000
  C   C825      1.0  0.02622  0.67310  0.36227  1.0000
  C   C826      1.0  0.03909  0.67815  0.35872  1.0000
  C   C827      1.0  0.04522  0.67907  0.36950  1.0000
  H   H1293     1.0  0.04425  0.68157  0.34761  1.0000
  H   H1294     1.0  0.05506  0.68314  0.36664  1.0000
  C   C828      1.0  0.10139  0.63425  0.56669  1.0000
  C   C829      1.0  0.09945  0.62360  0.56112  1.0000
  C   C830      1.0  0.09123  0.62736  0.55062  1.0000
  C   C831      1.0  0.08512  0.64181  0.54548  1.0000
  C   C832      1.0  0.08787  0.65251  0.55037  1.0000
  C   C833      1.0  0.09595  0.64873  0.56097  1.0000
  H   H1295     1.0  0.10432  0.61246  0.56495  1.0000
  H   H1296     1.0  0.08987  0.61912  0.54628  1.0000
  H   H1297     1.0  0.08357  0.66374  0.54611  1.0000
  H   H1298     1.0  0.09816  0.65704  0.56453  1.0000
  C   C834      1.0  0.04644  0.67686  0.61172  1.0000
  C   C835      1.0  0.05225  0.68573  0.59899  1.0000
  C   C836      1.0  0.03159  0.67672  0.61507  1.0000
  C   C837      1.0  0.11933  0.72167  0.41932  1.0000
  C   C838      1.0  0.11268  0.70997  0.42227  1.0000
  C   C839      1.0  0.10569  0.70835  0.41241  1.0000
  C   C840      1.0  0.10569  0.71818  0.39923  1.0000
  H   H1299     1.0  0.04990  0.56813  0.37147  1.0000
  H   H1300     1.0  0.13424  0.60299  0.62747  1.0000
  H   H1301     1.0  0.11316  0.70197  0.43216  1.0000
  H   H1302     1.0  0.10064  0.69928  0.41484  1.0000
  C   C841      1.0  0.07262  0.65838  0.33484  1.0000
  C   C842      1.0  0.12164  0.70138  0.61590  1.0000
  N   N82       1.0  0.08078  0.58546  0.48666  1.0000
  C   C843      1.0  0.14936  0.71641  0.57583  1.0000
  H   H1303     1.0  0.02633  0.55665  0.63077  1.0000
  C   C844      1.0  0.12414  0.72061  0.57423  1.0000
  C   C845      1.0  0.12466  0.70577  0.57831  1.0000
  C   C846      1.0  0.13762  0.69622  0.58098  1.0000
  C   C847      1.0  0.14993  0.70155  0.57978  1.0000
  H   H1304     1.0  0.00563  0.73202  0.36989  1.0000
  S   S351      1.0  0.01830  0.67305  0.34846  1.0000
  H   H1305     1.0  0.13818  0.68475  0.58389  1.0000
  H   H1306     1.0  0.15997  0.69414  0.58183  1.0000
  H   H1307     1.0  0.02689  0.67037  0.62511  1.0000
  C   C848      1.0  0.11177  0.73021  0.39655  1.0000
  H   H1308     1.0  0.14753  0.68350  0.60742  1.0000
  S   S352      1.0  0.08496  0.52326  0.62419  1.0000
  S   S353      1.0  0.07013  0.57424  0.33814  1.0000
  H   H1309     1.0  0.13411  0.60795  0.64346  1.0000
  C   C849      1.0  0.15593  0.67131  0.40294  1.0000
  S   S354      1.0  0.10640  0.66226  0.34882  1.0000
  H   H1310     1.0  0.09522  0.57449  0.56634  1.0000
  H   H1311     1.0  0.09900  0.58076  0.49654  1.0000
  H   H1312     1.0  0.01182  0.57847  0.39221  1.0000
  S   S355      1.0  0.16482  0.72274  0.57486  1.0000
  H   H1313     1.0  0.03319  0.58333  0.39663  1.0000
  H   H1314     1.0  0.14542  0.67085  0.38075  1.0000
  H   H1315     1.0  0.05379  0.61593  0.38495  1.0000
  S   S356      1.0  0.06714  0.56000  0.63889  1.0000
  C   C850      1.0  0.10530  0.54451  0.65205  1.0000
  C   C851      1.0  0.01862  0.54369  0.40848  1.0000
  N   N83       1.0  0.15241  0.71621  0.52971  1.0000
  C   C852      1.0  0.16317  0.72172  0.53337  1.0000
  C   C853      1.0  0.15235  0.70131  0.53801  1.0000
  H   H1316     1.0  0.12062  0.68545  0.40069  1.0000
  H   H1317     1.0  0.16357  0.73290  0.52723  1.0000
  H   H1318     1.0  0.01552  0.57728  0.60824  1.0000
  H   H1319     1.0  0.02849  0.63859  0.38793  1.0000
  H   H1320     1.0  0.12764  0.67889  0.41667  1.0000
  H   H1321     1.0  0.02029  0.66683  0.39858  1.0000
  H   H1322     1.0  0.12361  0.74104  0.40409  1.0000
  H   H1323     1.0  0.11420  0.70945  0.62198  1.0000
  H   H1324     1.0  0.00557  0.71841  0.33868  1.0000
  H   H1325     1.0  0.11425  0.64300  0.32976  1.0000
  H   H1326     1.0  0.07093  0.57553  0.58292  1.0000
  C   C854      1.0  0.07941  0.64847  0.32601  1.0000
  H   H1327     1.0  0.07925  0.56782  0.50502  1.0000
  H   H1328     1.0  0.14571  0.66957  0.62336  1.0000
  H   H1329     1.0  0.10854  0.58177  0.56949  1.0000
  S   S357      1.0  0.07988  0.69267  0.37102  1.0000
  H   H1330     1.0  0.15452  0.69956  0.39210  1.0000
  C   C855      1.0  0.09442  0.64278  0.32437  1.0000
  H   H1331     1.0  0.06932  0.64872  0.37213  1.0000
  S   S358      1.0  0.03960  0.62152  0.41243  1.0000
  C   C856      1.0  0.07784  0.62181  0.38799  1.0000
  Fe  Fe178     1.0  0.04696  0.53579  0.61450  1.0000
  C   C857      1.0  0.04681  0.54356  0.34843  1.0000
  H   H1332     1.0  0.00975  0.66485  0.37957  1.0000
  C   C858      1.0  0.01348  0.54382  0.62760  1.0000
  H   H1333     1.0  0.13436  0.72539  0.54488  1.0000
  H   H1334     1.0  0.09830  0.59638  0.48200  1.0000
  H   H1335     1.0  0.09153  0.61437  0.36288  1.0000
  H   H1336     1.0  0.06977  0.60447  0.37671  1.0000
  C   C859      1.0  0.05637  0.55170  0.34864  1.0000
  H   H1337     1.0  0.04497  0.59279  0.35691  1.0000
  H   H1338     1.0  0.02243  0.61754  0.64593  1.0000
  H   H1339     1.0  0.02047  0.49947  0.63640  1.0000
  C   C860      1.0  0.09152  0.59013  0.49122  1.0000
  H   H1340     1.0  0.06890  0.62264  0.39768  1.0000
  C   C861      1.0  0.05832  0.56398  0.33785  1.0000
  H   H1341     1.0  0.07539  0.67027  0.34871  1.0000
  H   H1342     1.0  0.08438  0.61056  0.38959  1.0000
  H   H1343     1.0  0.01282  0.58407  0.62391  1.0000
  N   N84       1.0  0.02601  0.49705  0.61459  1.0000
  C   C862      1.0  0.09484  0.56668  0.59427  1.0000
  H   H1344     1.0  0.03949  0.51010  0.59830  1.0000
  H   H1345     1.0  0.16743  0.70972  0.51109  1.0000
  C   C863      1.0  0.09178  0.59214  0.59225  1.0000
  S   S359      1.0  0.02628  0.51654  0.37748  1.0000
  H   H1346     1.0  0.01136  0.68449  0.60805  1.0000
  H   H1347     1.0  0.02251  0.58882  0.32814  1.0000
  C   C864      1.0  0.01022  0.58680  0.61317  1.0000
  H   H1348     1.0  0.14847  0.71241  0.51104  1.0000
  H   H1349     1.0  0.07711  0.60460  0.47025  1.0000
  H   H1350     1.0  0.04271  0.55043  0.46086  1.0000
  N   N85       1.0  0.01825  0.63785  0.65176  1.0000
  H   H1351     1.0  0.14939  0.70082  0.54974  1.0000
  C   C865      1.0  0.14577  0.68160  0.38188  1.0000
  S   S360      1.0  0.12752  0.64751  0.63313  1.0000
  H   H1352     1.0  0.06574  0.58393  0.50713  1.0000
  H   H1353     1.0  0.03087  0.51181  0.62390  1.0000
  C   C866      1.0  0.13746  0.57432  0.63911  1.0000
  H   H1354     1.0  0.14756  0.70115  0.62029  1.0000
  H   H1355     1.0  0.17438  0.71504  0.53086  1.0000
  H   H1356     1.0  0.06103  0.66285  0.33610  1.0000
  H   H1357     1.0  0.15646  0.72758  0.50768  1.0000
  H   H1358     1.0  0.02926  0.52592  0.48024  1.0000
  H   H1359     1.0  0.10785  0.53651  0.32345  1.0000
  H   H1360     1.0  0.09134  0.63284  0.36145  1.0000
  H   H1361     1.0  0.04813  0.70021  0.57920  1.0000
  H   H1362     1.0  0.08045  0.62839  0.35220  1.0000
  C   C867      1.0  0.02882  0.69293  0.59227  1.0000
  H   H1363     1.0  0.08510  0.62887  0.38748  1.0000
  H   H1364     1.0  0.08078  0.57298  0.47213  1.0000
  H   H1365     1.0  0.06212  0.54852  0.35723  1.0000
  C   C868      1.0  0.13772  0.72538  0.53328  1.0000
  S   S361      1.0  0.06289  0.55005  0.60684  1.0000
  Fe  Fe179     1.0  0.06697  0.51119  0.63030  1.0000
  S   S362      1.0  0.01830  0.70141  0.57938  1.0000
  H   H1366     1.0  0.02804  0.52114  0.45742  1.0000
  S   S363      1.0  0.00597  0.50905  0.36040  1.0000
  H   H1367     1.0  0.13358  0.70407  0.63594  1.0000
  N   N86       1.0  0.05266  0.64928  0.43608  1.0000
  C   C869      1.0  0.05468  0.64470  0.42266  1.0000
  C   C870      1.0  0.04633  0.66491  0.43404  1.0000
  C   C871      1.0  0.06692  0.64615  0.43996  1.0000
  C   C872      1.0  0.04268  0.64139  0.44765  1.0000
  H   H1368     1.0  0.01014  0.62800  0.55273  1.0000
  H   H1369     1.0  0.11330  0.67811  0.63448  1.0000
  H   H1370     1.0  0.04414  0.64708  0.41931  1.0000
  H   H1371     1.0  0.04440  0.66877  0.44400  1.0000
  H   H1372     1.0  0.05367  0.67118  0.42547  1.0000
  H   H1373     1.0  0.03574  0.66771  0.43070  1.0000
  H   H1374     1.0  0.06583  0.64961  0.44997  1.0000
  H   H1375     1.0  0.07478  0.65184  0.43138  1.0000
  H   H1376     1.0  0.07198  0.63444  0.44167  1.0000
  H   H1377     1.0  0.04082  0.64462  0.45796  1.0000
  H   H1378     1.0  0.04715  0.62956  0.44948  1.0000
  H   H1379     1.0  0.03186  0.64342  0.44497  1.0000
  H   H1380     1.0  0.08727  0.60328  0.58675  1.0000
  H   H1381     1.0  0.08661  0.59096  0.60386  1.0000
  C   C873      1.0  0.09578  0.65713  0.34014  1.0000
  C   C874      1.0  0.03975  0.54323  0.45586  1.0000
  H   H1382     1.0  0.08872  0.54445  0.32774  1.0000
  H   H1383     1.0  0.02732  0.60457  0.36086  1.0000
  C   C875      1.0  0.03557  0.58955  0.38539  1.0000
  H   H1384     1.0  0.10366  0.59123  0.59100  1.0000
  C   C876      1.0  0.01958  0.66886  0.37667  1.0000
  H   H1385     1.0  0.12959  0.66698  0.40528  1.0000
  S   S364      1.0  0.02428  0.54201  0.61076  1.0000
  H   H1386     1.0  0.15613  0.66019  0.40239  1.0000
  H   H1387     1.0  0.03480  0.65036  0.64370  1.0000
  C   C877      1.0  0.15637  0.71646  0.51422  1.0000
  C   C878      1.0  0.08129  0.55696  0.64767  1.0000
  H   H1388     1.0  0.00944  0.53116  0.45911  1.0000
  H   H1389     1.0  0.02940  0.58919  0.35365  1.0000
  N   N87       1.0  0.04253  0.65519  0.57297  1.0000
  C   C879      1.0  0.04567  0.64092  0.56957  1.0000
  C   C880      1.0  0.04437  0.66631  0.55957  1.0000
  C   C881      1.0  0.05269  0.65514  0.58152  1.0000
  C   C882      1.0  0.02734  0.65844  0.58120  1.0000
  H   H1390     1.0  0.05693  0.63823  0.56307  1.0000
  H   H1391     1.0  0.03801  0.64054  0.56336  1.0000
  H   H1392     1.0  0.04453  0.63224  0.57942  1.0000
  H   H1393     1.0  0.04162  0.67729  0.56178  1.0000
  H   H1394     1.0  0.05581  0.66447  0.55326  1.0000
  H   H1395     1.0  0.03728  0.66630  0.55259  1.0000
  H   H1396     1.0  0.05085  0.66586  0.58396  1.0000
  H   H1397     1.0  0.06427  0.65246  0.57568  1.0000
  H   H1398     1.0  0.05140  0.64717  0.59189  1.0000
  H   H1399     1.0  0.02460  0.66918  0.58387  1.0000
  H   H1400     1.0  0.02548  0.65033  0.59140  1.0000
  H   H1401     1.0  0.01942  0.65858  0.57499  1.0000
  C   C883      1.0  0.01438  0.58494  0.38110  1.0000
  H   H1402     1.0  0.13296  0.56469  0.64540  1.0000
  H   H1403     1.0  0.03276  0.52589  0.39963  1.0000
  H   H1404     1.0  0.06348  0.68651  0.59665  1.0000
  H   H1405     1.0  0.06431  0.57298  0.49614  1.0000
  H   H1406     1.0  0.11411  0.72804  0.57219  1.0000
  S   S365      1.0  0.02530  0.61254  0.57546  1.0000
  N   N88       1.0  0.08914  0.58125  0.58630  1.0000
  C   C884      1.0  0.12067  0.68284  0.63764  1.0000
  H   H1407     1.0  0.09582  0.54073  0.63673  1.0000
  H   H1408     1.0  0.14428  0.69683  0.53560  1.0000
  H   H1409     1.0  0.13737  0.73671  0.52733  1.0000
  C   C885      1.0  0.04348  0.69368  0.58921  1.0000
  H   H1410     1.0  0.09301  0.55820  0.59006  1.0000
  C   C886      1.0  0.01007  0.62693  0.57461  1.0000
  C   C887      1.0  0.02279  0.68474  0.60538  1.0000
  S   S366      1.0  0.06296  0.51640  0.60818  1.0000
  H   H1411     1.0  0.12695  0.67382  0.64458  1.0000
  H   H1412     1.0  0.01776  0.60410  0.42326  1.0000
  C   C888      1.0  0.09661  0.58285  0.57102  1.0000
  Fe  Fe180     1.0  0.01662  0.52698  0.35822  1.0000
  H   H1413     1.0  0.11195  0.59345  0.63879  1.0000
  H   H1414     1.0  0.08604  0.59702  0.49913  1.0000
  H   H1415     1.0  0.01781  0.70424  0.34803  1.0000
  H   H1416     1.0  0.15473  0.67131  0.41438  1.0000
  H   H1417     1.0  0.00684  0.62830  0.59648  1.0000
  C   C889      1.0  0.07328  0.58331  0.58768  1.0000
  H   H1418     1.0  0.05779  0.64381  0.36411  1.0000
  H   H1419     1.0  0.14227  0.69723  0.40933  1.0000
  H   H1420     1.0  0.09553  0.58210  0.46677  1.0000
  C   C890      1.0  0.10259  0.64724  0.33128  1.0000
  C   C891      1.0  0.09423  0.54677  0.64473  1.0000
  N   N89       1.0  0.13173  0.58632  0.64663  1.0000
  C   C892      1.0  0.08854  0.57631  0.47622  1.0000
  H   H1421     1.0  0.00818  0.59619  0.38124  1.0000
  C   C893      1.0  0.12520  0.63580  0.65011  1.0000
  H   H1422     1.0  0.03027  0.60103  0.38547  1.0000
  C   C894      1.0  0.07213  0.57717  0.49926  1.0000
  H   H1423     1.0  0.13450  0.57735  0.62851  1.0000
  C   C895      1.0  0.14400  0.69645  0.39802  1.0000
  H   H1424     1.0  0.16672  0.67378  0.39697  1.0000
  N   N90       1.0  0.03023  0.58419  0.37583  1.0000
  H   H1425     1.0  0.04759  0.58861  0.38206  1.0000
  H   H1426     1.0  0.01547  0.59581  0.60640  1.0000
  H   H1427     1.0  0.13522  0.70471  0.39342  1.0000
  C   C896      1.0  0.14004  0.69584  0.62963  1.0000
  H   H1428     1.0  0.04516  0.53420  0.35687  1.0000
  S   S367      1.0  0.04967  0.52970  0.63711  1.0000
  C   C897      1.0  0.02176  0.63086  0.39354  1.0000
  C   C898      1.0  0.13950  0.67889  0.61665  1.0000
  H   H1429     1.0  0.01602  0.56084  0.44679  1.0000
  H   H1430     1.0  0.16326  0.69405  0.53562  1.0000
  C   C899      1.0  0.13776  0.59891  0.63784  1.0000
  H   H1431     1.0  0.04189  0.54763  0.44411  1.0000
  H   H1432     1.0  0.03385  0.56454  0.36891  1.0000
  H   H1433     1.0  0.14955  0.57094  0.63733  1.0000
  H   H1434     1.0  0.13689  0.68962  0.37713  1.0000
  H   H1435     1.0  0.01718  0.56436  0.46310  1.0000
  H   H1436     1.0  0.06735  0.58175  0.59910  1.0000
  H   H1437     1.0  0.01350  0.51828  0.60786  1.0000
  C   C900      1.0  0.01782  0.55471  0.41507  1.0000
  C   C901      1.0  0.05101  0.56786  0.32671  1.0000
  C   C902      1.0  0.13645  0.72592  0.57298  1.0000
  H   H1438     1.0  0.14990  0.59628  0.63545  1.0000
  H   H1439     1.0  0.06499  0.60543  0.48749  1.0000
  Fe  Fe181     1.0  0.01372  0.49955  0.38080  1.0000
  H   H1440     1.0  0.04738  0.53256  0.45776  1.0000
  C   C903      1.0  0.04229  0.55919  0.32598  1.0000
  C   C904      1.0  0.03308  0.59312  0.36116  1.0000
  C   C905      1.0  0.01472  0.55648  0.45852  1.0000
  C   C906      1.0  0.02472  0.62118  0.40610  1.0000
  H   H1441     1.0  0.12934  0.72157  0.53060  1.0000
  H   H1442     1.0  0.11477  0.69710  0.61158  1.0000
  N   N91       1.0  0.14390  0.68187  0.39704  1.0000
  C   C907      1.0  0.07095  0.59822  0.47993  1.0000
  H   H1443     1.0  0.02207  0.65361  0.33071  1.0000
  N   N92       1.0  0.07206  0.62588  0.37488  1.0000
  H   H1444     1.0  0.12869  0.70722  0.60656  1.0000
  H   H1445     1.0  0.00998  0.58071  0.37435  1.0000
  H   H1446     1.0  0.11538  0.53671  0.64966  1.0000
  H   H1447     1.0  0.11370  0.69063  0.64426  1.0000
  H   H1448     1.0  0.13266  0.67452  0.61240  1.0000
  C   C908      1.0  0.00978  0.64587  0.64071  1.0000
  H   H1449     1.0  0.03889  0.64300  0.32293  1.0000
  H   H1450     1.0  0.00950  0.50438  0.60225  1.0000
  C   C909      1.0  0.02202  0.53667  0.47740  1.0000
  N   N93       1.0  0.02437  0.54211  0.46172  1.0000
  H   H1451     1.0  0.02440  0.54410  0.48262  1.0000
  H   H1452     1.0  0.02124  0.72141  0.36013  1.0000
  H   H1453     1.0  0.02294  0.53583  0.44326  1.0000
  H   H1454     1.0  0.01054  0.53561  0.48223  1.0000
  H   H1455     1.0  0.11173  0.73796  0.38646  1.0000
  H   H1456     1.0  0.01383  0.73384  0.55789  1.0000
  C   C910      1.0  0.02935  0.50059  0.62661  1.0000
  H   H1457     1.0  0.01077  0.56526  0.32343  1.0000
  C   C911      1.0  0.00502  0.63273  0.56195  1.0000
  H   H1458     1.0  0.01324  0.69948  0.37459  1.0000
  C   C912      1.0  0.00982  0.55141  0.64962  1.0000
  C   C913      1.0  0.03810  0.49877  0.60188  1.0000
  H   H1459     1.0  0.03621  0.49575  0.59273  1.0000
  H   H1460     1.0  0.00965  0.63940  0.32266  1.0000
  H   H1461     1.0  0.00934  0.56940  0.34021  1.0000
  C   C914      1.0  0.01007  0.63062  0.38819  1.0000
  C   C915      1.0  0.00957  0.72691  0.36048  1.0000
  H   H1462     1.0  0.00746  0.73734  0.54171  1.0000
  H   H1463     1.0  0.00914  0.73567  0.35069  1.0000
  H   H1464     1.0  0.00793  0.63815  0.37847  1.0000
  C   C916      1.0  0.00427  0.61092  0.40790  1.0000
  C   C917      1.0  0.00622  0.71015  0.34879  1.0000
  Fe  Fe182     1.0  0.00530  0.52833  0.38936  1.0000
  C   C918      1.0  0.00403  0.57224  0.33098  1.0000
  C   C919      1.0  0.03044  0.65295  0.32065  1.0000
  H   H1465     1.0  0.03958  0.49340  0.62944  1.0000
  Fe  Fe183     1.0  0.13329  0.74263  0.43438  1.0000
  C   C920      1.0  0.00425  0.73447  0.55360  1.0000
  H   H1466     1.0  0.44129  0.70063  0.90003  1.0000
  H   H1467     1.0  0.39803  0.72282  0.90445  1.0000
  H   H1468     1.0  0.46820  0.69730  0.91153  1.0000
  C   C921      1.0  0.17542  0.52151  0.89332  1.0000
  H   H1469     1.0  0.40386  0.59627  0.97329  1.0000
  C   C922      1.0  0.31340  0.52988  0.93227  1.0000
  H   H1470     1.0  0.22227  0.54616  0.93705  1.0000
  Fe  Fe184     1.0  0.38423  0.68261  0.94575  1.0000
  S   S368      1.0  0.38761  0.66058  0.94154  1.0000
  S   S369      1.0  0.38564  0.70088  0.92629  1.0000
  Fe  Fe185     1.0  0.36846  0.65810  0.96002  1.0000
  S   S370      1.0  0.34949  0.64754  0.96445  1.0000
  Fe  Fe186     1.0  0.40110  0.65370  0.95807  1.0000
  S   S371      1.0  0.42215  0.63744  0.95791  1.0000
  S   S372      1.0  0.36399  0.68064  0.96315  1.0000
  C   C923      1.0  0.15358  0.54048  0.89422  1.0000
  Fe  Fe187     1.0  0.29732  0.58663  0.93339  1.0000
  S   S373      1.0  0.32120  0.58277  0.92260  1.0000
  S   S374      1.0  0.28061  0.58810  0.92067  1.0000
  Fe  Fe188     1.0  0.30387  0.58629  0.96183  1.0000
  S   S375      1.0  0.32791  0.58183  0.95312  1.0000
  H   H1471     1.0  0.15056  0.49656  0.89624  1.0000
  Fe  Fe189     1.0  0.32297  0.59872  0.93395  1.0000
  S   S376      1.0  0.33873  0.61371  0.92419  1.0000
  Fe  Fe190     1.0  0.32394  0.56645  0.94286  1.0000
  S   S377      1.0  0.33915  0.54472  0.94398  1.0000
  S   S378      1.0  0.29878  0.60423  0.94309  1.0000
  S   S379      1.0  0.30009  0.56932  0.95305  1.0000
  C   C924      1.0  0.22443  0.57275  0.92134  1.0000
  H   H1472     1.0  0.24734  0.56991  0.93251  1.0000
  C   C925      1.0  0.09285  0.56891  0.76017  1.0000
  C   C926      1.0  0.07939  0.56479  0.65800  1.0000
  C   C927      1.0  0.00814  0.63335  0.66544  1.0000
  C   C928      1.0  0.49794  0.73288  0.90143  1.0000
  H   H1473     1.0  0.43721  0.61017  0.97216  1.0000
  Fe  Fe191     1.0  0.11284  0.55631  0.72093  1.0000
  S   S380      1.0  0.12747  0.56319  0.69967  1.0000
  S   S381      1.0  0.11816  0.53918  0.74039  1.0000
  Fe  Fe192     1.0  0.08527  0.57420  0.71070  1.0000
  S   S382      1.0  0.09742  0.58300  0.68861  1.0000
  S   S383      1.0  0.06106  0.57720  0.71988  1.0000
  Fe  Fe193     1.0  0.11064  0.56037  0.68994  1.0000
  H   H1474     1.0  0.37074  0.58174  0.95980  1.0000
  Fe  Fe194     1.0  0.11314  0.58529  0.69988  1.0000
  S   S384      1.0  0.12377  0.60416  0.69357  1.0000
  S   S385      1.0  0.09730  0.55141  0.71105  1.0000
  S   S386      1.0  0.09984  0.57868  0.72201  1.0000
  S   S387      1.0  0.38230  0.64903  0.97610  1.0000
  H   H1475     1.0  0.35481  0.66947  0.93763  1.0000
  C   C929      1.0  0.37136  0.67407  0.91101  1.0000
  C   C930      1.0  0.44201  0.70898  0.90512  1.0000
  H   H1476     1.0  0.14337  0.62189  0.67716  1.0000
  H   H1477     1.0  0.46185  0.68726  0.92917  1.0000
  H   H1478     1.0  0.36010  0.68640  0.93369  1.0000
  H   H1479     1.0  0.31386  0.51810  0.93516  1.0000
  N   N94       1.0  0.36081  0.56524  0.97524  1.0000
  Fe  Fe195     1.0  0.15823  0.52419  0.80154  1.0000
  S   S388      1.0  0.15484  0.52733  0.82396  1.0000
  S   S389      1.0  0.15533  0.54223  0.78198  1.0000
  H   H1480     1.0  0.43511  0.69046  0.93971  1.0000
  H   H1481     1.0  0.31351  0.51958  0.91011  1.0000
  C   C931      1.0  0.44568  0.71419  0.92593  1.0000
  H   H1482     1.0  0.34220  0.70238  0.91140  1.0000
  Fe  Fe196     1.0  0.17584  0.51086  0.82500  1.0000
  H   H1483     1.0  0.14303  0.50322  0.97742  1.0000
  N   N95       1.0  0.17185  0.50251  0.75787  1.0000
  S   S390      1.0  0.18038  0.50932  0.80196  1.0000
  Fe  Fe197     1.0  0.24603  0.53182  0.90313  1.0000
  S   S391      1.0  0.22790  0.54967  0.89594  1.0000
  S   S392      1.0  0.26581  0.53383  0.90981  1.0000
  Fe  Fe198     1.0  0.22934  0.50866  0.90609  1.0000
  S   S393      1.0  0.20969  0.52475  0.90002  1.0000
  H   H1484     1.0  0.33942  0.60518  0.98261  1.0000
  Fe  Fe199     1.0  0.22599  0.53538  0.88276  1.0000
  S   S394      1.0  0.21956  0.54446  0.86135  1.0000
  Fe  Fe200     1.0  0.21313  0.53748  0.91358  1.0000
  S   S395      1.0  0.19586  0.55009  0.92823  1.0000
  S   S396      1.0  0.24577  0.51849  0.88806  1.0000
  S   S397      1.0  0.23110  0.52037  0.92159  1.0000
  S   S398      1.0  0.11160  0.51009  0.95268  1.0000
  Fe  Fe201     1.0  0.13079  0.51935  0.93920  1.0000
  S   S399      1.0  0.13217  0.54225  0.93565  1.0000
  H   H1485     1.0  0.17231  0.49660  0.78019  1.0000
  H   H1486     1.0  0.23754  0.56870  0.95073  1.0000
  S   S400      1.0  0.09809  0.49951  0.92332  1.0000
  H   H1487     1.0  0.32493  0.55430  0.90249  1.0000
  C   C932      1.0  0.17830  0.54751  0.93051  1.0000
  C   C933      1.0  0.16624  0.55833  0.93428  1.0000
  C   C934      1.0  0.15210  0.55664  0.93584  1.0000
  C   C935      1.0  0.14995  0.54398  0.93401  1.0000
  C   C936      1.0  0.16203  0.53304  0.93043  1.0000
  C   C937      1.0  0.17622  0.53486  0.92855  1.0000
  H   H1488     1.0  0.16782  0.56812  0.93581  1.0000
  H   H1489     1.0  0.14279  0.56512  0.93857  1.0000
  H   H1490     1.0  0.16044  0.52338  0.92872  1.0000
  H   H1491     1.0  0.18552  0.52647  0.92575  1.0000
  C   C938      1.0  0.19917  0.51723  0.84520  1.0000
  C   C939      1.0  0.19875  0.53171  0.83849  1.0000
  C   C940      1.0  0.20519  0.53995  0.84342  1.0000
  C   C941      1.0  0.21188  0.53382  0.85516  1.0000
  C   C942      1.0  0.21214  0.51938  0.86190  1.0000
  C   C943      1.0  0.20593  0.51111  0.85687  1.0000
  H   H1492     1.0  0.19365  0.53652  0.82944  1.0000
  H   H1493     1.0  0.20498  0.55111  0.83813  1.0000
  H   H1494     1.0  0.21736  0.51451  0.87086  1.0000
  H   H1495     1.0  0.13157  0.59046  0.66675  1.0000
  Fe  Fe202     1.0  0.37949  0.67160  0.97795  1.0000
  H   H1496     1.0  0.05691  0.53516  0.66284  1.0000
  C   C944      1.0  0.45913  0.69212  0.91849  1.0000
  H   H1497     1.0  0.01304  0.55688  0.65578  1.0000
  H   H1498     1.0  0.22121  0.58471  0.91890  1.0000
  H   H1499     1.0  0.18682  0.51790  0.88746  1.0000
  H   H1500     1.0  0.15457  0.50480  0.77641  1.0000
  C   C945      1.0  0.23639  0.57284  0.93943  1.0000
  H   H1501     1.0  0.19886  0.50042  0.93077  1.0000
  C   C946      1.0  0.12786  0.54101  0.75201  1.0000
  C   C947      1.0  0.13626  0.55139  0.74816  1.0000
  C   C948      1.0  0.14441  0.55189  0.75756  1.0000
  C   C949      1.0  0.14408  0.54214  0.77088  1.0000
  C   C950      1.0  0.13522  0.53217  0.77487  1.0000
  C   C951      1.0  0.12730  0.53149  0.76543  1.0000
  H   H1502     1.0  0.13673  0.55882  0.73785  1.0000
  H   H1503     1.0  0.15115  0.55973  0.75442  1.0000
  H   H1504     1.0  0.13447  0.52494  0.78522  1.0000
  H   H1505     1.0  0.12075  0.52349  0.76852  1.0000
  C   C952      1.0  0.43026  0.61604  0.98016  1.0000
  C   C953      1.0  0.32820  0.54324  0.97254  1.0000
  H   H1506     1.0  0.02738  0.55617  0.69517  1.0000
  H   H1507     1.0  0.03863  0.55687  0.65626  1.0000
  H   H1508     1.0  0.35123  0.58557  0.96310  1.0000
  H   H1509     1.0  0.36024  0.51272  0.98379  1.0000
  C   C954      1.0  0.02945  0.53721  0.67945  1.0000
  C   C955      1.0  0.36278  0.55700  0.96433  1.0000
  H   H1510     1.0  0.30166  0.53709  0.90901  1.0000
  H   H1511     1.0  0.36350  0.54536  0.96924  1.0000
  H   H1512     1.0  0.18022  0.53355  0.86527  1.0000
  H   H1513     1.0  0.38369  0.56027  0.97517  1.0000
  C   C956      1.0  0.11286  0.61892  0.66923  1.0000
  C   C957      1.0  0.12370  0.61638  0.67692  1.0000
  C   C958      1.0  0.12706  0.49721  0.88722  1.0000
  C   C959      1.0  0.03849  0.54973  0.69163  1.0000
  C   C960      1.0  0.16634  0.50498  0.77254  1.0000
  H   H1514     1.0  0.10387  0.61353  0.67375  1.0000
  H   H1515     1.0  0.36096  0.70231  0.90987  1.0000
  H   H1516     1.0  0.03107  0.52710  0.68775  1.0000
  C   C961      1.0  0.05032  0.58146  0.70717  1.0000
  C   C962      1.0  0.05624  0.58586  0.69260  1.0000
  H   H1517     1.0  0.43533  0.72249  0.92663  1.0000
  C   C963      1.0  0.02677  0.58440  0.70169  1.0000
  C   C964      1.0  0.03558  0.58068  0.71170  1.0000
  H   H1518     1.0  0.06754  0.58655  0.68901  1.0000
  H   H1519     1.0  0.31861  0.53453  0.89624  1.0000
  H   H1520     1.0  0.03094  0.57731  0.72298  1.0000
  C   C965      1.0  0.27600  0.57303  0.91813  1.0000
  C   C966      1.0  0.26922  0.57476  0.90687  1.0000
  C   C967      1.0  0.26551  0.56299  0.90448  1.0000
  C   C968      1.0  0.26847  0.54936  0.91341  1.0000
  C   C969      1.0  0.27482  0.54773  0.92493  1.0000
  C   C970      1.0  0.27854  0.55949  0.92731  1.0000
  H   H1521     1.0  0.26710  0.58522  0.89976  1.0000
  H   H1522     1.0  0.26080  0.56438  0.89544  1.0000
  H   H1523     1.0  0.27697  0.53726  0.93199  1.0000
  H   H1524     1.0  0.28332  0.55813  0.93628  1.0000
  C   C971      1.0  0.23029  0.55102  0.93900  1.0000
  H   H1525     1.0  0.04047  0.53997  0.70025  1.0000
  H   H1526     1.0  0.34145  0.68601  0.93540  1.0000
  C   C972      1.0  0.39318  0.71472  0.92730  1.0000
  C   C973      1.0  0.39400  0.71643  0.94048  1.0000
  C   C974      1.0  0.40031  0.72734  0.94102  1.0000
  C   C975      1.0  0.40607  0.73647  0.92840  1.0000
  C   C976      1.0  0.36069  0.58052  0.96827  1.0000
  C   C977      1.0  0.39871  0.72400  0.91468  1.0000
  H   H1527     1.0  0.38965  0.70944  0.95029  1.0000
  H   H1528     1.0  0.40084  0.72865  0.95127  1.0000
  H   H1529     1.0  0.45900  0.68323  0.91380  1.0000
  C   C978      1.0  0.03267  0.58914  0.68717  1.0000
  C   C979      1.0  0.34716  0.63774  0.95324  1.0000
  C   C980      1.0  0.33500  0.63144  0.95751  1.0000
  C   C981      1.0  0.33246  0.62392  0.94874  1.0000
  C   C982      1.0  0.34203  0.62268  0.93559  1.0000
  C   C983      1.0  0.35426  0.62892  0.93132  1.0000
  C   C984      1.0  0.35690  0.63635  0.94018  1.0000
  H   H1530     1.0  0.32737  0.63250  0.96759  1.0000
  H   H1531     1.0  0.32285  0.61942  0.95197  1.0000
  H   H1532     1.0  0.36173  0.62794  0.92116  1.0000
  H   H1533     1.0  0.36640  0.64101  0.93686  1.0000
  H   H1534     1.0  0.37906  0.67934  0.91303  1.0000
  H   H1535     1.0  0.05201  0.59347  0.67140  1.0000
  H   H1536     1.0  0.08944  0.58015  0.75422  1.0000
  Fe  Fe203     1.0  0.14433  0.50843  0.83033  1.0000
  H   H1537     1.0  0.15526  0.49921  0.87707  1.0000
  C   C985      1.0  0.37577  0.60954  0.98107  1.0000
  C   C986      1.0  0.11105  0.49883  0.83351  1.0000
  C   C987      1.0  0.49233  0.72123  0.90170  1.0000
  H   H1538     1.0  0.17759  0.54637  0.89756  1.0000
  H   H1539     1.0  0.35990  0.58683  0.97616  1.0000
  C   C988      1.0  0.33612  0.52702  0.91479  1.0000
  H   H1540     1.0  0.23153  0.54620  0.95020  1.0000
  H   H1541     1.0  0.21614  0.56870  0.91879  1.0000
  C   C989      1.0  0.35033  0.52572  0.96621  1.0000
  C   C990      1.0  0.33904  0.53710  0.96211  1.0000
  H   H1542     1.0  0.04504  0.56621  0.66545  1.0000
  H   H1543     1.0  0.17583  0.52089  0.90450  1.0000
  H   H1544     1.0  0.02611  0.56576  0.66975  1.0000
  H   H1545     1.0  0.35876  0.52093  0.95818  1.0000
  H   H1546     1.0  0.40294  0.61298  0.97750  1.0000
  C   C991      1.0  0.04740  0.58982  0.68264  1.0000
  H   H1547     1.0  0.30815  0.55646  0.91563  1.0000
  H   H1548     1.0  0.32517  0.55313  0.92066  1.0000
  C   C992      1.0  0.35296  0.68077  0.93132  1.0000
  S   S401      1.0  0.14596  0.50650  0.80806  1.0000
  C   C993      1.0  0.34618  0.67394  0.91310  1.0000
  H   H1549     1.0  0.16274  0.52895  0.87091  1.0000
  H   H1550     1.0  0.34767  0.66247  0.91902  1.0000
  H   H1551     1.0  0.10263  0.56364  0.75307  1.0000
  N   N96       1.0  0.32061  0.53462  0.91715  1.0000
  H   H1552     1.0  0.33451  0.67914  0.91660  1.0000
  H   H1553     1.0  0.01536  0.58393  0.70526  1.0000
  H   H1554     1.0  0.43154  0.71712  0.90551  1.0000
  H   H1555     1.0  0.34823  0.67403  0.90153  1.0000
  H   H1556     1.0  0.37358  0.66257  0.91671  1.0000
  C   C994      1.0  0.42257  0.63011  0.97594  1.0000
  H   H1557     1.0  0.34199  0.53041  0.90354  1.0000
  H   H1558     1.0  0.35585  0.69740  0.89622  1.0000
  H   H1559     1.0  0.37409  0.67438  0.89934  1.0000
  H   H1560     1.0  0.45456  0.71979  0.91940  1.0000
  H   H1561     1.0  0.17267  0.55762  0.88134  1.0000
  H   H1562     1.0  0.37691  0.62083  0.97619  1.0000
  H   H1563     1.0  0.42251  0.70308  0.92976  1.0000
  H   H1564     1.0  0.21164  0.56657  0.95741  1.0000
  H   H1565     1.0  0.19234  0.49858  0.95725  1.0000
  H   H1566     1.0  0.14825  0.55150  0.88922  1.0000
  S   S402      1.0  0.14750  0.50155  0.94853  1.0000
  S   S403      1.0  0.12583  0.50586  0.84935  1.0000
  C   C995      1.0  0.16333  0.51366  0.74820  1.0000
  H   H1567     1.0  0.19199  0.50146  0.74200  1.0000
  S   S404      1.0  0.19156  0.50615  0.83952  1.0000
  H   H1568     1.0  0.23334  0.58480  0.93742  1.0000
  S   S405      1.0  0.29671  0.58690  0.98534  1.0000
  H   H1569     1.0  0.37295  0.55796  0.95598  1.0000
  H   H1570     1.0  0.49475  0.69822  0.90793  1.0000
  C   C996      1.0  0.13504  0.62373  0.67125  1.0000
  H   H1571     1.0  0.11620  0.50598  0.82438  1.0000
  H   H1572     1.0  0.11078  0.58089  0.65578  1.0000
  Fe  Fe204     1.0  0.11518  0.49893  0.93478  1.0000
  C   C997      1.0  0.31331  0.53128  0.90772  1.0000
  H   H1573     1.0  0.16407  0.54753  0.86583  1.0000
  H   H1574     1.0  0.12878  0.50581  0.87737  1.0000
  C   C998      1.0  0.09022  0.56217  0.66565  1.0000
  H   H1575     1.0  0.30175  0.53549  0.93454  1.0000
  H   H1576     1.0  0.34188  0.52933  0.92182  1.0000
  H   H1577     1.0  0.24094  0.54759  0.93177  1.0000
  H   H1578     1.0  0.18066  0.49877  0.93200  1.0000
  S   S406      1.0  0.47723  0.72372  0.89431  1.0000
  H   H1579     1.0  0.33729  0.51516  0.91722  1.0000
  N   N97       1.0  0.08098  0.56103  0.76432  1.0000
  C   C999      1.0  0.07699  0.56031  0.75134  1.0000
  C   C1000     1.0  0.08594  0.54628  0.77238  1.0000
  C   C1001     1.0  0.06812  0.56864  0.77340  1.0000
  H   H1580     1.0  0.09642  0.56937  0.76966  1.0000
  H   H1581     1.0  0.07329  0.57125  0.74492  1.0000
  H   H1582     1.0  0.06799  0.55455  0.75399  1.0000
  H   H1583     1.0  0.08642  0.55456  0.74426  1.0000
  H   H1584     1.0  0.08946  0.54636  0.78204  1.0000
  H   H1585     1.0  0.07718  0.54009  0.77591  1.0000
  H   H1586     1.0  0.09541  0.54017  0.76567  1.0000
  H   H1587     1.0  0.44766  0.70990  0.93693  1.0000
  H   H1588     1.0  0.07076  0.56942  0.78327  1.0000
  H   H1589     1.0  0.20278  0.56656  0.94393  1.0000
  H   H1590     1.0  0.08723  0.49550  0.90133  1.0000
  S   S407      1.0  0.11733  0.54945  0.67143  1.0000
  H   H1591     1.0  0.16383  0.52470  0.74841  1.0000
  C   C1002     1.0  0.40523  0.73477  0.91522  1.0000
  H   H1592     1.0  0.05894  0.56299  0.77673  1.0000
  H   H1593     1.0  0.06940  0.57269  0.66032  1.0000
  N   N98       1.0  0.35602  0.68132  0.91584  1.0000
  C   C1003     1.0  0.21120  0.57089  0.94594  1.0000
  H   H1594     1.0  0.01800  0.54322  0.68254  1.0000
  C   C1004     1.0  0.43325  0.69537  0.92871  1.0000
  S   S408      1.0  0.02190  0.59446  0.67444  1.0000
  C   C1005     1.0  0.37300  0.55926  0.98266  1.0000
  H   H1595     1.0  0.31866  0.53220  0.93968  1.0000
  S   S409      1.0  0.39935  0.67575  0.96085  1.0000
  H   H1596     1.0  0.40939  0.74191  0.90545  1.0000
  C   C1006     1.0  0.31966  0.55030  0.91382  1.0000
  C   C1007     1.0  0.35363  0.69652  0.90797  1.0000
  H   H1597     1.0  0.45073  0.71450  0.89791  1.0000
  H   H1598     1.0  0.20730  0.58278  0.94425  1.0000
  H   H1599     1.0  0.14811  0.57916  0.65920  1.0000
  N   N99       1.0  0.04007  0.54594  0.67788  1.0000
  C   C1008     1.0  0.05504  0.53759  0.67353  1.0000
  C   C1009     1.0  0.03733  0.55926  0.66686  1.0000
  H   H1600     1.0  0.12395  0.50227  0.89661  1.0000
  H   H1601     1.0  0.13196  0.57216  0.66732  1.0000
  H   H1602     1.0  0.35354  0.56070  0.95882  1.0000
  H   H1603     1.0  0.31949  0.55203  0.96955  1.0000
  H   H1604     1.0  0.15302  0.54056  0.90548  1.0000
  N   N100      1.0  0.16880  0.53624  0.88639  1.0000
  C   C1010     1.0  0.17734  0.54639  0.88646  1.0000
  H   H1605     1.0  0.18886  0.54360  0.88048  1.0000
  H   H1606     1.0  0.16762  0.51560  0.77309  1.0000
  H   H1607     1.0  0.08843  0.56795  0.67387  1.0000
  H   H1608     1.0  0.14685  0.53297  0.89455  1.0000
  H   H1609     1.0  0.03048  0.53413  0.66924  1.0000
  H   H1610     1.0  0.04317  0.49539  0.91340  1.0000
  H   H1611     1.0  0.05732  0.52717  0.68130  1.0000
  H   H1612     1.0  0.16917  0.51355  0.89373  1.0000
  N   N101      1.0  0.44502  0.70266  0.91957  1.0000
  C   C1011     1.0  0.13584  0.63328  0.65791  1.0000
  H   H1613     1.0  0.01417  0.62714  0.67400  1.0000
  H   H1614     1.0  0.23499  0.56961  0.91386  1.0000
  N   N102      1.0  0.22558  0.56688  0.93643  1.0000
  H   H1615     1.0  0.06409  0.57979  0.76756  1.0000
  H   H1616     1.0  0.43228  0.68669  0.92420  1.0000
  S   S410      1.0  0.13287  0.51003  0.92067  1.0000
  C   C1012     1.0  0.16891  0.53659  0.87146  1.0000
  C   C1013     1.0  0.18739  0.50331  0.75304  1.0000
  C   C1014     1.0  0.35121  0.52113  0.98067  1.0000
  H   H1617     1.0  0.32162  0.60017  0.97226  1.0000
  H   H1618     1.0  0.16740  0.51243  0.73693  1.0000
  H   H1619     1.0  0.49554  0.74105  0.95211  1.0000
  C   C1015     1.0  0.11357  0.62873  0.65581  1.0000
  C   C1016     1.0  0.13605  0.58184  0.66056  1.0000
  H   H1620     1.0  0.17450  0.49642  0.95815  1.0000
  H   H1621     1.0  0.15159  0.51316  0.75136  1.0000
  C   C1017     1.0  0.32052  0.59750  0.98369  1.0000
  H   H1622     1.0  0.18885  0.51407  0.75303  1.0000
  H   H1623     1.0  0.01945  0.65726  0.65663  1.0000
  H   H1624     1.0  0.11092  0.59920  0.65463  1.0000
  H   H1625     1.0  0.40819  0.64875  0.98319  1.0000
  C   C1018     1.0  0.10327  0.55215  0.66258  1.0000
  H   H1626     1.0  0.37770  0.60413  0.97213  1.0000
  C   C1019     1.0  0.11370  0.49711  0.84703  1.0000
  H   H1627     1.0  0.19406  0.49511  0.76023  1.0000
  H   H1628     1.0  0.06334  0.54363  0.67278  1.0000
  H   H1629     1.0  0.20641  0.49988  0.86207  1.0000
  H   H1630     1.0  0.04637  0.55636  0.69071  1.0000
  H   H1631     1.0  0.03288  0.64160  0.66222  1.0000
  H   H1632     1.0  0.03499  0.61873  0.65535  1.0000
  H   H1633     1.0  0.33744  0.56777  0.98060  1.0000
  H   H1634     1.0  0.40075  0.68357  0.98626  1.0000
  C   C1020     1.0  0.49893  0.70726  0.90781  1.0000
  C   C1021     1.0  0.34693  0.56407  0.98581  1.0000
  H   H1635     1.0  0.11746  0.49330  0.88720  1.0000
  C   C1022     1.0  0.40116  0.60185  0.98225  1.0000
  C   C1023     1.0  0.02669  0.64718  0.65368  1.0000
  H   H1636     1.0  0.14485  0.63870  0.65360  1.0000
  H   H1637     1.0  0.09909  0.49315  0.82150  1.0000
  H   H1638     1.0  0.23720  0.49335  0.88192  1.0000
  C   C1024     1.0  0.41358  0.63763  0.98632  1.0000
  H   H1639     1.0  0.47204  0.81102  0.11677  1.0000
  H   H1640     1.0  0.46967  0.84635  0.02727  1.0000
  Fe  Fe205     1.0  0.50092  0.83498  0.07460  1.0000
  C   C1025     1.0  0.47302  0.88786  0.19068  1.0000
  Fe  Fe206     1.0  0.46835  0.82370  0.21201  1.0000
  S   S411      1.0  0.47033  0.81903  0.19058  1.0000
  S   S412      1.0  0.44927  0.83896  0.22262  1.0000
  Fe  Fe207     1.0  0.48386  0.79751  0.19906  1.0000
  H   H1641     1.0  0.46706  0.89411  0.18211  1.0000
  H   H1642     1.0  0.46610  0.74585  0.19122  1.0000
  H   H1643     1.0  0.48372  0.74415  0.19439  1.0000
  S   S413      1.0  0.48010  0.80145  0.22116  1.0000
  H   H1644     1.0  0.49019  0.83420  0.26454  1.0000
  S   S414      1.0  0.50097  0.88054  0.08672  1.0000
  C   C1026     1.0  0.49827  0.84564  0.99852  1.0000
  S   S415      1.0  0.48516  0.82056  0.08638  1.0000
  H   H1645     1.0  0.49363  0.79916  0.15150  1.0000
  H   H1646     1.0  0.50115  0.84013  0.24725  1.0000
  H   H1647     1.0  0.50236  0.78563  0.13297  1.0000
  S   S416      1.0  0.45693  0.87618  0.29627  1.0000
  C   C1027     1.0  0.47520  0.86732  0.21042  1.0000
  H   H1648     1.0  0.39060  0.94509  0.30190  1.0000
  S   S417      1.0  0.42741  0.88464  0.28305  1.0000
  H   H1649     1.0  0.48782  0.89722  0.31382  1.0000
  Fe  Fe208     1.0  0.44227  0.86452  0.29235  1.0000
  S   S418      1.0  0.45473  0.84546  0.28234  1.0000
  Fe  Fe209     1.0  0.44116  0.89610  0.28854  1.0000
  S   S419      1.0  0.44944  0.91447  0.27239  1.0000
  H   H1650     1.0  0.49644  0.81602  0.11260  1.0000
  C   C1028     1.0  0.50161  0.86571  0.25166  1.0000
  H   H1651     1.0  0.44470  0.88632  0.19824  1.0000
  Fe  Fe210     1.0  0.41471  0.88397  0.30581  1.0000
  H   H1652     1.0  0.46155  0.87154  0.18130  1.0000
  S   S420      1.0  0.49352  0.85791  0.06347  1.0000
  C   C1029     1.0  0.46760  0.76747  0.16110  1.0000
  C   C1030     1.0  0.47850  0.77460  0.18101  1.0000
  H   H1653     1.0  0.40323  0.92101  0.29759  1.0000
  H   H1654     1.0  0.48335  0.82737  0.04657  1.0000
  H   H1655     1.0  0.46660  0.89028  0.00078  1.0000
  N   N103      1.0  0.46681  0.87531  0.19931  1.0000
  H   H1656     1.0  0.49473  0.79101  0.11741  1.0000
  S   S421      1.0  0.39045  0.89242  0.31238  1.0000
  S   S422      1.0  0.47106  0.74425  0.11543  1.0000
  C   C1031     1.0  0.48309  0.80359  0.14796  1.0000
  S   S423      1.0  0.41026  0.97560  0.27878  1.0000
  S   S424      1.0  0.48484  0.77567  0.19547  1.0000
  H   H1657     1.0  0.44668  0.77884  0.17106  1.0000
  H   H1658     1.0  0.44043  0.94186  0.31289  1.0000
  H   H1659     1.0  0.47834  0.81426  0.15085  1.0000
  C   C1032     1.0  0.48795  0.76692  0.17090  1.0000
  C   C1033     1.0  0.42161  0.95874  0.27736  1.0000
  C   C1034     1.0  0.42892  0.95617  0.26382  1.0000
  C   C1035     1.0  0.43770  0.94260  0.26244  1.0000
  C   C1036     1.0  0.43888  0.93147  0.27456  1.0000
  C   C1037     1.0  0.43159  0.93403  0.28815  1.0000
  C   C1038     1.0  0.42304  0.94772  0.28957  1.0000
  H   H1660     1.0  0.42779  0.96465  0.25437  1.0000
  H   H1661     1.0  0.44337  0.94064  0.25193  1.0000
  H   H1662     1.0  0.43269  0.92554  0.29755  1.0000
  H   H1663     1.0  0.41736  0.94968  0.30006  1.0000
  C   C1039     1.0  0.48979  0.85228  0.02558  1.0000
  H   H1664     1.0  0.44644  0.87091  0.21277  1.0000
  H   H1665     1.0  0.47482  0.87419  0.21767  1.0000
  H   H1666     1.0  0.46347  0.80233  0.13423  1.0000
  S   S425      1.0  0.46016  0.76202  0.14976  1.0000
  C   C1040     1.0  0.45825  0.77564  0.17085  1.0000
  S   S426      1.0  0.38869  0.96715  0.31921  1.0000
  C   C1041     1.0  0.45071  0.84084  0.23921  1.0000
  C   C1042     1.0  0.46087  0.83090  0.24655  1.0000
  C   C1043     1.0  0.46171  0.83233  0.25989  1.0000
  C   C1044     1.0  0.45278  0.84396  0.26579  1.0000
  C   C1045     1.0  0.44282  0.85410  0.25831  1.0000
  C   C1046     1.0  0.44168  0.85245  0.24512  1.0000
  H   H1667     1.0  0.46782  0.82188  0.24215  1.0000
  H   H1668     1.0  0.46926  0.82430  0.26571  1.0000
  H   H1669     1.0  0.43581  0.86304  0.26282  1.0000
  H   H1670     1.0  0.43372  0.86011  0.23956  1.0000
  H   H1671     1.0  0.47926  0.92431  0.31377  1.0000
  C   C1047     1.0  0.45139  0.88022  0.20627  1.0000
  H   H1672     1.0  0.45031  0.88729  0.21359  1.0000
  S   S427      1.0  0.42831  0.86277  0.31478  1.0000
  H   H1673     1.0  0.47890  0.94324  0.30957  1.0000
  H   H1674     1.0  0.48375  0.79991  0.02774  1.0000
  C   C1048     1.0  0.47084  0.80991  0.12844  1.0000
  N   N104      1.0  0.49850  0.85273  0.26258  1.0000
  Fe  Fe211     1.0  0.40403  0.97840  0.30136  1.0000
  H   H1675     1.0  0.47072  0.85783  0.21720  1.0000
  H   H1676     1.0  0.48456  0.84758  0.28339  1.0000
  H   H1677     1.0  0.48688  0.86335  0.20556  1.0000
  H   H1678     1.0  0.47559  0.79637  0.15435  1.0000
  C   C1049     1.0  0.46367  0.77919  0.18079  1.0000
  C   C1050     1.0  0.38621  0.94754  0.29213  1.0000
  H   H1679     1.0  0.48430  0.89452  0.99316  1.0000
  H   H1680     1.0  0.45624  0.78489  0.18872  1.0000
  N   N105      1.0  0.49239  0.80626  0.04208  1.0000
  C   C1051     1.0  0.48735  0.85709  0.27496  1.0000
  N   N106      1.0  0.48515  0.80470  0.13247  1.0000
  C   C1052     1.0  0.47493  0.93430  0.31801  1.0000
  C   C1053     1.0  0.48285  0.79252  0.09457  1.0000
  C   C1054     1.0  0.48813  0.77767  0.09566  1.0000
  H   H1681     1.0  0.48648  0.85489  0.03601  1.0000
  H   H1682     1.0  0.36323  0.93517  0.30264  1.0000
  H   H1683     1.0  0.47153  0.79661  0.09921  1.0000
  H   H1684     1.0  0.48086  0.77045  0.10112  1.0000
  H   H1685     1.0  0.46524  0.82063  0.13091  1.0000
  H   H1686     1.0  0.49634  0.81621  0.05677  1.0000
  C   C1055     1.0  0.49296  0.84391  0.25644  1.0000
  Fe  Fe212     1.0  0.44176  0.87624  0.31772  1.0000
  C   C1056     1.0  0.48030  0.80698  0.03555  1.0000
  C   C1057     1.0  0.39910  0.92410  0.28760  1.0000
  H   H1687     1.0  0.46288  0.85631  0.19602  1.0000
  H   H1688     1.0  0.50044  0.89365  0.10913  1.0000
  H   H1689     1.0  0.36893  0.94571  0.27633  1.0000
  H   H1690     1.0  0.48284  0.85006  0.25265  1.0000
  S   S428      1.0  0.49760  0.74427  0.13003  1.0000
  H   H1691     1.0  0.49106  0.86377  0.27994  1.0000
  C   C1058     1.0  0.49462  0.81492  0.12436  1.0000
  C   C1059     1.0  0.49214  0.80203  0.08753  1.0000
  H   H1692     1.0  0.45645  0.93030  0.30483  1.0000
  N   N107      1.0  0.38477  0.93432  0.28907  1.0000
  H   H1693     1.0  0.39841  0.91395  0.28535  1.0000
  C   C1060     1.0  0.49205  0.79038  0.12912  1.0000
  C   C1061     1.0  0.48737  0.81611  0.05203  1.0000
  C   C1062     1.0  0.48461  0.84398  0.00715  1.0000
  C   C1063     1.0  0.48031  0.84747  0.02061  1.0000
  S   S429      1.0  0.42727  0.89727  0.31033  1.0000
  H   H1694     1.0  0.47910  0.86172  0.18461  1.0000
  S   S430      1.0  0.47292  0.83717  0.00158  1.0000
  H   H1695     1.0  0.48469  0.88445  0.18538  1.0000
  C   C1064     1.0  0.48254  0.76349  0.16091  1.0000
  C   C1065     1.0  0.46763  0.86582  0.18990  1.0000
  S   S431      1.0  0.42125  0.97296  0.31384  1.0000
  H   H1696     1.0  0.45613  0.87924  0.98788  1.0000
  H   H1697     1.0  0.40748  0.92877  0.27876  1.0000
  H   H1698     1.0  0.37554  0.95533  0.29383  1.0000
  C   C1066     1.0  0.37970  0.93798  0.27561  1.0000
  H   H1699     1.0  0.48263  0.87615  0.99924  1.0000
  H   H1700     1.0  0.38756  0.94301  0.26643  1.0000
  H   H1701     1.0  0.47638  0.81809  0.02960  1.0000
  H   H1702     1.0  0.48993  0.75741  0.15335  1.0000
  H   H1703     1.0  0.47832  0.81295  0.06104  1.0000
  Fe  Fe213     1.0  0.47368  0.74532  0.13690  1.0000
  H   H1704     1.0  0.47699  0.86348  0.27174  1.0000
  H   H1705     1.0  0.45557  0.94927  0.30147  1.0000
  H   H1706     1.0  0.49163  0.87244  0.24793  1.0000
  H   H1707     1.0  0.44034  0.98516  0.26213  1.0000
  H   H1708     1.0  0.37850  0.92821  0.27302  1.0000
  H   H1709     1.0  0.39374  0.95316  0.28313  1.0000
  C   C1067     1.0  0.37407  0.92766  0.30095  1.0000
  H   H1710     1.0  0.49942  0.76319  0.17110  1.0000
  S   S432      1.0  0.48828  0.83272  0.20493  1.0000
  Fe  Fe214     1.0  0.49140  0.82633  0.18431  1.0000
  H   H1711     1.0  0.50130  0.86970  0.14776  1.0000
  H   H1712     1.0  0.47259  0.89529  0.19741  1.0000
  S   S433      1.0  0.49829  0.84106  0.16325  1.0000
  C   C1068     1.0  0.47744  0.88702  0.99376  1.0000
  H   H1713     1.0  0.46804  0.88563  0.31488  1.0000
  H   H1714     1.0  0.48469  0.78271  0.13417  1.0000
  Fe  Fe215     1.0  0.50031  0.81041  0.21238  1.0000
  H   H1715     1.0  0.37246  0.91781  0.29885  1.0000
  C   C1069     1.0  0.45257  0.93983  0.30983  1.0000
  H   H1716     1.0  0.48969  0.82584  0.12658  1.0000
  H   H1717     1.0  0.37780  0.92430  0.31120  1.0000
  H   H1718     1.0  0.48821  0.78799  0.05913  1.0000
  H   H1719     1.0  0.47080  0.80368  0.04380  1.0000
  C   C1070     1.0  0.49709  0.79139  0.05003  1.0000
  H   H1720     1.0  0.50169  0.82170  0.02452  1.0000
  H   H1721     1.0  0.50043  0.78356  0.04299  1.0000
  H   H1722     1.0  0.50184  0.84262  0.98830  1.0000
  C   C1071     1.0  0.50262  0.77229  0.08938  1.0000
  C   C1072     1.0  0.50347  0.85391  0.01693  1.0000
  S   S434      1.0  0.13656  0.79543  0.55017  1.0000
  H   H1723     1.0  0.42116  0.89907  0.34172  1.0000
  S   S435      1.0  0.10062  0.79069  0.42296  1.0000
  Fe  Fe216     1.0  0.21284  0.81291  0.45477  1.0000
  S   S436      1.0  0.23274  0.80767  0.46397  1.0000
  S   S437      1.0  0.20080  0.79491  0.45971  1.0000
  Fe  Fe217     1.0  0.21070  0.84527  0.44991  1.0000
  S   S438      1.0  0.22964  0.84232  0.45961  1.0000
  S   S439      1.0  0.19788  0.86735  0.44188  1.0000
  Fe  Fe218     1.0  0.24027  0.82574  0.44643  1.0000
  S   S440      1.0  0.26353  0.82489  0.43351  1.0000
  Fe  Fe219     1.0  0.22044  0.82479  0.47615  1.0000
  S   S441      1.0  0.21686  0.82057  0.50011  1.0000
  S   S442      1.0  0.22153  0.82939  0.43586  1.0000
  S   S443      1.0  0.20033  0.82938  0.46779  1.0000
  Fe  Fe220     1.0  0.22568  0.83300  0.57327  1.0000
  S   S444      1.0  0.25010  0.82832  0.56580  1.0000
  S   S445      1.0  0.21143  0.81658  0.58314  1.0000
  Fe  Fe221     1.0  0.22336  0.86535  0.56501  1.0000
  S   S446      1.0  0.24748  0.86344  0.55655  1.0000
  S   S447      1.0  0.20835  0.88721  0.56337  1.0000
  Fe  Fe222     1.0  0.24594  0.84618  0.54684  1.0000
  S   S448      1.0  0.25599  0.84544  0.52375  1.0000
  Fe  Fe223     1.0  0.24957  0.84601  0.57633  1.0000
  S   S449      1.0  0.26628  0.84228  0.58979  1.0000
  S   S450      1.0  0.22164  0.84966  0.55359  1.0000
  S   S451      1.0  0.22539  0.84911  0.58552  1.0000
  H   H1724     1.0  0.37757  0.93721  0.61158  1.0000
  Fe  Fe224     1.0  0.15281  0.93663  0.50063  1.0000
  S   S452      1.0  0.13850  0.92055  0.50853  1.0000
  S   S453      1.0  0.14160  0.95895  0.50373  1.0000
  Fe  Fe225     1.0  0.17914  0.91530  0.48882  1.0000
  S   S454      1.0  0.16705  0.89755  0.49578  1.0000
  S   S455      1.0  0.20225  0.90909  0.47712  1.0000
  Fe  Fe226     1.0  0.14901  0.91433  0.48749  1.0000
  S   S456      1.0  0.13817  0.91080  0.47209  1.0000
  Fe  Fe227     1.0  0.15799  0.90546  0.51608  1.0000
  S   S457      1.0  0.15699  0.88850  0.53643  1.0000
  S   S458      1.0  0.16181  0.93164  0.47890  1.0000
  S   S459      1.0  0.17161  0.92202  0.50986  1.0000
  Fe  Fe228     1.0  0.11285  0.83684  0.48593  1.0000
  S   S460      1.0  0.10637  0.85739  0.47060  1.0000
  S   S461      1.0  0.13639  0.82745  0.48610  1.0000
  Fe  Fe229     1.0  0.08175  0.83221  0.49705  1.0000
  S   S462      1.0  0.07263  0.85285  0.48304  1.0000
  S   S463      1.0  0.06660  0.81779  0.51081  1.0000
  Fe  Fe230     1.0  0.09196  0.84583  0.46619  1.0000
  S   S464      1.0  0.08930  0.84800  0.44398  1.0000
  Fe  Fe231     1.0  0.08793  0.86214  0.48909  1.0000
  S   S465      1.0  0.08325  0.88269  0.49638  1.0000
  S   S466      1.0  0.10031  0.82467  0.47994  1.0000
  S   S467      1.0  0.09530  0.84210  0.50480  1.0000
  Fe  Fe232     1.0  0.34431  0.87328  0.38876  1.0000
  S   S468      1.0  0.32554  0.89211  0.38525  1.0000
  S   S469      1.0  0.35972  0.86038  0.37307  1.0000
  Fe  Fe233     1.0  0.33993  0.87364  0.42001  1.0000
  S   S470      1.0  0.32116  0.89259  0.41918  1.0000
  S   S471      1.0  0.34641  0.86183  0.44078  1.0000
  Fe  Fe234     1.0  0.31358  0.88140  0.40675  1.0000
  S   S472      1.0  0.28947  0.88103  0.41395  1.0000
  Fe  Fe235     1.0  0.33467  0.90152  0.39801  1.0000
  S   S473      1.0  0.33900  0.92388  0.39121  1.0000
  S   S474      1.0  0.33155  0.86174  0.40909  1.0000
  S   S475      1.0  0.35426  0.88342  0.40002  1.0000
  Fe  Fe236     1.0  0.47627  0.93192  0.37429  1.0000
  H   H1725     1.0  0.34663  0.92306  0.61079  1.0000
  S   S476      1.0  0.45573  0.94853  0.37855  1.0000
  H   H1726     1.0  0.05770  0.77937  0.42927  1.0000
  H   H1727     1.0  0.19677  0.79074  0.50786  1.0000
  H   H1728     1.0  0.44064  0.93955  0.61326  1.0000
  H   H1729     1.0  0.12648  0.76158  0.50875  1.0000
  H   H1730     1.0  0.17683  0.75089  0.47987  1.0000
  H   H1731     1.0  0.34482  0.91396  0.63658  1.0000
  S   S477      1.0  0.49237  0.92685  0.38794  1.0000
  S   S478      1.0  0.47701  0.90895  0.37522  1.0000
  Fe  Fe237     1.0  0.38537  0.95015  0.57224  1.0000
  S   S479      1.0  0.40142  0.93644  0.58552  1.0000
  Fe  Fe238     1.0  0.40542  0.94476  0.54430  1.0000
  S   S480      1.0  0.42293  0.93020  0.55523  1.0000
  S   S481      1.0  0.41167  0.94934  0.52036  1.0000
  Fe  Fe239     1.0  0.40495  0.92121  0.57141  1.0000
  S   S482      1.0  0.40791  0.89740  0.57945  1.0000
  Fe  Fe240     1.0  0.41766  0.94698  0.56800  1.0000
  S   S483      1.0  0.43688  0.95433  0.56916  1.0000
  S   S484      1.0  0.38775  0.93414  0.55929  1.0000
  S   S485      1.0  0.40126  0.96223  0.55602  1.0000
  Fe  Fe241     1.0  0.39606  0.92644  0.44106  1.0000
  S   S486      1.0  0.38224  0.91158  0.45659  1.0000
  S   S487      1.0  0.38780  0.94496  0.42428  1.0000
  Fe  Fe242     1.0  0.42248  0.91219  0.45394  1.0000
  S   S488      1.0  0.41110  0.89612  0.47046  1.0000
  S   S489      1.0  0.44513  0.91153  0.45530  1.0000
  Fe  Fe243     1.0  0.40247  0.89450  0.45255  1.0000
  S   S490      1.0  0.40348  0.87247  0.45013  1.0000
  Fe  Fe244     1.0  0.39218  0.91473  0.47299  1.0000
  S   S491      1.0  0.37998  0.91793  0.49499  1.0000
  S   S492      1.0  0.41563  0.90899  0.43565  1.0000
  S   S493      1.0  0.40420  0.93110  0.45774  1.0000
  Fe  Fe245     1.0  0.45653  0.96294  0.63019  1.0000
  S   S494      1.0  0.47427  0.95096  0.61517  1.0000
  C   C1073     1.0  0.43003  0.93187  0.36504  1.0000
  H   H1732     1.0  0.28002  0.94781  0.62673  1.0000
  H   H1733     1.0  0.05462  0.78713  0.44442  1.0000
  C   C1074     1.0  0.22115  0.80234  0.56086  1.0000
  H   H1734     1.0  0.31641  0.86419  0.44345  1.0000
  Fe  Fe246     1.0  0.33230  0.88607  0.60541  1.0000
  S   S495      1.0  0.31281  0.90315  0.60091  1.0000
  S   S496      1.0  0.34958  0.87782  0.58768  1.0000
  C   C1075     1.0  0.45234  0.90357  0.61496  1.0000
  N   N108      1.0  0.40466  0.89018  0.35839  1.0000
  H   H1735     1.0  0.39570  0.90030  0.33972  1.0000
  C   C1076     1.0  0.43499  0.96152  0.58395  1.0000
  C   C1077     1.0  0.44706  0.96539  0.58549  1.0000
  C   C1078     1.0  0.44654  0.96970  0.59786  1.0000
  C   C1079     1.0  0.43397  0.97010  0.60881  1.0000
  C   C1080     1.0  0.42203  0.94422  0.35750  1.0000
  C   C1081     1.0  0.42209  0.96262  0.59455  1.0000
  H   H1736     1.0  0.45701  0.96474  0.57725  1.0000
  H   H1737     1.0  0.45592  0.97270  0.59894  1.0000
  H   H1738     1.0  0.34797  0.98184  0.62475  1.0000
  H   H1739     1.0  0.41264  0.95983  0.59333  1.0000
  C   C1082     1.0  0.40241  0.94140  0.51300  1.0000
  C   C1083     1.0  0.40952  0.93641  0.50046  1.0000
  C   C1084     1.0  0.40268  0.92916  0.49494  1.0000
  C   C1085     1.0  0.38850  0.92730  0.50164  1.0000
  C   C1086     1.0  0.38132  0.93245  0.51409  1.0000
  C   C1087     1.0  0.38830  0.93939  0.51984  1.0000
  H   H1740     1.0  0.42050  0.93777  0.49523  1.0000
  H   H1741     1.0  0.40853  0.92477  0.48567  1.0000
  H   H1742     1.0  0.37034  0.93107  0.51929  1.0000
  H   H1743     1.0  0.38268  0.94339  0.52942  1.0000
  C   C1088     1.0  0.39148  0.89184  0.58319  1.0000
  C   C1089     1.0  0.39188  0.87759  0.58337  1.0000
  C   C1090     1.0  0.37898  0.87335  0.58463  1.0000
  C   C1091     1.0  0.36559  0.88320  0.58635  1.0000
  C   C1092     1.0  0.36509  0.89734  0.58673  1.0000
  C   C1093     1.0  0.37807  0.90171  0.58493  1.0000
  H   H1744     1.0  0.40221  0.86989  0.58218  1.0000
  H   H1745     1.0  0.37936  0.86237  0.58453  1.0000
  H   H1746     1.0  0.35473  0.90499  0.58800  1.0000
  H   H1747     1.0  0.37769  0.91273  0.58481  1.0000
  H   H1748     1.0  0.14457  0.97843  0.55025  1.0000
  C   C1094     1.0  0.48219  0.89457  0.42067  1.0000
  C   C1095     1.0  0.46886  0.90257  0.41729  1.0000
  C   C1096     1.0  0.45727  0.90756  0.42796  1.0000
  C   C1097     1.0  0.45922  0.90502  0.44188  1.0000
  C   C1098     1.0  0.47259  0.89717  0.44521  1.0000
  C   C1099     1.0  0.48399  0.89173  0.43468  1.0000
  H   H1749     1.0  0.46740  0.90473  0.40649  1.0000
  H   H1750     1.0  0.44696  0.91360  0.42535  1.0000
  H   H1751     1.0  0.47409  0.89520  0.45599  1.0000
  Fe  Fe247     1.0  0.01751  0.79466  0.47796  1.0000
  C   C1100     1.0  0.36220  0.86529  0.44298  1.0000
  C   C1101     1.0  0.36582  0.87879  0.43725  1.0000
  C   C1102     1.0  0.37831  0.88129  0.43970  1.0000
  C   C1103     1.0  0.38737  0.87013  0.44746  1.0000
  C   C1104     1.0  0.38382  0.85664  0.45293  1.0000
  C   C1105     1.0  0.37113  0.85431  0.45094  1.0000
  H   H1752     1.0  0.35890  0.88731  0.43111  1.0000
  H   H1753     1.0  0.38109  0.89171  0.43535  1.0000
  H   H1754     1.0  0.39079  0.84800  0.45890  1.0000
  H   H1755     1.0  0.36837  0.84389  0.45538  1.0000
  S   S497      1.0  0.49297  0.94023  0.64003  1.0000
  C   C1106     1.0  0.37175  0.95529  0.43281  1.0000
  C   C1107     1.0  0.36609  0.95085  0.44745  1.0000
  C   C1108     1.0  0.35240  0.95809  0.45391  1.0000
  H   H1756     1.0  0.13370  0.86194  0.47748  1.0000
  H   H1757     1.0  0.37207  0.94168  0.45382  1.0000
  H   H1758     1.0  0.34786  0.95432  0.46515  1.0000
  C   C1109     1.0  0.30055  0.95876  0.40573  1.0000
  C   C1110     1.0  0.31332  0.96241  0.39655  1.0000
  C   C1111     1.0  0.32474  0.95170  0.39140  1.0000
  C   C1112     1.0  0.32357  0.93730  0.39562  1.0000
  C   C1113     1.0  0.31052  0.93375  0.40419  1.0000
  C   C1114     1.0  0.29898  0.94450  0.40920  1.0000
  H   H1759     1.0  0.31433  0.97351  0.39337  1.0000
  H   H1760     1.0  0.33450  0.95454  0.38418  1.0000
  H   H1761     1.0  0.30937  0.92272  0.40718  1.0000
  H   H1762     1.0  0.28900  0.94170  0.41611  1.0000
  C   C1115     1.0  0.47543  0.88891  0.34990  1.0000
  C   C1116     1.0  0.48377  0.89453  0.33668  1.0000
  H   H1763     1.0  0.45801  0.87776  0.36076  1.0000
  H   H1764     1.0  0.47765  0.88949  0.35967  1.0000
  C   C1117     1.0  0.36778  0.86943  0.35607  1.0000
  C   C1118     1.0  0.36171  0.88368  0.35018  1.0000
  H   H1765     1.0  0.35170  0.88933  0.35606  1.0000
  H   H1766     1.0  0.44672  0.92355  0.37729  1.0000
  C   C1119     1.0  0.05994  0.81003  0.50076  1.0000
  C   C1120     1.0  0.04564  0.80790  0.50532  1.0000
  C   C1121     1.0  0.04002  0.80224  0.49710  1.0000
  C   C1122     1.0  0.04880  0.79838  0.48445  1.0000
  C   C1123     1.0  0.06327  0.80005  0.48015  1.0000
  C   C1124     1.0  0.06877  0.80600  0.48819  1.0000
  H   H1767     1.0  0.03880  0.81090  0.51509  1.0000
  H   H1768     1.0  0.07017  0.79706  0.47040  1.0000
  H   H1769     1.0  0.07988  0.80734  0.48470  1.0000
  C   C1125     1.0  0.12318  0.90265  0.47923  1.0000
  C   C1126     1.0  0.11707  0.89992  0.49392  1.0000
  C   C1127     1.0  0.10464  0.89395  0.49919  1.0000
  C   C1128     1.0  0.09868  0.89025  0.48983  1.0000
  C   C1129     1.0  0.10509  0.89261  0.47521  1.0000
  C   C1130     1.0  0.11721  0.89896  0.46990  1.0000
  H   H1770     1.0  0.12179  0.90251  0.50121  1.0000
  H   H1771     1.0  0.09976  0.89200  0.51053  1.0000
  H   H1772     1.0  0.10041  0.88992  0.46794  1.0000
  H   H1773     1.0  0.12191  0.90107  0.45853  1.0000
  C   C1131     1.0  0.15323  0.97035  0.50182  1.0000
  C   C1132     1.0  0.16838  0.96600  0.49745  1.0000
  C   C1133     1.0  0.17744  0.97508  0.49678  1.0000
  C   C1134     1.0  0.14718  0.98379  0.50538  1.0000
  C   C1135     1.0  0.45952  0.92308  0.59578  1.0000
  H   H1774     1.0  0.13547  0.98723  0.50871  1.0000
  H   H1775     1.0  0.17312  0.95566  0.49461  1.0000
  H   H1776     1.0  0.18916  0.97165  0.49352  1.0000
  H   H1777     1.0  0.20346  0.79574  0.48891  1.0000
  H   H1778     1.0  0.36601  0.90246  0.61937  1.0000
  C   C1136     1.0  0.26905  0.85564  0.59686  1.0000
  C   C1137     1.0  0.26115  0.86990  0.59436  1.0000
  C   C1138     1.0  0.26391  0.88021  0.59998  1.0000
  C   C1139     1.0  0.27469  0.87644  0.60801  1.0000
  C   C1140     1.0  0.28243  0.86214  0.61067  1.0000
  C   C1141     1.0  0.27965  0.85183  0.60508  1.0000
  H   H1779     1.0  0.25291  0.87299  0.58810  1.0000
  H   H1780     1.0  0.25772  0.89119  0.59798  1.0000
  H   H1781     1.0  0.28572  0.84081  0.60721  1.0000
  C   C1142     1.0  0.19271  0.88775  0.55777  1.0000
  C   C1143     1.0  0.18507  0.90091  0.55106  1.0000
  C   C1144     1.0  0.17355  0.90129  0.54509  1.0000
  C   C1145     1.0  0.16973  0.88849  0.54576  1.0000
  C   C1146     1.0  0.17678  0.87544  0.55324  1.0000
  C   C1147     1.0  0.18827  0.87507  0.55924  1.0000
  H   H1782     1.0  0.18836  0.91074  0.55011  1.0000
  H   H1783     1.0  0.16773  0.91144  0.53984  1.0000
  H   H1784     1.0  0.17362  0.86557  0.55408  1.0000
  H   H1785     1.0  0.19367  0.86498  0.56502  1.0000
  C   C1148     1.0  0.27150  0.83998  0.42908  1.0000
  C   C1149     1.0  0.26519  0.85150  0.43589  1.0000
  C   C1150     1.0  0.27111  0.86383  0.43146  1.0000
  C   C1151     1.0  0.28353  0.86467  0.42032  1.0000
  C   C1152     1.0  0.29038  0.85285  0.41402  1.0000
  C   C1153     1.0  0.28432  0.84057  0.41835  1.0000
  H   H1786     1.0  0.25568  0.85101  0.44450  1.0000
  H   H1787     1.0  0.26590  0.87284  0.43655  1.0000
  H   H1788     1.0  0.29998  0.85339  0.40542  1.0000
  H   H1789     1.0  0.28938  0.83164  0.41311  1.0000
  C   C1154     1.0  0.19985  0.88014  0.44996  1.0000
  C   C1155     1.0  0.18790  0.89116  0.45346  1.0000
  C   C1156     1.0  0.18881  0.90039  0.46139  1.0000
  C   C1157     1.0  0.20178  0.89889  0.46553  1.0000
  C   C1158     1.0  0.21405  0.88854  0.46116  1.0000
  C   C1159     1.0  0.21304  0.87914  0.45346  1.0000
  H   H1790     1.0  0.17776  0.89233  0.45047  1.0000
  H   H1791     1.0  0.17938  0.90860  0.46437  1.0000
  H   H1792     1.0  0.22420  0.88753  0.46408  1.0000
  H   H1793     1.0  0.22254  0.87122  0.45019  1.0000
  C   C1160     1.0  0.22856  0.82674  0.50638  1.0000
  C   C1161     1.0  0.22735  0.82422  0.52113  1.0000
  C   C1162     1.0  0.23614  0.82952  0.52647  1.0000
  C   C1163     1.0  0.24611  0.83747  0.51707  1.0000
  C   C1164     1.0  0.24762  0.83968  0.50228  1.0000
  C   C1165     1.0  0.23883  0.83435  0.49694  1.0000
  H   H1794     1.0  0.21966  0.81810  0.52846  1.0000
  H   H1795     1.0  0.23523  0.82742  0.53786  1.0000
  H   H1796     1.0  0.25541  0.84573  0.49497  1.0000
  H   H1797     1.0  0.23998  0.83618  0.48553  1.0000
  C   C1166     1.0  0.17857  0.78135  0.43211  1.0000
  C   C1167     1.0  0.18810  0.79081  0.42561  1.0000
  C   C1168     1.0  0.19485  0.79530  0.43389  1.0000
  C   C1169     1.0  0.19229  0.79013  0.44874  1.0000
  H   H1798     1.0  0.24687  0.82292  0.59816  1.0000
  H   H1799     1.0  0.15078  0.88542  0.46120  1.0000
  H   H1800     1.0  0.04895  0.82897  0.47505  1.0000
  H   H1801     1.0  0.20227  0.80247  0.42875  1.0000
  H   H1802     1.0  0.15359  0.84677  0.46271  1.0000
  C   C1170     1.0  0.09722  0.80649  0.42897  1.0000
  C   C1171     1.0  0.09760  0.80581  0.44303  1.0000
  C   C1172     1.0  0.09483  0.81851  0.44780  1.0000
  C   C1173     1.0  0.09223  0.83193  0.43841  1.0000
  C   C1174     1.0  0.09165  0.83258  0.42439  1.0000
  C   C1175     1.0  0.09396  0.81987  0.41973  1.0000
  H   H1803     1.0  0.09977  0.79548  0.45032  1.0000
  H   H1804     1.0  0.09455  0.81781  0.45875  1.0000
  H   H1805     1.0  0.08951  0.84291  0.41709  1.0000
  H   H1806     1.0  0.09361  0.82040  0.40884  1.0000
  C   C1176     1.0  0.21047  0.80485  0.57310  1.0000
  C   C1177     1.0  0.19889  0.79769  0.57766  1.0000
  C   C1178     1.0  0.19788  0.78822  0.56993  1.0000
  H   H1807     1.0  0.19065  0.79947  0.58720  1.0000
  H   H1808     1.0  0.18893  0.78274  0.57356  1.0000
  C   C1179     1.0  0.13688  0.80458  0.53235  1.0000
  C   C1180     1.0  0.14427  0.79742  0.52125  1.0000
  C   C1181     1.0  0.14474  0.80470  0.50698  1.0000
  C   C1182     1.0  0.13742  0.81907  0.50378  1.0000
  C   C1183     1.0  0.12989  0.82625  0.51484  1.0000
  C   C1184     1.0  0.12970  0.81903  0.52914  1.0000
  H   H1809     1.0  0.14922  0.78610  0.52361  1.0000
  H   H1810     1.0  0.15031  0.79901  0.49847  1.0000
  H   H1811     1.0  0.12415  0.83737  0.51240  1.0000
  H   H1812     1.0  0.32699  0.86595  0.55476  1.0000
  C   C1185     1.0  0.05294  0.82643  0.44748  1.0000
  H   H1813     1.0  0.23940  0.80574  0.58958  1.0000
  H   H1814     1.0  0.29741  0.86527  0.45162  1.0000
  N   N109      1.0  0.31029  0.84371  0.45175  1.0000
  H   H1815     1.0  0.31933  0.83722  0.43165  1.0000
  H   H1816     1.0  0.41298  0.87722  0.34258  1.0000
  C   C1186     1.0  0.07682  0.76910  0.45545  1.0000
  S   S498      1.0  0.04188  0.79205  0.47345  1.0000
  N   N110      1.0  0.21515  0.87989  0.51351  1.0000
  C   C1187     1.0  0.22447  0.88131  0.52219  1.0000
  C   C1188     1.0  0.20928  0.86679  0.52028  1.0000
  C   C1189     1.0  0.22385  0.87889  0.49895  1.0000
  C   C1190     1.0  0.20293  0.89259  0.51263  1.0000
  H   H1817     1.0  0.22905  0.89112  0.51742  1.0000
  H   H1818     1.0  0.23382  0.87189  0.52310  1.0000
  H   H1819     1.0  0.21823  0.88207  0.53327  1.0000
  H   H1820     1.0  0.20226  0.86536  0.51396  1.0000
  H   H1821     1.0  0.21822  0.85701  0.52119  1.0000
  H   H1822     1.0  0.20258  0.86726  0.53125  1.0000
  H   H1823     1.0  0.21716  0.87760  0.49221  1.0000
  H   H1824     1.0  0.23335  0.86958  0.49924  1.0000
  H   H1825     1.0  0.22809  0.88881  0.49336  1.0000
  H   H1826     1.0  0.19633  0.89381  0.52343  1.0000
  H   H1827     1.0  0.19551  0.89172  0.50642  1.0000
  H   H1828     1.0  0.20690  0.90269  0.50726  1.0000
  N   N111      1.0  0.33299  0.93285  0.43704  1.0000
  C   C1191     1.0  0.45096  0.97897  0.51462  1.0000
  C   C1192     1.0  0.33417  0.94516  0.42468  1.0000
  C   C1193     1.0  0.32467  0.93825  0.45005  1.0000
  C   C1194     1.0  0.32531  0.92325  0.43443  1.0000
  C   C1195     1.0  0.22580  0.78233  0.50213  1.0000
  C   C1196     1.0  0.10298  0.80465  0.52227  1.0000
  C   C1197     1.0  0.42524  0.97983  0.51857  1.0000
  H   H1829     1.0  0.32318  0.95144  0.42299  1.0000
  H   H1830     1.0  0.33985  0.95267  0.42630  1.0000
  H   H1831     1.0  0.34027  0.94151  0.41464  1.0000
  H   H1832     1.0  0.31353  0.94456  0.44886  1.0000
  H   H1833     1.0  0.33015  0.94556  0.45231  1.0000
  H   H1834     1.0  0.32347  0.92930  0.45964  1.0000
  H   H1835     1.0  0.31405  0.92896  0.43312  1.0000
  H   H1836     1.0  0.32442  0.91368  0.44342  1.0000
  H   H1837     1.0  0.33112  0.91926  0.42448  1.0000
  N   N112      1.0  0.14151  0.81563  0.44685  1.0000
  C   C1198     1.0  0.13074  0.82935  0.44771  1.0000
  C   C1199     1.0  0.15594  0.81733  0.44716  1.0000
  C   C1200     1.0  0.14244  0.81159  0.43338  1.0000
  C   C1201     1.0  0.13693  0.80423  0.45919  1.0000
  H   H1838     1.0  0.13377  0.83816  0.43850  1.0000
  H   H1839     1.0  0.12982  0.83275  0.45770  1.0000
  H   H1840     1.0  0.11971  0.82843  0.44760  1.0000
  H   H1841     1.0  0.16430  0.80722  0.44628  1.0000
  H   H1842     1.0  0.15976  0.82590  0.43810  1.0000
  H   H1843     1.0  0.15574  0.81999  0.45735  1.0000
  H   H1844     1.0  0.15038  0.80119  0.43243  1.0000
  H   H1845     1.0  0.14610  0.81981  0.42384  1.0000
  H   H1846     1.0  0.13169  0.81036  0.43272  1.0000
  H   H1847     1.0  0.13619  0.80690  0.46953  1.0000
  H   H1848     1.0  0.14488  0.79372  0.45887  1.0000
  H   H1849     1.0  0.12606  0.80264  0.45936  1.0000
  N   N113      1.0  0.15754  0.95790  0.54641  1.0000
  C   C1202     1.0  0.16406  0.94381  0.55462  1.0000
  C   C1203     1.0  0.14715  0.95593  0.53921  1.0000
  C   C1204     1.0  0.16920  0.96417  0.53557  1.0000
  H   H1850     1.0  0.15722  0.96980  0.56160  1.0000
  H   H1851     1.0  0.36118  0.93155  0.59996  1.0000
  H   H1852     1.0  0.17194  0.94490  0.56022  1.0000
  H   H1853     1.0  0.15556  0.93874  0.56288  1.0000
  C   C1205     1.0  0.37025  0.93438  0.62221  1.0000
  H   H1854     1.0  0.10381  0.93237  0.47959  1.0000
  C   C1206     1.0  0.17138  0.98834  0.50078  1.0000
  H   H1855     1.0  0.00398  0.75976  0.55881  1.0000
  H   H1856     1.0  0.35667  0.97200  0.39673  1.0000
  H   H1857     1.0  0.17488  0.95746  0.52752  1.0000
  H   H1858     1.0  0.44434  0.97814  0.54296  1.0000
  H   H1859     1.0  0.09959  0.95726  0.46438  1.0000
  N   N114      1.0  0.06986  0.76671  0.44519  1.0000
  N   N115      1.0  0.15635  0.86308  0.47144  1.0000
  C   C1207     1.0  0.16719  0.86548  0.47778  1.0000
  C   C1208     1.0  0.14230  0.86325  0.48203  1.0000
  H   H1860     1.0  0.16867  0.85726  0.48775  1.0000
  H   H1861     1.0  0.16383  0.87629  0.48042  1.0000
  H   H1862     1.0  0.17805  0.86490  0.47026  1.0000
  H   H1863     1.0  0.14332  0.85435  0.49164  1.0000
  H   H1864     1.0  0.13825  0.87356  0.48570  1.0000
  N   N116      1.0  0.10919  0.95074  0.48273  1.0000
  C   C1209     1.0  0.10924  0.95664  0.49478  1.0000
  C   C1210     1.0  0.10352  0.93742  0.48837  1.0000
  C   C1211     1.0  0.12423  0.94741  0.47420  1.0000
  H   H1865     1.0  0.39753  0.86335  0.32904  1.0000
  H   H1866     1.0  0.02893  0.80079  0.50062  1.0000
  H   H1867     1.0  0.35801  0.94454  0.38871  1.0000
  H   H1868     1.0  0.06872  0.77493  0.46335  1.0000
  H   H1869     1.0  0.11019  0.92926  0.49556  1.0000
  H   H1870     1.0  0.44288  0.95357  0.52151  1.0000
  H   H1871     1.0  0.13138  0.93912  0.48076  1.0000
  H   H1872     1.0  0.12912  0.95707  0.47009  1.0000
  H   H1873     1.0  0.05954  0.85249  0.43925  1.0000
  C   C1212     1.0  0.44431  0.92803  0.61823  1.0000
  C   C1213     1.0  0.21255  0.76334  0.51117  1.0000
  N   N117      1.0  0.43090  0.95395  0.41822  1.0000
  C   C1214     1.0  0.41637  0.96264  0.42344  1.0000
  C   C1215     1.0  0.44032  0.96354  0.40829  1.0000
  C   C1216     1.0  0.42927  0.94382  0.41066  1.0000
  C   C1217     1.0  0.43765  0.94578  0.43046  1.0000
  H   H1874     1.0  0.40912  0.95574  0.43124  1.0000
  H   H1875     1.0  0.41076  0.96854  0.41452  1.0000
  H   H1876     1.0  0.20505  0.75783  0.50926  1.0000
  H   H1877     1.0  0.28821  0.92210  0.61322  1.0000
  H   H1878     1.0  0.21390  0.76585  0.48322  1.0000
  H   H1879     1.0  0.45152  0.95732  0.40454  1.0000
  H   H1880     1.0  0.43997  0.93676  0.40694  1.0000
  H   H1881     1.0  0.42471  0.94962  0.40104  1.0000
  H   H1882     1.0  0.42176  0.93682  0.41766  1.0000
  H   H1883     1.0  0.43878  0.95303  0.43662  1.0000
  H   H1884     1.0  0.44873  0.93925  0.42690  1.0000
  H   H1885     1.0  0.43104  0.93819  0.43801  1.0000
  N   N118      1.0  0.31449  0.87179  0.57456  1.0000
  C   C1218     1.0  0.31627  0.88684  0.56969  1.0000
  C   C1219     1.0  0.30048  0.87099  0.57224  1.0000
  C   C1220     1.0  0.31455  0.86679  0.58995  1.0000
  C   C1221     1.0  0.32669  0.86255  0.56644  1.0000
  H   H1886     1.0  0.30716  0.89411  0.57555  1.0000
  H   H1887     1.0  0.31651  0.89094  0.55806  1.0000
  H   H1888     1.0  0.29866  0.85981  0.57595  1.0000
  H   H1889     1.0  0.29108  0.87787  0.57825  1.0000
  H   H1890     1.0  0.30003  0.87463  0.56074  1.0000
  H   H1891     1.0  0.31232  0.85581  0.59427  1.0000
  H   H1892     1.0  0.30620  0.87415  0.59630  1.0000
  H   H1893     1.0  0.32528  0.86634  0.59201  1.0000
  H   H1894     1.0  0.32573  0.85109  0.56998  1.0000
  C   C1222     1.0  0.24887  0.81432  0.60775  1.0000
  C   C1223     1.0  0.24179  0.79323  0.62438  1.0000
  H   H1895     1.0  0.22137  0.81773  0.62389  1.0000
  H   H1896     1.0  0.26051  0.80864  0.60518  1.0000
  H   H1897     1.0  0.24749  0.81981  0.61652  1.0000
  H   H1898     1.0  0.25322  0.78685  0.62243  1.0000
  S   S499      1.0  0.32635  0.97735  0.45351  1.0000
  H   H1899     1.0  0.36877  0.97332  0.35763  1.0000
  N   N119      1.0  0.44786  0.86531  0.43733  1.0000
  C   C1224     1.0  0.44295  0.87100  0.45050  1.0000
  C   C1225     1.0  0.44150  0.87595  0.42577  1.0000
  C   C1226     1.0  0.44303  0.85174  0.44008  1.0000
  C   C1227     1.0  0.46395  0.86256  0.43297  1.0000
  H   H1900     1.0  0.44609  0.88142  0.44876  1.0000
  H   H1901     1.0  0.44772  0.86340  0.45940  1.0000
  H   H1902     1.0  0.43087  0.87295  0.45424  1.0000
  H   H1903     1.0  0.44503  0.87206  0.41564  1.0000
  H   H1904     1.0  0.42935  0.87821  0.42870  1.0000
  H   H1905     1.0  0.44483  0.88636  0.42349  1.0000
  H   H1906     1.0  0.44654  0.84714  0.43037  1.0000
  H   H1907     1.0  0.43091  0.85346  0.44333  1.0000
  H   H1908     1.0  0.44749  0.84350  0.44884  1.0000
  H   H1909     1.0  0.46914  0.85447  0.44136  1.0000
  H   H1910     1.0  0.46792  0.87253  0.43103  1.0000
  H   H1911     1.0  0.46807  0.85854  0.42289  1.0000
  N   N120      1.0  0.40032  0.89317  0.53813  1.0000
  C   C1228     1.0  0.40682  0.87990  0.54747  1.0000
  C   C1229     1.0  0.41157  0.90163  0.53047  1.0000
  C   C1230     1.0  0.38819  0.90179  0.54696  1.0000
  C   C1231     1.0  0.39471  0.88940  0.52767  1.0000
  H   H1912     1.0  0.39856  0.87340  0.55371  1.0000
  H   H1913     1.0  0.41136  0.88246  0.55532  1.0000
  H   H1914     1.0  0.41587  0.87301  0.54116  1.0000
  H   H1915     1.0  0.40711  0.91155  0.52313  1.0000
  H   H1916     1.0  0.41574  0.90503  0.53804  1.0000
  H   H1917     1.0  0.42102  0.89542  0.52386  1.0000
  H   H1918     1.0  0.37966  0.89562  0.55328  1.0000
  H   H1919     1.0  0.38283  0.91177  0.54027  1.0000
  H   H1920     1.0  0.39215  0.90511  0.55468  1.0000
  H   H1921     1.0  0.38954  0.89922  0.52061  1.0000
  H   H1922     1.0  0.38628  0.88291  0.53310  1.0000
  H   H1923     1.0  0.40359  0.88316  0.52058  1.0000
  N   N121      1.0  0.36932  0.96186  0.37929  1.0000
  H   H1924     1.0  0.44203  0.92719  0.33704  1.0000
  C   C1232     1.0  0.35715  0.97274  0.38531  1.0000
  H   H1925     1.0  0.49001  0.99104  0.62127  1.0000
  C   C1233     1.0  0.35570  0.98109  0.61476  1.0000
  H   H1926     1.0  0.33022  0.99220  0.35581  1.0000
  H   H1927     1.0  0.46077  0.97539  0.51936  1.0000
  H   H1928     1.0  0.37703  0.92994  0.63039  1.0000
  H   H1929     1.0  0.45351  0.97393  0.50528  1.0000
  H   H1930     1.0  0.02363  0.84844  0.46394  1.0000
  H   H1931     1.0  0.22515  0.88974  0.42310  1.0000
  H   H1932     1.0  0.29047  0.85897  0.61715  1.0000
  S   S500      1.0  0.28692  0.97173  0.41360  1.0000
  H   H1933     1.0  0.25180  0.88333  0.41594  1.0000
  H   H1934     1.0  0.06354  0.83690  0.46314  1.0000
  H   H1935     1.0  0.43120  0.95586  0.53839  1.0000
  H   H1936     1.0  0.31716  0.83019  0.47073  1.0000
  C   C1234     1.0  0.37647  0.97788  0.58950  1.0000
  H   H1937     1.0  0.28425  0.92944  0.63585  1.0000
  N   N122      1.0  0.23713  0.87648  0.40801  1.0000
  C   C1235     1.0  0.25092  0.88093  0.40600  1.0000
  C   C1236     1.0  0.23685  0.86290  0.41892  1.0000
  C   C1237     1.0  0.23606  0.87424  0.39433  1.0000
  C   C1238     1.0  0.22464  0.88780  0.41280  1.0000
  H   H1938     1.0  0.25182  0.89081  0.39742  1.0000
  H   H1939     1.0  0.26063  0.87235  0.40308  1.0000
  H   H1940     1.0  0.22649  0.85937  0.42083  1.0000
  H   H1941     1.0  0.24603  0.85401  0.41569  1.0000
  H   H1942     1.0  0.22581  0.87079  0.39552  1.0000
  H   H1943     1.0  0.24536  0.86576  0.39047  1.0000
  H   H1944     1.0  0.23618  0.88428  0.38582  1.0000
  H   H1945     1.0  0.21404  0.88470  0.41463  1.0000
  H   H1946     1.0  0.22440  0.89821  0.40481  1.0000
  S   S501      1.0  0.39523  0.98460  0.33975  1.0000
  S   S502      1.0  0.41069  0.94267  0.34745  1.0000
  C   C1239     1.0  0.41696  0.89758  0.35350  1.0000
  S   S503      1.0  0.27816  0.88989  0.61446  1.0000
  H   H1947     1.0  0.33740  0.86300  0.56800  1.0000
  C   C1240     1.0  0.38061  0.86212  0.34830  1.0000
  H   H1948     1.0  0.42630  0.89122  0.35851  1.0000
  H   H1949     1.0  0.41367  0.90841  0.35610  1.0000
  C   C1241     1.0  0.43386  0.95903  0.36420  1.0000
  C   C1242     1.0  0.44037  0.93310  0.37168  1.0000
  S   S504      1.0  0.17039  0.77584  0.42135  1.0000
  C   C1243     1.0  0.46439  0.88214  0.35050  1.0000
  C   C1244     1.0  0.44238  0.94670  0.37110  1.0000
  H   H1950     1.0  0.18241  0.82739  0.55594  1.0000
  C   C1245     1.0  0.38336  0.96495  0.37897  1.0000
  C   C1246     1.0  0.36839  0.94735  0.38826  1.0000
  H   H1951     1.0  0.04862  0.82669  0.43820  1.0000
  C   C1247     1.0  0.46161  0.88104  0.33788  1.0000
  H   H1952     1.0  0.07129  0.78732  0.43106  1.0000
  N   N123      1.0  0.10178  0.78955  0.52506  1.0000
  C   C1248     1.0  0.06305  0.78075  0.43712  1.0000
  H   H1953     1.0  0.32662  0.88786  0.57156  1.0000
  H   H1954     1.0  0.23774  0.86415  0.42933  1.0000
  C   C1249     1.0  0.16164  0.84901  0.46731  1.0000
  C   C1250     1.0  0.15430  0.87460  0.45859  1.0000
  H   H1955     1.0  0.16349  0.84004  0.47670  1.0000
  H   H1956     1.0  0.16463  0.87452  0.45024  1.0000
  H   H1957     1.0  0.09207  0.93948  0.49462  1.0000
  N   N124      1.0  0.23885  0.80443  0.61158  1.0000
  C   C1251     1.0  0.22361  0.81264  0.61465  1.0000
  H   H1958     1.0  0.42864  0.92134  0.36533  1.0000
  H   H1959     1.0  0.22812  0.79182  0.49351  1.0000
  H   H1960     1.0  0.27089  0.91200  0.63450  1.0000
  H   H1961     1.0  0.36287  0.94462  0.62460  1.0000
  H   H1962     1.0  0.25698  0.91786  0.62452  1.0000
  H   H1963     1.0  0.37745  0.93896  0.38394  1.0000
  H   H1964     1.0  0.38026  0.91191  0.60965  1.0000
  H   H1965     1.0  0.12387  0.82459  0.53769  1.0000
  C   C1252     1.0  0.26217  0.92134  0.63123  1.0000
  S   S505      1.0  0.16731  0.76469  0.56744  1.0000
  H   H1966     1.0  0.17213  0.84863  0.45916  1.0000
  H   H1967     1.0  0.29371  0.83908  0.44455  1.0000
  H   H1968     1.0  0.14585  0.87342  0.45377  1.0000
  H   H1969     1.0  0.22115  0.82143  0.60533  1.0000
  H   H1970     1.0  0.43543  0.96956  0.36369  1.0000
  H   H1971     1.0  0.36371  0.90153  0.33200  1.0000
  S   S506      1.0  0.31946  0.87137  0.62241  1.0000
  C   C1253     1.0  0.42387  0.95778  0.35724  1.0000
  C   C1254     1.0  0.05852  0.75842  0.45311  1.0000
  Fe  Fe248     1.0  0.29992  0.88932  0.61903  1.0000
  C   C1255     1.0  0.24114  0.79756  0.59951  1.0000
  H   H1972     1.0  0.25242  0.79101  0.59707  1.0000
  H   H1973     1.0  0.38523  0.85103  0.35273  1.0000
  C   C1256     1.0  0.05146  0.83821  0.46619  1.0000
  S   S507      1.0  0.33675  0.89656  0.62039  1.0000
  H   H1974     1.0  0.23335  0.79048  0.60172  1.0000
  H   H1975     1.0  0.39585  0.89849  0.37752  1.0000
  N   N125      1.0  0.04543  0.83905  0.45388  1.0000
  H   H1976     1.0  0.41799  0.96735  0.35129  1.0000
  H   H1977     1.0  0.30475  0.86102  0.43434  1.0000
  C   C1257     1.0  0.04771  0.85233  0.44303  1.0000
  H   H1978     1.0  0.04217  0.86210  0.44744  1.0000
  H   H1979     1.0  0.06485  0.82590  0.44367  1.0000
  H   H1980     1.0  0.25387  0.92331  0.64110  1.0000
  C   C1258     1.0  0.31412  0.94175  0.65207  1.0000
  H   H1981     1.0  0.23023  0.80761  0.55739  1.0000
  H   H1982     1.0  0.14181  0.96640  0.53315  1.0000
  S   S508      1.0  0.11381  0.75398  0.44833  1.0000
  H   H1983     1.0  0.38288  0.89403  0.35552  1.0000
  H   H1984     1.0  0.43067  0.93191  0.59713  1.0000
  H   H1985     1.0  0.40849  0.88131  0.37962  1.0000
  H   H1986     1.0  0.46955  0.92209  0.59954  1.0000
  H   H1987     1.0  0.33236  0.84032  0.43938  1.0000
  C   C1259     1.0  0.20854  0.78576  0.55764  1.0000
  S   S509      1.0  0.49651  0.88789  0.40751  1.0000
  C   C1260     1.0  0.39963  0.88804  0.37411  1.0000
  H   H1988     1.0  0.29914  0.82619  0.45977  1.0000
  H   H1989     1.0  0.38895  0.91000  0.35388  1.0000
  C   C1261     1.0  0.39253  0.89905  0.35156  1.0000
  C   C1262     1.0  0.14973  0.96776  0.55617  1.0000
  S   S510      1.0  0.36329  0.95987  0.58365  1.0000
  C   C1263     1.0  0.32232  0.83604  0.44197  1.0000
  C   C1264     1.0  0.30704  0.85921  0.44504  1.0000
  H   H1990     1.0  0.32520  0.82433  0.44674  1.0000
  S   S511      1.0  0.44735  0.87304  0.33890  1.0000
  Fe  Fe249     1.0  0.31391  0.99051  0.43672  1.0000
  C   C1265     1.0  0.36850  0.89055  0.33656  1.0000
  C   C1266     1.0  0.40947  0.87604  0.35440  1.0000
  C   C1267     1.0  0.42157  0.96697  0.60698  1.0000
  C   C1268     1.0  0.36498  0.97072  0.59388  1.0000
  C   C1269     1.0  0.35463  0.97228  0.60653  1.0000
  H   H1991     1.0  0.34588  0.96657  0.61004  1.0000
  C   C1270     1.0  0.29715  0.83786  0.45463  1.0000
  H   H1992     1.0  0.35391  0.93176  0.44078  1.0000
  H   H1993     1.0  0.28384  0.94044  0.60406  1.0000
  H   H1994     1.0  0.30590  0.84755  0.47287  1.0000
  H   H1995     1.0  0.42703  0.97467  0.50944  1.0000
  C   C1271     1.0  0.11474  0.77993  0.53009  1.0000
  S   S512      1.0  0.43430  0.97317  0.62522  1.0000
  Fe  Fe250     1.0  0.49483  0.90406  0.38699  1.0000
  C   C1272     1.0  0.22023  0.79276  0.55323  1.0000
  C   C1273     1.0  0.31467  0.84176  0.46531  1.0000
  H   H1996     1.0  0.32464  0.84600  0.46340  1.0000
  H   H1997     1.0  0.28775  0.84352  0.46179  1.0000
  H   H1998     1.0  0.15536  0.83132  0.53441  1.0000
  H   H1999     1.0  0.40196  0.98917  0.62755  1.0000
  S   S513      1.0  0.17484  0.77899  0.53284  1.0000
  Fe  Fe251     1.0  0.15493  0.77602  0.55008  1.0000
  H   H2000     1.0  0.22856  0.79088  0.54377  1.0000
  Fe  Fe252     1.0  0.31578  0.91235  0.61777  1.0000
  H   H2001     1.0  0.41891  0.86919  0.35901  1.0000
  H   H2002     1.0  0.39031  0.88249  0.37810  1.0000
  H   H2003     1.0  0.26729  0.94087  0.64238  1.0000
  H   H2004     1.0  0.15834  0.83665  0.54895  1.0000
  H   H2005     1.0  0.43663  0.91384  0.59457  1.0000
  H   H2006     1.0  0.40056  0.87002  0.35825  1.0000
  C   C1274     1.0  0.16378  0.83366  0.53846  1.0000
  H   H2007     1.0  0.16742  0.84328  0.53094  1.0000
  H   H2008     1.0  0.04344  0.85330  0.43350  1.0000
  H   H2009     1.0  0.39279  0.95711  0.37422  1.0000
  Fe  Fe253     1.0  0.11825  0.77392  0.43224  1.0000
  C   C1275     1.0  0.18269  0.78074  0.45522  1.0000
  H   H2010     1.0  0.05296  0.75646  0.44573  1.0000
  S   S514      1.0  0.20755  0.77430  0.54732  1.0000
  H   H2011     1.0  0.17519  0.81437  0.52152  1.0000
  Fe  Fe254     1.0  0.40487  0.96391  0.33238  1.0000
  H   H2012     1.0  0.09807  0.95941  0.50143  1.0000
  C   C1276     1.0  0.17574  0.77650  0.44698  1.0000
  H   H2013     1.0  0.07848  0.79446  0.53265  1.0000
  H   H2014     1.0  0.08222  0.75875  0.46162  1.0000
  Fe  Fe255     1.0  0.18728  0.76624  0.54961  1.0000
  H   H2015     1.0  0.14740  0.76172  0.51811  1.0000
  N   N126      1.0  0.17616  0.82114  0.53987  1.0000
  C   C1277     1.0  0.18301  0.81743  0.52577  1.0000
  H   H2016     1.0  0.18705  0.82660  0.51775  1.0000
  H   H2017     1.0  0.16202  0.80620  0.54667  1.0000
  H   H2018     1.0  0.19142  0.83399  0.53780  1.0000
  H   H2019     1.0  0.18063  0.77671  0.46670  1.0000
  H   H2020     1.0  0.34730  0.91548  0.44827  1.0000
  C   C1278     1.0  0.17079  0.80871  0.55002  1.0000
  C   C1279     1.0  0.18707  0.82470  0.54523  1.0000
  H   H2021     1.0  0.16625  0.81075  0.56100  1.0000
  H   H2022     1.0  0.41177  0.96735  0.61539  1.0000
  H   H2023     1.0  0.31095  0.92503  0.64401  1.0000
  Fe  Fe256     1.0  0.49501  0.91145  0.35555  1.0000
  C   C1280     1.0  0.16583  0.75343  0.48615  1.0000
  H   H2024     1.0  0.17967  0.79885  0.55071  1.0000
  C   C1281     1.0  0.35054  0.97499  0.43138  1.0000
  H   H2025     1.0  0.20750  0.76681  0.52146  1.0000
  H   H2026     1.0  0.19654  0.81548  0.54635  1.0000
  S   S515      1.0  0.13212  0.77834  0.44416  1.0000
  H   H2027     1.0  0.31885  0.96345  0.61282  1.0000
  H   H2028     1.0  0.09308  0.81223  0.51914  1.0000
  S   S516      1.0  0.13699  0.76262  0.41766  1.0000
  H   H2029     1.0  0.44417  0.90025  0.62484  1.0000
  H   H2030     1.0  0.19261  0.80820  0.52645  1.0000
  S   S517      1.0  0.31326  0.93639  0.61346  1.0000
  H   H2031     1.0  0.43596  0.96938  0.39855  1.0000
  H   H2032     1.0  0.46247  0.91628  0.58779  1.0000
  H   H2033     1.0  0.11596  0.78236  0.53991  1.0000
  H   H2034     1.0  0.16846  0.76920  0.45209  1.0000
  C   C1282     1.0  0.36420  0.96766  0.42489  1.0000
  H   H2035     1.0  0.22137  0.78614  0.51234  1.0000
  C   C1283     1.0  0.27903  0.93100  0.61034  1.0000
  Fe  Fe257     1.0  0.29645  0.98801  0.41751  1.0000
  C   C1284     1.0  0.35370  0.93011  0.61070  1.0000
  H   H2036     1.0  0.37769  0.95464  0.35949  1.0000
  C   C1285     1.0  0.25618  0.94628  0.61911  1.0000
  C   C1286     1.0  0.44078  0.95915  0.53038  1.0000
  Fe  Fe258     1.0  0.32250  0.88321  0.63731  1.0000
  H   H2037     1.0  0.13834  0.95098  0.54703  1.0000
  C   C1287     1.0  0.22168  0.77065  0.48575  1.0000
  H   H2038     1.0  0.10428  0.80729  0.53191  1.0000
  Fe  Fe259     1.0  0.17394  0.75811  0.52915  1.0000
  Fe  Fe260     1.0  0.15082  0.76541  0.43105  1.0000
  C   C1288     1.0  0.31755  0.95737  0.62378  1.0000
  H   H2039     1.0  0.35735  0.91670  0.64516  1.0000
  H   H2040     1.0  0.24018  0.79805  0.63369  1.0000
  H   H2041     1.0  0.45785  0.94873  0.33828  1.0000
  C   C1289     1.0  0.38763  0.86911  0.33490  1.0000
  C   C1290     1.0  0.02965  0.83921  0.45881  1.0000
  Fe  Fe261     1.0  0.38006  0.98858  0.32524  1.0000
  H   H2042     1.0  0.46285  0.90168  0.61816  1.0000
  H   H2043     1.0  0.49426  0.88556  0.43733  1.0000
  N   N127      1.0  0.44766  0.91880  0.60787  1.0000
  N   N128      1.0  0.36187  0.92407  0.62224  1.0000
  H   H2044     1.0  0.35426  0.92051  0.42932  1.0000
  H   H2045     1.0  0.25069  0.94357  0.61213  1.0000
  H   H2046     1.0  0.15582  0.75158  0.47023  1.0000
  C   C1291     1.0  0.36667  0.98892  0.61001  1.0000
  S   S518      1.0  0.17862  0.75458  0.50683  1.0000
  H   H2047     1.0  0.06327  0.74776  0.45934  1.0000
  H   H2048     1.0  0.09992  0.77509  0.51338  1.0000
  H   H2049     1.0  0.45402  0.89621  0.60776  1.0000
  Fe  Fe262     1.0  0.47439  0.95296  0.65328  1.0000
  C   C1292     1.0  0.16353  0.75618  0.49973  1.0000
  C   C1293     1.0  0.34439  0.96989  0.44579  1.0000
  S   S519      1.0  0.30160  0.89979  0.63578  1.0000
  H   H2050     1.0  0.05158  0.81624  0.45536  1.0000
  H   H2051     1.0  0.08870  0.78976  0.54631  1.0000
  Fe  Fe263     1.0  0.12973  0.75716  0.45893  1.0000
  C   C1294     1.0  0.31707  0.95552  0.64869  1.0000
  S   S520      1.0  0.12466  0.75669  0.48256  1.0000
  H   H2052     1.0  0.02464  0.84000  0.44981  1.0000
  C   C1295     1.0  0.31478  0.94353  0.62714  1.0000
  N   N129      1.0  0.43800  0.97495  0.52526  1.0000
  H   H2053     1.0  0.41528  0.97689  0.52630  1.0000
  C   C1296     1.0  0.35155  0.92149  0.63621  1.0000
  H   H2054     1.0  0.12489  0.78123  0.52181  1.0000
  S   S521      1.0  0.15305  0.75599  0.54521  1.0000
  H   H2055     1.0  0.23439  0.78560  0.62753  1.0000
  H   H2056     1.0  0.23201  0.76241  0.48624  1.0000
  H   H2057     1.0  0.32111  0.97389  0.63183  1.0000
  H   H2058     1.0  0.11616  0.94879  0.50194  1.0000
  H   H2059     1.0  0.04997  0.76427  0.46081  1.0000
  H   H2060     1.0  0.04683  0.84806  0.47063  1.0000
  H   H2061     1.0  0.41714  0.97065  0.42893  1.0000
  H   H2062     1.0  0.43560  0.92500  0.62767  1.0000
  S   S522      1.0  0.49680  0.90413  0.33560  1.0000
  N   N130      1.0  0.21543  0.77569  0.49926  1.0000
  H   H2063     1.0  0.37791  0.90517  0.62867  1.0000
  H   H2064     1.0  0.12468  0.94303  0.46491  1.0000
  N   N131      1.0  0.26813  0.93423  0.62331  1.0000
  H   H2065     1.0  0.45631  0.93447  0.59011  1.0000
  C   C1297     1.0  0.14928  0.75944  0.50774  1.0000
  C   C1298     1.0  0.15394  0.75383  0.48066  1.0000
  H   H2066     1.0  0.08718  0.77604  0.53855  1.0000
  C   C1299     1.0  0.08846  0.78732  0.53615  1.0000
  C   C1300     1.0  0.31312  0.93570  0.64130  1.0000
  C   C1301     1.0  0.31886  0.96329  0.63450  1.0000
  C   C1302     1.0  0.13973  0.75675  0.48883  1.0000
  H   H2067     1.0  0.34393  0.93166  0.63847  1.0000
  H   H2068     1.0  0.19347  0.78169  0.49609  1.0000
  H   H2069     1.0  0.45408  0.92722  0.62224  1.0000
  Fe  Fe264     1.0  0.48929  0.95964  0.62237  1.0000
  C   C1303     1.0  0.20165  0.78643  0.49802  1.0000
  H   H2070     1.0  0.42533  0.97892  0.54577  1.0000
  H   H2071     1.0  0.36891  0.97157  0.41377  1.0000
  H   H2072     1.0  0.44163  0.95325  0.33151  1.0000
  H   H2073     1.0  0.08970  0.76464  0.42894  1.0000
  H   H2074     1.0  0.14088  0.96344  0.56460  1.0000
  H   H2075     1.0  0.11248  0.80691  0.51345  1.0000
  H   H2076     1.0  0.42535  0.91737  0.61140  1.0000
  H   H2077     1.0  0.02767  0.82917  0.46685  1.0000
  C   C1304     1.0  0.43449  0.92054  0.60252  1.0000
  C   C1305     1.0  0.34776  0.92479  0.43894  1.0000
  C   C1306     1.0  0.37720  0.98717  0.59748  1.0000
  C   C1307     1.0  0.13744  0.75951  0.50239  1.0000
  S   S523      1.0  0.47781  0.91005  0.63454  1.0000
  H   H2078     1.0  0.38455  0.97664  0.57975  1.0000
  H   H2079     1.0  0.27426  0.92760  0.60325  1.0000
  C   C1308     1.0  0.37197  0.91032  0.61987  1.0000
  H   H2080     1.0  0.08840  0.96423  0.47965  1.0000
  H   H2081     1.0  0.11411  0.76844  0.53264  1.0000
  H   H2082     1.0  0.10391  0.97158  0.46907  1.0000
  S   S524      1.0  0.49280  0.93502  0.35361  1.0000
  H   H2083     1.0  0.21567  0.80568  0.61701  1.0000
  H   H2084     1.0  0.23638  0.77460  0.50299  1.0000
  H   H2085     1.0  0.38438  0.97590  0.37245  1.0000
  C   C1309     1.0  0.27516  0.93828  0.63249  1.0000
  H   H2086     1.0  0.19037  0.79459  0.41410  1.0000
  H   H2087     1.0  0.45022  0.95502  0.53567  1.0000
  H   H2088     1.0  0.11081  0.78794  0.50308  1.0000
  H   H2089     1.0  0.11379  0.96652  0.49094  1.0000
  H   H2090     1.0  0.22277  0.75520  0.51261  1.0000
  C   C1310     1.0  0.36846  0.96242  0.36457  1.0000
  H   H2091     1.0  0.38447  0.96438  0.38994  1.0000
  H   H2092     1.0  0.26033  0.95615  0.61309  1.0000
  H   H2093     1.0  0.22404  0.77967  0.47651  1.0000
  H   H2094     1.0  0.44141  0.97166  0.41345  1.0000
  H   H2095     1.0  0.35826  0.98383  0.37941  1.0000
  S   S525      1.0  0.47140  0.97294  0.63608  1.0000
  S   S526      1.0  0.18836  0.74528  0.54429  1.0000
  H   H2096     1.0  0.45895  0.92261  0.34282  1.0000
  H   H2097     1.0  0.08519  0.77562  0.44989  1.0000
  C   C1311     1.0  0.09985  0.96144  0.47355  1.0000
  H   H2098     1.0  0.08650  0.74801  0.44083  1.0000
  C   C1312     1.0  0.10094  0.78638  0.51171  1.0000
  S   S527      1.0  0.32051  0.98404  0.41567  1.0000
  H   H2099     1.0  0.36906  0.94655  0.39944  1.0000
  H   H2100     1.0  0.09131  0.79354  0.50760  1.0000
  Fe  Fe265     1.0  0.47576  0.93315  0.63465  1.0000
  H   H2101     1.0  0.24772  0.94900  0.62864  1.0000
  H   H2102     1.0  0.07617  0.75658  0.42722  1.0000
  H   H2103     1.0  0.17004  0.93617  0.54750  1.0000
  H   H2104     1.0  0.38208  0.98292  0.64783  1.0000
  H   H2105     1.0  0.35812  0.95989  0.36441  1.0000
  Fe  Fe266     1.0  0.16734  0.74462  0.56083  1.0000
  H   H2106     1.0  0.34648  0.94081  0.61173  1.0000
  C   C1313     1.0  0.15623  0.99270  0.50497  1.0000
  C   C1314     1.0  0.43502  0.98178  0.53750  1.0000
  H   H2107     1.0  0.34640  0.97159  0.38461  1.0000
  H   H2108     1.0  0.16470  0.97509  0.52967  1.0000
  H   H2109     1.0  0.17755  0.96533  0.54054  1.0000
  H   H2110     1.0  0.34478  0.98460  0.42526  1.0000
  C   C1315     1.0  0.08101  0.75862  0.43512  1.0000
  H   H2111     1.0  0.15270  0.94890  0.53142  1.0000
  S   S528      1.0  0.14918  0.74408  0.44647  1.0000
  C   C1316     1.0  0.38160  0.88334  0.32899  1.0000
  C   C1317     1.0  0.47007  0.88649  0.32466  1.0000
  H   H2112     1.0  0.47997  0.93268  0.32722  1.0000
  C   C1318     1.0  0.50105  0.99101  0.62118  1.0000
  C   C1319     1.0  0.45373  0.95038  0.32847  1.0000
  H   H2113     1.0  0.42279  0.99170  0.51451  1.0000
  H   H2114     1.0  0.40798  0.97380  0.65024  1.0000
  C   C1320     1.0  0.45411  0.92507  0.33331  1.0000
  C   C1321     1.0  0.45059  0.90926  0.65258  1.0000
  C   C1322     1.0  0.46591  0.88663  0.64774  1.0000
  N   N132      1.0  0.45884  0.93740  0.32239  1.0000
  H   H2115     1.0  0.47607  0.88055  0.64254  1.0000
  C   C1323     1.0  0.46389  0.90150  0.64595  1.0000
  S   S529      1.0  0.45730  0.94459  0.64926  1.0000
  H   H2116     1.0  0.45742  0.91519  0.32899  1.0000
  C   C1324     1.0  0.48127  0.89305  0.32407  1.0000
  S   S530      1.0  0.00703  0.77566  0.48516  1.0000
  S   S531      1.0  0.00687  0.80450  0.45924  1.0000
  H   H2117     1.0  0.41814  0.98600  0.65079  1.0000
  H   H2118     1.0  0.44859  0.92075  0.65078  1.0000
  H   H2119     1.0  0.44925  0.99083  0.51051  1.0000
  C   C1325     1.0  0.38193  0.99243  0.65176  1.0000
  H   H2120     1.0  0.45737  0.95987  0.32068  1.0000
  S   S532      1.0  0.28981  0.99296  0.43936  1.0000
  H   H2121     1.0  0.32683  0.99283  0.60922  1.0000
  N   N133      1.0  0.47606  0.88695  0.97940  1.0000
  Fe  Fe267     1.0  0.46612  0.83189  0.95538  1.0000
  S   S533      1.0  0.48168  0.84252  0.93691  1.0000
  S   S534      1.0  0.44933  0.82121  0.95365  1.0000
  Fe  Fe268     1.0  0.47626  0.85977  0.94924  1.0000
  S   S535      1.0  0.47186  0.88355  0.93954  1.0000
  C   C1326     1.0  0.46679  0.96793  0.69426  1.0000
  H   H2122     1.0  0.45643  0.86805  0.65746  1.0000
  Fe  Fe269     1.0  0.48653  0.93154  0.84495  1.0000
  C   C1327     1.0  0.43477  0.92160  0.79119  1.0000
  S   S536      1.0  0.46385  0.93302  0.84311  1.0000
  S   S537      1.0  0.41877  0.96397  0.73740  1.0000
  N   N134      1.0  0.49203  0.76049  0.93601  1.0000
  H   H2123     1.0  0.36715  0.94379  0.69356  1.0000
  N   N135      1.0  0.44163  0.92769  0.77631  1.0000
  C   C1328     1.0  0.49736  0.87801  0.91973  1.0000
  H   H2124     1.0  0.32377  0.90179  0.65812  1.0000
  S   S538      1.0  0.49149  0.93644  0.86352  1.0000
  C   C1329     1.0  0.37930  0.98744  0.73754  1.0000
  H   H2125     1.0  0.45958  0.90935  0.77514  1.0000
  H   H2126     1.0  0.46653  0.78774  0.85234  1.0000
  S   S539      1.0  0.43818  0.78285  0.85764  1.0000
  Fe  Fe270     1.0  0.40904  0.89029  0.68708  1.0000
  S   S540      1.0  0.41230  0.89729  0.70522  1.0000
  S   S541      1.0  0.42793  0.87808  0.67327  1.0000
  Fe  Fe271     1.0  0.37613  0.90132  0.69357  1.0000
  S   S542      1.0  0.37650  0.90914  0.71262  1.0000
  S   S543      1.0  0.35520  0.90780  0.68550  1.0000
  Fe  Fe272     1.0  0.39602  0.91746  0.69870  1.0000
  S   S544      1.0  0.39779  0.94044  0.69538  1.0000
  Fe  Fe273     1.0  0.39264  0.88837  0.71773  1.0000
  S   S545      1.0  0.39270  0.87449  0.73989  1.0000
  S   S546      1.0  0.39459  0.91126  0.67923  1.0000
  S   S547      1.0  0.39051  0.87971  0.70002  1.0000
  H   H2127     1.0  0.36019  0.96185  0.68475  1.0000
  S   S548      1.0  0.34878  0.98280  0.65636  1.0000
  H   H2128     1.0  0.45629  0.92010  0.75811  1.0000
  H   H2129     1.0  0.46791  0.90169  0.96159  1.0000
  C   C1330     1.0  0.37122  0.97090  0.72936  1.0000
  Fe  Fe274     1.0  0.44211  0.77133  0.87963  1.0000
  C   C1331     1.0  0.46201  0.99183  0.82271  1.0000
  C   C1332     1.0  0.46203  0.96937  0.84024  1.0000
  C   C1333     1.0  0.48076  0.75626  0.93181  1.0000
  S   S549      1.0  0.46936  0.78877  0.90312  1.0000
  H   H2130     1.0  0.37641  0.97518  0.71811  1.0000
  S   S550      1.0  0.43283  0.78054  0.89927  1.0000
  C   C1334     1.0  0.50102  0.88446  0.82425  1.0000
  H   H2131     1.0  0.48571  0.74966  0.92358  1.0000
  Fe  Fe275     1.0  0.45805  0.88007  0.80310  1.0000
  S   S551      1.0  0.45542  0.87651  0.78292  1.0000
  S   S552      1.0  0.47336  0.89462  0.79919  1.0000
  Fe  Fe276     1.0  0.43721  0.86104  0.82170  1.0000
  S   S553      1.0  0.43229  0.85662  0.80281  1.0000
  S   S554      1.0  0.42843  0.85086  0.84465  1.0000
  Fe  Fe277     1.0  0.45651  0.85363  0.79448  1.0000
  S   S555      1.0  0.46896  0.83532  0.78392  1.0000
  Fe  Fe278     1.0  0.43162  0.88012  0.79309  1.0000
  S   S556      1.0  0.41828  0.89720  0.77877  1.0000
  S   S557      1.0  0.46151  0.85665  0.81387  1.0000
  S   S558      1.0  0.43417  0.88498  0.81281  1.0000
  C   C1335     1.0  0.43518  0.80178  0.85401  1.0000
  C   C1336     1.0  0.44041  0.80938  0.84019  1.0000
  C   C1337     1.0  0.43844  0.82444  0.83722  1.0000
  C   C1338     1.0  0.43082  0.83201  0.84796  1.0000
  C   C1339     1.0  0.42522  0.82444  0.86165  1.0000
  C   C1340     1.0  0.42758  0.80936  0.86473  1.0000
  H   H2132     1.0  0.44603  0.80364  0.83175  1.0000
  H   H2133     1.0  0.44270  0.83018  0.82658  1.0000
  H   H2134     1.0  0.41887  0.83027  0.86984  1.0000
  H   H2135     1.0  0.42310  0.80363  0.87528  1.0000
  H   H2136     1.0  0.44313  0.91502  0.79740  1.0000
  H   H2137     1.0  0.38458  0.99214  0.72642  1.0000
  C   C1341     1.0  0.40959  0.96604  0.71310  1.0000
  H   H2138     1.0  0.49591  0.85977  0.85558  1.0000
  H   H2139     1.0  0.49297  0.74369  0.89657  1.0000
  H   H2140     1.0  0.33909  0.93939  0.67788  1.0000
  H   H2141     1.0  0.46443  0.95845  0.70225  1.0000
  N   N136      1.0  0.48810  0.78660  0.83911  1.0000
  Fe  Fe279     1.0  0.45601  0.77432  0.90174  1.0000
  H   H2142     1.0  0.42307  0.92897  0.76811  1.0000
  C   C1342     1.0  0.39909  0.88126  0.75091  1.0000
  C   C1343     1.0  0.40308  0.89457  0.74610  1.0000
  C   C1344     1.0  0.40878  0.89949  0.75483  1.0000
  C   C1345     1.0  0.41075  0.89099  0.76825  1.0000
  C   C1346     1.0  0.40669  0.87772  0.77311  1.0000
  C   C1347     1.0  0.40068  0.87295  0.76451  1.0000
  H   H2143     1.0  0.40168  0.90109  0.73571  1.0000
  H   H2144     1.0  0.41178  0.90983  0.75111  1.0000
  H   H2145     1.0  0.40791  0.87127  0.78359  1.0000
  H   H2146     1.0  0.39734  0.86277  0.76835  1.0000
  C   C1348     1.0  0.34939  0.89751  0.67715  1.0000
  S   S559      1.0  0.47703  0.95041  0.67545  1.0000
  H   H2147     1.0  0.49981  0.76689  0.83245  1.0000
  C   C1349     1.0  0.33859  0.88182  0.66430  1.0000
  C   C1350     1.0  0.35000  0.87502  0.67149  1.0000
  C   C1351     1.0  0.35554  0.88288  0.67773  1.0000
  C   C1352     1.0  0.49071  0.88257  0.97051  1.0000
  H   H2148     1.0  0.48133  0.97856  0.65880  1.0000
  H   H2149     1.0  0.35455  0.86362  0.67227  1.0000
  H   H2150     1.0  0.36430  0.87754  0.68329  1.0000
  C   C1353     1.0  0.45224  0.99199  0.84775  1.0000
  C   C1354     1.0  0.46289  0.98124  0.69808  1.0000
  C   C1355     1.0  0.40499  0.96069  0.70393  1.0000
  C   C1356     1.0  0.40262  0.94671  0.70788  1.0000
  C   C1357     1.0  0.40463  0.93814  0.72126  1.0000
  C   C1358     1.0  0.48522  0.82695  0.78986  1.0000
  H   H2151     1.0  0.45951  0.93129  0.78238  1.0000
  H   H2152     1.0  0.40358  0.96733  0.69357  1.0000
  H   H2153     1.0  0.40267  0.92736  0.72446  1.0000
  Fe  Fe280     1.0  0.43182  0.75757  0.91084  1.0000
  H   H2154     1.0  0.46332  0.96332  0.85120  1.0000
  H   H2155     1.0  0.50180  0.94114  0.89348  1.0000
  C   C1359     1.0  0.43953  0.90215  0.66123  1.0000
  C   C1360     1.0  0.44164  0.88728  0.66299  1.0000
  C   C1361     1.0  0.33270  0.89652  0.66344  1.0000
  H   H2156     1.0  0.45114  0.96887  0.83922  1.0000
  H   H2157     1.0  0.41129  0.93677  0.74062  1.0000
  H   H2158     1.0  0.42927  0.90819  0.66630  1.0000
  C   C1362     1.0  0.47320  0.96700  0.68007  1.0000
  C   C1363     1.0  0.45649  0.83166  0.88899  1.0000
  H   H2159     1.0  0.44432  0.90847  0.76906  1.0000
  C   C1364     1.0  0.46545  0.92341  0.83024  1.0000
  C   C1365     1.0  0.47759  0.92304  0.81881  1.0000
  C   C1366     1.0  0.47949  0.91468  0.80897  1.0000
  C   C1367     1.0  0.46954  0.90624  0.81078  1.0000
  C   C1368     1.0  0.45723  0.90673  0.82207  1.0000
  C   C1369     1.0  0.45509  0.91548  0.83172  1.0000
  H   H2160     1.0  0.48562  0.92914  0.81758  1.0000
  H   H2161     1.0  0.48903  0.91433  0.80024  1.0000
  H   H2162     1.0  0.44952  0.90020  0.82358  1.0000
  H   H2163     1.0  0.44572  0.91569  0.84061  1.0000
  H   H2164     1.0  0.35092  0.92659  0.70386  1.0000
  H   H2165     1.0  0.45609  0.94210  0.76536  1.0000
  C   C1370     1.0  0.43016  0.93594  0.76832  1.0000
  H   H2166     1.0  0.46839  0.78447  0.83508  1.0000
  S   S560      1.0  0.31843  0.96266  0.66246  1.0000
  H   H2167     1.0  0.48859  0.96915  0.89504  1.0000
  C   C1371     1.0  0.48406  0.88762  0.92308  1.0000
  H   H2168     1.0  0.49312  0.77339  0.94967  1.0000
  H   H2169     1.0  0.46536  0.87673  0.97020  1.0000
  C   C1372     1.0  0.45480  0.87956  0.65617  1.0000
  C   C1373     1.0  0.49030  0.90390  0.90009  1.0000
  C   C1374     1.0  0.48059  0.90062  0.91330  1.0000
  C   C1375     1.0  0.49115  0.81239  0.78984  1.0000
  C   C1376     1.0  0.49711  0.97241  0.88605  1.0000
  H   H2170     1.0  0.48746  0.91383  0.89251  1.0000
  H   H2171     1.0  0.47026  0.90803  0.91585  1.0000
  C   C1377     1.0  0.45533  0.81124  0.94033  1.0000
  C   C1378     1.0  0.46866  0.81196  0.93061  1.0000
  C   C1379     1.0  0.47289  0.80483  0.91935  1.0000
  C   C1380     1.0  0.46396  0.79674  0.91789  1.0000
  C   C1381     1.0  0.45085  0.79555  0.92787  1.0000
  C   C1382     1.0  0.44649  0.80290  0.93906  1.0000
  H   H2172     1.0  0.47562  0.81818  0.93163  1.0000
  H   H2173     1.0  0.48305  0.80571  0.91165  1.0000
  H   H2174     1.0  0.43619  0.80228  0.94664  1.0000
  C   C1383     1.0  0.49930  0.86948  0.84805  1.0000
  H   H2175     1.0  0.35828  0.93604  0.67711  1.0000
  C   C1384     1.0  0.33794  0.90427  0.67002  1.0000
  Fe  Fe281     1.0  0.47737  0.83859  0.97780  1.0000
  H   H2176     1.0  0.37807  0.98998  0.66360  1.0000
  C   C1385     1.0  0.50072  0.76852  0.92325  1.0000
  S   S561      1.0  0.43924  0.74886  0.89093  1.0000
  H   H2177     1.0  0.48080  0.80504  0.82327  1.0000
  H   H2178     1.0  0.43493  0.94066  0.75702  1.0000
  H   H2179     1.0  0.35518  0.95646  0.70385  1.0000
  N   N137      1.0  0.49642  0.87139  0.83378  1.0000
  C   C1386     1.0  0.48066  0.87290  0.83516  1.0000
  H   H2180     1.0  0.49774  0.89018  0.96907  1.0000
  H   H2181     1.0  0.49005  0.88213  0.95967  1.0000
  H   H2182     1.0  0.42761  0.91449  0.79153  1.0000
  H   H2183     1.0  0.37938  0.96158  0.73374  1.0000
  H   H2184     1.0  0.35042  0.97161  0.75353  1.0000
  H   H2185     1.0  0.50182  0.84863  0.83461  1.0000
  H   H2186     1.0  0.42298  0.94500  0.77320  1.0000
  H   H2187     1.0  0.42791  0.93019  0.79690  1.0000
  N   N138      1.0  0.44057  0.83264  0.89343  1.0000
  C   C1387     1.0  0.43323  0.84463  0.88342  1.0000
  H   H2188     1.0  0.33371  0.97000  0.68483  1.0000
  C   C1388     1.0  0.43739  0.81899  0.89319  1.0000
  C   C1389     1.0  0.43521  0.83527  0.90808  1.0000
  H   H2189     1.0  0.42120  0.84559  0.88627  1.0000
  H   H2190     1.0  0.43714  0.84304  0.87224  1.0000
  H   H2191     1.0  0.45935  0.84159  0.88945  1.0000
  H   H2192     1.0  0.33916  0.93856  0.71495  1.0000
  H   H2193     1.0  0.32879  0.96364  0.70377  1.0000
  H   H2194     1.0  0.34880  0.95348  0.66950  1.0000
  H   H2195     1.0  0.44204  0.80986  0.90121  1.0000
  H   H2196     1.0  0.44218  0.81614  0.88257  1.0000
  H   H2197     1.0  0.42545  0.81957  0.89565  1.0000
  H   H2198     1.0  0.44079  0.82659  0.91583  1.0000
  H   H2199     1.0  0.42329  0.83571  0.91193  1.0000
  H   H2200     1.0  0.43722  0.84557  0.90867  1.0000
  N   N139      1.0  0.44078  0.84446  0.75637  1.0000
  C   C1390     1.0  0.43142  0.84713  0.74614  1.0000
  C   C1391     1.0  0.43279  0.83921  0.77105  1.0000
  C   C1392     1.0  0.44484  0.85797  0.75566  1.0000
  C   C1393     1.0  0.45413  0.83351  0.75263  1.0000
  H   H2201     1.0  0.43709  0.85113  0.73494  1.0000
  H   H2202     1.0  0.42126  0.85537  0.74854  1.0000
  H   H2203     1.0  0.42804  0.83721  0.74645  1.0000
  H   H2204     1.0  0.43963  0.83699  0.77900  1.0000
  H   H2205     1.0  0.42273  0.84727  0.77430  1.0000
  H   H2206     1.0  0.42944  0.82908  0.77201  1.0000
  H   H2207     1.0  0.45184  0.85631  0.76334  1.0000
  H   H2208     1.0  0.43502  0.86650  0.75837  1.0000
  H   H2209     1.0  0.45099  0.86221  0.74478  1.0000
  H   H2210     1.0  0.46148  0.83124  0.76011  1.0000
  H   H2211     1.0  0.46047  0.83711  0.74164  1.0000
  H   H2212     1.0  0.45149  0.82313  0.75317  1.0000
  C   C1394     1.0  0.40951  0.94348  0.73038  1.0000
  H   H2213     1.0  0.44393  0.78926  0.92681  1.0000
  C   C1395     1.0  0.49503  0.78334  0.85139  1.0000
  H   H2214     1.0  0.33205  0.93222  0.70357  1.0000
  H   H2215     1.0  0.34589  0.99048  0.73162  1.0000
  C   C1396     1.0  0.47629  0.97928  0.66977  1.0000
  H   H2216     1.0  0.45782  0.90505  0.97882  1.0000
  H   H2217     1.0  0.48779  0.84586  0.79464  1.0000
  Fe  Fe282     1.0  0.42177  0.98712  0.72958  1.0000
  H   H2218     1.0  0.47676  0.86330  0.84240  1.0000
  H   H2219     1.0  0.46240  0.82246  0.89604  1.0000
  N   N140      1.0  0.44754  0.92565  0.69698  1.0000
  C   C1397     1.0  0.44068  0.94116  0.69394  1.0000
  C   C1398     1.0  0.43631  0.91747  0.70558  1.0000
  C   C1399     1.0  0.45893  0.92309  0.70503  1.0000
  C   C1400     1.0  0.45415  0.92085  0.68337  1.0000
  H   H2220     1.0  0.44867  0.94772  0.68716  1.0000
  H   H2221     1.0  0.43591  0.94522  0.70396  1.0000
  H   H2222     1.0  0.43180  0.94343  0.68814  1.0000
  H   H2223     1.0  0.44078  0.90565  0.70727  1.0000
  H   H2224     1.0  0.43173  0.92012  0.71630  1.0000
  H   H2225     1.0  0.42707  0.92002  0.70018  1.0000
  H   H2226     1.0  0.46424  0.91147  0.70757  1.0000
  H   H2227     1.0  0.45432  0.92679  0.71526  1.0000
  H   H2228     1.0  0.46764  0.92903  0.69878  1.0000
  H   H2229     1.0  0.45907  0.90910  0.68519  1.0000
  H   H2230     1.0  0.46298  0.92652  0.67678  1.0000
  H   H2231     1.0  0.44587  0.92298  0.67690  1.0000
  S   S562      1.0  0.46537  0.76642  0.88146  1.0000
  H   H2232     1.0  0.47307  0.76585  0.92717  1.0000
  C   C1401     1.0  0.49206  0.83451  0.79501  1.0000
  H   H2233     1.0  0.33304  0.91554  0.66966  1.0000
  H   H2234     1.0  0.48704  0.97881  0.83139  1.0000
  S   S563      1.0  0.49403  0.84955  0.96132  1.0000
  H   H2235     1.0  0.47540  0.90958  0.97132  1.0000
  C   C1402     1.0  0.36010  0.97579  0.75285  1.0000
  H   H2236     1.0  0.47237  0.86551  0.98532  1.0000
  H   H2237     1.0  0.47546  0.77031  0.84870  1.0000
  H   H2238     1.0  0.47416  0.74993  0.94111  1.0000
  H   H2239     1.0  0.38137  0.98525  0.69255  1.0000
  H   H2240     1.0  0.47816  0.87417  0.82461  1.0000
  C   C1403     1.0  0.41215  0.95745  0.72623  1.0000
  H   H2241     1.0  0.48800  0.78908  0.85989  1.0000
  C   C1404     1.0  0.45075  0.93728  0.77642  1.0000
  H   H2242     1.0  0.44413  0.94630  0.78165  1.0000
  H   H2243     1.0  0.32202  0.95746  0.69202  1.0000
  H   H2244     1.0  0.31266  0.93571  0.66305  1.0000
  H   H2245     1.0  0.47769  0.80846  0.84071  1.0000
  H   H2246     1.0  0.47835  0.76406  0.95633  1.0000
  Fe  Fe283     1.0  0.46164  0.74509  0.89479  1.0000
  S   S564      1.0  0.45914  0.85022  0.96654  1.0000
  H   H2247     1.0  0.49643  0.87171  0.97549  1.0000
  H   H2248     1.0  0.49195  0.96268  0.87182  1.0000
  H   H2249     1.0  0.48598  0.80653  0.78578  1.0000
  N   N141      1.0  0.34460  0.94833  0.69251  1.0000
  C   C1405     1.0  0.35732  0.95280  0.69375  1.0000
  C   C1406     1.0  0.34784  0.94415  0.67866  1.0000
  C   C1407     1.0  0.33169  0.96037  0.69336  1.0000
  C   C1408     1.0  0.34152  0.93593  0.70430  1.0000
  C   C1409     1.0  0.45087  0.91590  0.76933  1.0000
  H   H2250     1.0  0.45762  0.98194  0.70899  1.0000
  S   S565      1.0  0.48292  0.81935  0.96817  1.0000
  C   C1410     1.0  0.48549  0.80225  0.83292  1.0000
  C   C1411     1.0  0.47405  0.78206  0.84401  1.0000
  H   H2251     1.0  0.41137  0.97677  0.70981  1.0000
  H   H2252     1.0  0.47036  0.96335  0.83258  1.0000
  H   H2253     1.0  0.46084  0.82994  0.87788  1.0000
  H   H2254     1.0  0.43528  0.85512  0.88339  1.0000
  C   C1412     1.0  0.49901  0.96875  0.87294  1.0000
  S   S566      1.0  0.45421  0.75243  0.91537  1.0000
  S   S567      1.0  0.41447  0.74965  0.92950  1.0000
  Fe  Fe284     1.0  0.32554  0.98368  0.65705  1.0000
  H   H2255     1.0  0.35652  0.98392  0.75959  1.0000
  S   S568      1.0  0.50187  0.94370  0.82795  1.0000
  C   C1413     1.0  0.47815  0.98437  0.83906  1.0000
  H   H2256     1.0  0.45114  0.99205  0.82108  1.0000
  S   S569      1.0  0.33137  0.87168  0.65704  1.0000
  C   C1414     1.0  0.46899  0.90149  0.97250  1.0000
  S   S570      1.0  0.50235  0.91029  0.84597  1.0000
  H   H2257     1.0  0.49707  0.77162  0.85637  1.0000
  H   H2258     1.0  0.47744  0.77962  0.94194  1.0000
  H   H2259     1.0  0.36813  0.96668  0.75771  1.0000
  Fe  Fe285     1.0  0.49804  0.83131  0.95060  1.0000
  H   H2260     1.0  0.36185  0.96676  0.72911  1.0000
  H   H2261     1.0  0.49341  0.87897  0.85284  1.0000
  H   H2262     1.0  0.40373  0.98126  0.66579  1.0000
  H   H2263     1.0  0.47410  0.88254  0.83945  1.0000
  C   C1415     1.0  0.48494  0.76975  0.94648  1.0000
  H   H2264     1.0  0.49384  0.77840  0.91796  1.0000
  H   H2265     1.0  0.38778  0.97869  0.74213  1.0000
  N   N142      1.0  0.36654  0.98206  0.73788  1.0000
  H   H2266     1.0  0.50013  0.86798  0.92724  1.0000
  H   H2267     1.0  0.49298  0.78112  0.81866  1.0000
  C   C1416     1.0  0.49778  0.77873  0.82816  1.0000
  H   H2268     1.0  0.49924  0.88615  0.81330  1.0000
  S   S571      1.0  0.35248  0.99236  0.68770  1.0000
  H   H2269     1.0  0.47980  0.97876  0.85002  1.0000
  H   H2270     1.0  0.49485  0.89423  0.82843  1.0000
  N   N143      1.0  0.46359  0.98438  0.83744  1.0000
  H   H2271     1.0  0.50267  0.85987  0.81689  1.0000
  H   H2272     1.0  0.47047  0.98643  0.81464  1.0000
  H   H2273     1.0  0.45321  0.98675  0.85897  1.0000
  H   H2274     1.0  0.49580  0.80617  0.82961  1.0000
  H   H2275     1.0  0.44109  0.99218  0.84688  1.0000
  C   C1417     1.0  0.46708  0.87668  0.98077  1.0000
  S   S572      1.0  0.50353  0.98539  0.90366  1.0000
  C   C1418     1.0  0.50173  0.74744  0.94249  1.0000
  C   C1419     1.0  0.40701  0.98372  0.65389  1.0000
  C   C1420     1.0  0.47271  0.99257  0.67369  1.0000
  C   C1421     1.0  0.50367  0.89433  0.89683  1.0000
  C   C1422     1.0  0.50358  0.80529  0.79539  1.0000
  H   H2276     1.0  0.54993  0.15721  0.12713  1.0000
  S   S573      1.0  0.54435  0.02820  0.12831  1.0000
  Fe  Fe286     1.0  0.56454  0.01046  0.15944  1.0000
  S   S574      1.0  0.54927  0.03201  0.15837  1.0000
  H   H2277     1.0  0.53356  0.16527  0.19215  1.0000
  Fe  Fe287     1.0  0.53501  0.02212  0.15179  1.0000
  H   H2278     1.0  0.62445  0.07061  0.07674  1.0000
  Fe  Fe288     1.0  0.55990  0.03643  0.13509  1.0000
  S   S575      1.0  0.56349  0.05888  0.12581  1.0000
  C   C1423     1.0  0.68949  0.23413  0.99211  1.0000
  S   S576      1.0  0.57668  0.01564  0.13663  1.0000
  Fe  Fe289     1.0  0.54604  0.13450  0.04500  1.0000
  S   S577      1.0  0.56615  0.14239  0.03204  1.0000
  Fe  Fe290     1.0  0.56219  0.10351  0.05170  1.0000
  S   S578      1.0  0.58374  0.10862  0.03935  1.0000
  S   S579      1.0  0.56134  0.08023  0.06060  1.0000
  Fe  Fe291     1.0  0.57669  0.12756  0.04961  1.0000
  S   S580      1.0  0.59260  0.13469  0.05710  1.0000
  Fe  Fe292     1.0  0.57135  0.12285  0.02295  1.0000
  S   S581      1.0  0.58161  0.12239  0.99992  1.0000
  S   S582      1.0  0.55614  0.12130  0.06347  1.0000
  S   S583      1.0  0.55027  0.11615  0.03440  1.0000
  C   C1424     1.0  0.60716  0.09086  0.09090  1.0000
  Fe  Fe293     1.0  0.61601  0.03796  0.23642  1.0000
  S   S584      1.0  0.61897  0.05385  0.21537  1.0000
  S   S585      1.0  0.63573  0.02653  0.24601  1.0000
  Fe  Fe294     1.0  0.58408  0.04087  0.23781  1.0000
  S   S586      1.0  0.58399  0.05736  0.21723  1.0000
  S   S587      1.0  0.56506  0.03068  0.24979  1.0000
  Fe  Fe295     1.0  0.60515  0.04321  0.20901  1.0000
  S   S588      1.0  0.60923  0.04194  0.18608  1.0000
  Fe  Fe296     1.0  0.59771  0.06693  0.22501  1.0000
  S   S589      1.0  0.59395  0.09105  0.22135  1.0000
  S   S590      1.0  0.60436  0.02581  0.22899  1.0000
  S   S591      1.0  0.59563  0.05185  0.24672  1.0000
  Fe  Fe297     1.0  0.61854  0.13739  0.14861  1.0000
  S   S592      1.0  0.61546  0.16156  0.14318  1.0000
  S   S593      1.0  0.63153  0.12120  0.16382  1.0000
  Fe  Fe298     1.0  0.60035  0.13716  0.12877  1.0000
  S   S594      1.0  0.59567  0.16109  0.12140  1.0000
  S   S595      1.0  0.58958  0.12278  0.12327  1.0000
  Fe  Fe299     1.0  0.61923  0.15963  0.12043  1.0000
  S   S596      1.0  0.63034  0.17338  0.10022  1.0000
  Fe  Fe300     1.0  0.59223  0.16130  0.14445  1.0000
  S   S597      1.0  0.57238  0.17669  0.15330  1.0000
  S   S598      1.0  0.62432  0.13533  0.12569  1.0000
  S   S599      1.0  0.59493  0.13749  0.15200  1.0000
  H   H2279     1.0  0.52446  0.14612  0.16311  1.0000
  C   C1425     1.0  0.61490  0.07857  0.16973  1.0000
  S   S600      1.0  0.65141  0.22962  0.09709  1.0000
  H   H2280     1.0  0.55115  0.04870  0.19718  1.0000
  H   H2281     1.0  0.61820  0.07627  0.24969  1.0000
  H   H2282     1.0  0.54174  0.00738  0.21824  1.0000
  C   C1426     1.0  0.54660  0.01425  0.20810  1.0000
  H   H2283     1.0  0.55003  0.14263  0.18568  1.0000
  H   H2284     1.0  0.60843  0.20376  0.09529  1.0000
  H   H2285     1.0  0.58861  0.07327  0.10257  1.0000
  H   H2286     1.0  0.53614  0.99539  0.12975  1.0000
  C   C1427     1.0  0.55116  0.03785  0.19605  1.0000
  C   C1428     1.0  0.50667  0.09002  0.14409  1.0000
  H   H2287     1.0  0.56202  0.14847  0.06913  1.0000
  H   H2288     1.0  0.57522  0.20786  0.10372  1.0000
  H   H2289     1.0  0.50500  0.09351  0.13292  1.0000
  H   H2290     1.0  0.58878  0.07186  0.18121  1.0000
  S   S601      1.0  0.67594  0.99992  0.31335  1.0000
  H   H2291     1.0  0.52717  0.02840  0.22724  1.0000
  N   N144      1.0  0.50794  0.07433  0.14957  1.0000
  S   S602      1.0  0.63995  0.03264  0.30616  1.0000
  H   H2292     1.0  0.55286  0.01994  0.23020  1.0000
  H   H2293     1.0  0.58068  0.08120  0.16608  1.0000
  C   C1429     1.0  0.55953  0.16557  0.13911  1.0000
  H   H2294     1.0  0.61657  0.08441  0.09572  1.0000
  H   H2295     1.0  0.63912  0.99694  0.28372  1.0000
  C   C1430     1.0  0.50550  0.15292  0.07443  1.0000
  H   H2296     1.0  0.61038  0.10077  0.08353  1.0000
  C   C1431     1.0  0.53858  0.17886  0.12900  1.0000
  H   H2297     1.0  0.54952  0.13463  0.09242  1.0000
  C   C1432     1.0  0.59417  0.09853  0.17163  1.0000
  N   N145      1.0  0.54630  0.02856  0.21009  1.0000
  C   C1433     1.0  0.53091  0.16927  0.08460  1.0000
  H   H2298     1.0  0.55531  0.16745  0.06382  1.0000
  H   H2299     1.0  0.57542  0.21602  0.13078  1.0000
  C   C1434     1.0  0.52010  0.06077  0.25084  1.0000
  H   H2300     1.0  0.63918  0.19577  0.07673  1.0000
  S   S603      1.0  0.57500  0.00027  0.17826  1.0000
  C   C1435     1.0  0.55613  0.02699  0.21954  1.0000
  C   C1436     1.0  0.52174  0.04594  0.25269  1.0000
  H   H2301     1.0  0.57009  0.09110  0.01160  1.0000
  H   H2302     1.0  0.54834  0.16003  0.10356  1.0000
  H   H2303     1.0  0.59375  0.10146  0.06894  1.0000
  H   H2304     1.0  0.56408  0.15175  0.09198  1.0000
  H   H2305     1.0  0.53670  0.02528  0.25441  1.0000
  H   H2306     1.0  0.60715  0.18773  0.11966  1.0000
  C   C1437     1.0  0.59053  0.09173  0.07666  1.0000
  H   H2307     1.0  0.58091  0.09543  0.08488  1.0000
  C   C1438     1.0  0.59121  0.07596  0.16939  1.0000
  H   H2308     1.0  0.53296  0.14119  0.08608  1.0000
  H   H2309     1.0  0.64688  0.05524  0.25369  1.0000
  C   C1439     1.0  0.64817  0.06405  0.22550  1.0000
  H   H2310     1.0  0.58692  0.08586  0.07073  1.0000
  H   H2311     1.0  0.65823  0.06815  0.24624  1.0000
  C   C1440     1.0  0.63653  0.18874  0.09963  1.0000
  C   C1441     1.0  0.63766  0.19195  0.11201  1.0000
  C   C1442     1.0  0.64221  0.20452  0.11109  1.0000
  C   C1443     1.0  0.64560  0.21401  0.09783  1.0000
  C   C1444     1.0  0.64439  0.21083  0.08547  1.0000
  C   C1445     1.0  0.63998  0.19820  0.08637  1.0000
  H   H2312     1.0  0.63520  0.18467  0.12225  1.0000
  H   H2313     1.0  0.64320  0.20687  0.12069  1.0000
  H   H2314     1.0  0.64702  0.21802  0.07519  1.0000
  C   C1446     1.0  0.55378  0.16013  0.09217  1.0000
  C   C1447     1.0  0.55886  0.17725  0.14470  1.0000
  H   H2315     1.0  0.59363  0.06371  0.08852  1.0000
  H   H2316     1.0  0.54724  0.19865  0.14711  1.0000
  H   H2317     1.0  0.60666  0.06246  0.09868  1.0000
  C   C1448     1.0  0.63655  0.02840  0.26279  1.0000
  C   C1449     1.0  0.62499  0.03671  0.27092  1.0000
  C   C1450     1.0  0.62619  0.03814  0.28415  1.0000
  C   C1451     1.0  0.63870  0.03084  0.28953  1.0000
  C   C1452     1.0  0.65014  0.02234  0.28152  1.0000
  C   C1453     1.0  0.64918  0.02136  0.26806  1.0000
  H   H2318     1.0  0.61516  0.04208  0.26706  1.0000
  H   H2319     1.0  0.61733  0.04479  0.29029  1.0000
  H   H2320     1.0  0.65989  0.01680  0.28553  1.0000
  H   H2321     1.0  0.65827  0.01509  0.26174  1.0000
  C   C1454     1.0  0.60456  0.09958  0.20555  1.0000
  C   C1455     1.0  0.61844  0.09238  0.19955  1.0000
  C   C1456     1.0  0.62680  0.09928  0.18699  1.0000
  C   C1457     1.0  0.62118  0.11331  0.18010  1.0000
  C   C1458     1.0  0.60733  0.12060  0.18611  1.0000
  C   C1459     1.0  0.59911  0.11380  0.19892  1.0000
  H   H2322     1.0  0.62287  0.08159  0.20465  1.0000
  H   H2323     1.0  0.63755  0.09366  0.18241  1.0000
  H   H2324     1.0  0.60302  0.13154  0.18098  1.0000
  H   H2325     1.0  0.58844  0.11950  0.20359  1.0000
  C   C1460     1.0  0.54787  0.04244  0.25016  1.0000
  C   C1461     1.0  0.53556  0.03678  0.25263  1.0000
  C   C1462     1.0  0.54632  0.05731  0.24792  1.0000
  H   H2326     1.0  0.54620  0.13514  0.17301  1.0000
  H   H2327     1.0  0.55580  0.06174  0.24600  1.0000
  C   C1463     1.0  0.59110  0.13193  0.07556  1.0000
  C   C1464     1.0  0.58097  0.12451  0.08548  1.0000
  C   C1465     1.0  0.58042  0.12184  0.10017  1.0000
  C   C1466     1.0  0.58989  0.12679  0.10496  1.0000
  C   C1467     1.0  0.59974  0.13457  0.09509  1.0000
  C   C1468     1.0  0.60041  0.13704  0.08039  1.0000
  H   H2328     1.0  0.57365  0.12072  0.08186  1.0000
  H   H2329     1.0  0.57271  0.11591  0.10782  1.0000
  H   H2330     1.0  0.60706  0.13845  0.09873  1.0000
  H   H2331     1.0  0.60823  0.14286  0.07276  1.0000
  Fe  Fe301     1.0  0.65299  0.01302  0.31850  1.0000
  H   H2332     1.0  0.53506  0.11829  0.99389  1.0000
  H   H2333     1.0  0.62274  0.08579  0.16642  1.0000
  H   H2334     1.0  0.52159  0.13401  0.18898  1.0000
  H   H2335     1.0  0.64896  0.99625  0.25775  1.0000
  H   H2336     1.0  0.51233  0.04148  0.25450  1.0000
  H   H2337     1.0  0.54339  0.09461  0.01893  1.0000
  H   H2338     1.0  0.70054  0.22551  0.11500  1.0000
  H   H2339     1.0  0.51664  0.09335  0.14404  1.0000
  C   C1469     1.0  0.58507  0.01147  0.18016  1.0000
  C   C1470     1.0  0.58837  0.02315  0.16910  1.0000
  C   C1471     1.0  0.59605  0.03231  0.17088  1.0000
  C   C1472     1.0  0.60004  0.03010  0.18388  1.0000
  C   C1473     1.0  0.59657  0.01853  0.19501  1.0000
  C   C1474     1.0  0.58930  0.00909  0.19307  1.0000
  H   H2340     1.0  0.58511  0.02507  0.15911  1.0000
  H   H2341     1.0  0.59879  0.04116  0.16219  1.0000
  H   H2342     1.0  0.59974  0.01668  0.20502  1.0000
  S   S604      1.0  0.54917  0.99996  0.15512  1.0000
  C   C1475     1.0  0.56140  0.06468  0.10810  1.0000
  C   C1476     1.0  0.56408  0.05474  0.09962  1.0000
  C   C1477     1.0  0.56360  0.05959  0.08510  1.0000
  C   C1478     1.0  0.56032  0.07435  0.07909  1.0000
  C   C1479     1.0  0.55704  0.08423  0.08775  1.0000
  C   C1480     1.0  0.55776  0.07942  0.10220  1.0000
  H   H2343     1.0  0.56694  0.04332  0.10414  1.0000
  H   H2344     1.0  0.56605  0.05187  0.07848  1.0000
  H   H2345     1.0  0.55405  0.09559  0.08334  1.0000
  H   H2346     1.0  0.55552  0.08712  0.10879  1.0000
  C   C1481     1.0  0.52126  0.14448  0.19130  1.0000
  H   H2347     1.0  0.55793  0.00843  0.20429  1.0000
  H   H2348     1.0  0.62031  0.06885  0.16518  1.0000
  C   C1482     1.0  0.59771  0.06993  0.09370  1.0000
  H   H2349     1.0  0.56243  0.03311  0.19076  1.0000
  H   H2350     1.0  0.53554  0.17387  0.17352  1.0000
  H   H2351     1.0  0.60981  0.08184  0.14386  1.0000
  H   H2352     1.0  0.52355  0.03645  0.20980  1.0000
  H   H2353     1.0  0.61529  0.01710  0.31836  1.0000
  N   N146      1.0  0.60115  0.08600  0.16500  1.0000
  H   H2354     1.0  0.54394  0.03929  0.18867  1.0000
  H   H2355     1.0  0.52576  0.12113  0.06631  1.0000
  C   C1483     1.0  0.60430  0.09097  0.14925  1.0000
  C   C1484     1.0  0.54520  0.14535  0.17615  1.0000
  H   H2356     1.0  0.59616  0.06638  0.16454  1.0000
  S   S605      1.0  0.52444  0.14991  0.04899  1.0000
  H   H2357     1.0  0.61291  0.07484  0.18159  1.0000
  H   H2358     1.0  0.55685  0.08145  0.99966  1.0000
  N   N147      1.0  0.59191  0.20749  0.11409  1.0000
  H   H2359     1.0  0.61909  0.07491  0.23197  1.0000
  H   H2360     1.0  0.61195  0.07128  0.06624  1.0000
  H   H2361     1.0  0.63487  0.09214  0.22134  1.0000
  C   C1485     1.0  0.61506  0.07759  0.07212  1.0000
  C   C1486     1.0  0.62470  0.07053  0.24104  1.0000
  C   C1487     1.0  0.53776  0.19047  0.13477  1.0000
  H   H2362     1.0  0.59813  0.09437  0.09972  1.0000
  C   C1488     1.0  0.60045  0.19714  0.12419  1.0000
  C   C1489     1.0  0.58307  0.21972  0.12061  1.0000
  C   C1490     1.0  0.50800  0.02474  0.17923  1.0000
  H   H2363     1.0  0.56837  0.06400  0.00374  1.0000
  C   C1491     1.0  0.69485  0.23722  0.08885  1.0000
  H   H2364     1.0  0.68140  0.22791  0.11596  1.0000
  C   C1492     1.0  0.53239  0.06645  0.24852  1.0000
  C   C1493     1.0  0.51860  0.12866  0.07262  1.0000
  N   N148      1.0  0.60263  0.08251  0.08336  1.0000
  C   C1494     1.0  0.51522  0.14333  0.06635  1.0000
  H   H2365     1.0  0.64803  0.05239  0.22948  1.0000
  H   H2366     1.0  0.65138  0.08954  0.22719  1.0000
  H   H2367     1.0  0.61893  0.08688  0.06412  1.0000
  N   N149      1.0  0.54414  0.15755  0.08454  1.0000
  H   H2368     1.0  0.59326  0.19297  0.13447  1.0000
  H   H2369     1.0  0.53343  0.14383  0.10295  1.0000
  H   H2370     1.0  0.58380  0.10446  0.16824  1.0000
  C   C1495     1.0  0.53985  0.14369  0.09181  1.0000
  C   C1496     1.0  0.57097  0.08068  0.01956  1.0000
  H   H2371     1.0  0.64343  0.06794  0.21582  1.0000
  N   N150      1.0  0.63993  0.07232  0.23660  1.0000
  H   H2372     1.0  0.54500  0.15515  0.06353  1.0000
  H   H2373     1.0  0.53369  0.18000  0.07990  1.0000
  C   C1497     1.0  0.56000  0.06041  0.03248  1.0000
  C   C1498     1.0  0.55195  0.15714  0.06960  1.0000
  H   H2374     1.0  0.55678  0.17076  0.08737  1.0000
  H   H2375     1.0  0.52370  0.16797  0.07842  1.0000
  H   H2376     1.0  0.61150  0.09885  0.14559  1.0000
  H   H2377     1.0  0.65978  0.06496  0.22203  1.0000
  H   H2378     1.0  0.51197  0.16171  0.16840  1.0000
  H   H2379     1.0  0.52439  0.16947  0.09567  1.0000
  C   C1499     1.0  0.60197  0.21273  0.10067  1.0000
  H   H2380     1.0  0.56761  0.02219  0.21489  1.0000
  C   C1500     1.0  0.55545  0.12060  0.99634  1.0000
  C   C1501     1.0  0.51373  0.00973  0.20165  1.0000
  H   H2381     1.0  0.63390  0.09429  0.23885  1.0000
  H   H2382     1.0  0.62422  0.05899  0.24500  1.0000
  H   H2383     1.0  0.64069  0.07271  0.25784  1.0000
  H   H2384     1.0  0.59412  0.09646  0.14530  1.0000
  H   H2385     1.0  0.52946  0.20021  0.13287  1.0000
  H   H2386     1.0  0.57025  0.05266  0.02905  1.0000
  H   H2387     1.0  0.53117  0.07792  0.24702  1.0000
  H   H2388     1.0  0.53059  0.04595  0.21843  1.0000
  H   H2389     1.0  0.60143  0.10628  0.16846  1.0000
  C   C1502     1.0  0.54931  0.16630  0.13140  1.0000
  C   C1503     1.0  0.64006  0.08774  0.23075  1.0000
  H   H2390     1.0  0.56793  0.15590  0.14073  1.0000
  H   H2391     1.0  0.54459  0.08622  0.03717  1.0000
  H   H2392     1.0  0.53507  0.07959  0.02826  1.0000
  H   H2393     1.0  0.60804  0.20213  0.12671  1.0000
  H   H2394     1.0  0.51991  0.00013  0.20742  1.0000
  H   H2395     1.0  0.58859  0.19126  0.10562  1.0000
  H   H2396     1.0  0.55032  0.12735  0.00400  1.0000
  H   H2397     1.0  0.50952  0.15001  0.19363  1.0000
  H   H2398     1.0  0.57157  0.08289  0.02970  1.0000
  C   C1504     1.0  0.55813  0.07133  0.00799  1.0000
  N   N151      1.0  0.52983  0.15327  0.17909  1.0000
  H   H2399     1.0  0.59171  0.09523  0.18353  1.0000
  S   S606      1.0  0.52697  0.18050  0.11789  1.0000
  H   H2400     1.0  0.58152  0.07356  0.01563  1.0000
  H   H2401     1.0  0.59622  0.02288  0.31812  1.0000
  H   H2402     1.0  0.58680  0.00005  0.20164  1.0000
  H   H2403     1.0  0.55071  0.05519  0.03439  1.0000
  H   H2404     1.0  0.54884  0.06637  0.00916  1.0000
  C   C1505     1.0  0.53127  0.03516  0.21665  1.0000
  S   S607      1.0  0.51116  0.02862  0.16056  1.0000
  H   H2405     1.0  0.52437  0.00499  0.18088  1.0000
  C   C1506     1.0  0.54477  0.08407  0.02673  1.0000
  C   C1507     1.0  0.58219  0.20028  0.11095  1.0000
  H   H2406     1.0  0.54038  0.01517  0.19999  1.0000
  H   H2407     1.0  0.52540  0.14210  0.20120  1.0000
  C   C1508     1.0  0.54778  0.18959  0.14281  1.0000
  C   C1509     1.0  0.64674  0.06689  0.24913  1.0000
  H   H2408     1.0  0.55605  0.03757  0.22138  1.0000
  C   C1510     1.0  0.54683  0.11559  0.99052  1.0000
  H   H2409     1.0  0.52948  0.16328  0.15706  1.0000
  C   C1511     1.0  0.51625  0.01248  0.18666  1.0000
  S   S608      1.0  0.51290  0.14426  0.13672  1.0000
  H   H2410     1.0  0.51610  0.11244  0.09218  1.0000
  C   C1512     1.0  0.52910  0.16704  0.18254  1.0000
  H   H2411     1.0  0.56026  0.06215  0.04296  1.0000
  H   H2412     1.0  0.60995  0.21764  0.10269  1.0000
  C   C1513     1.0  0.51302  0.12371  0.08723  1.0000
  H   H2413     1.0  0.68601  0.23182  0.08951  1.0000
  H   H2414     1.0  0.51765  0.17334  0.18467  1.0000
  H   H2415     1.0  0.59598  0.22093  0.09294  1.0000
  H   H2416     1.0  0.57486  0.19567  0.12091  1.0000
  H   H2417     1.0  0.52178  0.05467  0.14415  1.0000
  N   N152      1.0  0.55847  0.07411  0.02168  1.0000
  H   H2418     1.0  0.59011  0.22536  0.12311  1.0000
  Fe  Fe302     1.0  0.56000  0.00684  0.13208  1.0000
  H   H2419     1.0  0.55206  0.15186  0.16730  1.0000
  C   C1514     1.0  0.57066  0.11699  0.99211  1.0000
  C   C1515     1.0  0.52372  0.15622  0.16634  1.0000
  H   H2420     1.0  0.51990  0.07326  0.16506  1.0000
  H   H2421     1.0  0.70519  0.22891  0.08874  1.0000
  Fe  Fe303     1.0  0.50936  0.16810  0.12840  1.0000
  H   H2422     1.0  0.68134  0.22880  0.00065  1.0000
  H   H2423     1.0  0.51125  0.05843  0.16872  1.0000
  C   C1516     1.0  0.69016  0.23371  0.11452  1.0000
  C   C1517     1.0  0.52059  0.06654  0.14040  1.0000
  H   H2424     1.0  0.68743  0.23886  0.12380  1.0000
  H   H2425     1.0  0.53100  0.06905  0.14039  1.0000
  H   H2426     1.0  0.62121  0.24153  0.02315  1.0000
  H   H2427     1.0  0.70021  0.23000  0.99522  1.0000
  C   C1518     1.0  0.51001  0.07026  0.16442  1.0000
  H   H2428     1.0  0.57643  0.22777  0.11331  1.0000
  H   H2429     1.0  0.62248  0.00335  0.26736  1.0000
  H   H2430     1.0  0.51945  0.06937  0.12910  1.0000
  H   H2431     1.0  0.60017  0.14400  0.99144  1.0000
  H   H2432     1.0  0.60630  0.03542  0.31846  1.0000
  H   H2433     1.0  0.64056  0.24246  0.03434  1.0000
  C   C1519     1.0  0.50405  0.13345  0.09553  1.0000
  Fe  Fe304     1.0  0.80605  0.06155  0.47058  1.0000
  S   S609      1.0  0.78196  0.06989  0.47384  1.0000
  S   S610      1.0  0.81483  0.04032  0.48389  1.0000
  Fe  Fe305     1.0  0.81291  0.08853  0.44995  1.0000
  S   S611      1.0  0.78928  0.09930  0.45096  1.0000
  S   S612      1.0  0.83235  0.09853  0.43857  1.0000
  Fe  Fe306     1.0  0.78663  0.09046  0.47459  1.0000
  S   S613      1.0  0.77108  0.10296  0.49049  1.0000
  Fe  Fe307     1.0  0.78621  0.07783  0.44996  1.0000
  S   S614      1.0  0.76790  0.07758  0.44003  1.0000
  S   S615      1.0  0.81036  0.08134  0.47367  1.0000
  S   S616      1.0  0.81031  0.06782  0.44662  1.0000
  Fe  Fe308     1.0  0.81075  0.11955  0.53585  1.0000
  S   S617      1.0  0.83437  0.11548  0.52546  1.0000
  S   S618      1.0  0.79325  0.13436  0.52487  1.0000
  Fe  Fe309     1.0  0.81556  0.09801  0.56320  1.0000
  S   S619      1.0  0.84005  0.09223  0.55505  1.0000
  S   S620      1.0  0.80249  0.08806  0.58465  1.0000
  Fe  Fe310     1.0  0.83836  0.11618  0.54641  1.0000
  S   S621      1.0  0.85621  0.12876  0.54136  1.0000
  Fe  Fe311     1.0  0.83423  0.09232  0.53479  1.0000
  S   S622      1.0  0.84364  0.07772  0.51934  1.0000
  S   S623      1.0  0.81429  0.12201  0.55621  1.0000
  S   S624      1.0  0.81014  0.09634  0.54350  1.0000
  Fe  Fe312     1.0  0.89577  0.17667  0.56081  1.0000
  S   S625      1.0  0.89300  0.20039  0.55094  1.0000
  S   S626      1.0  0.87653  0.16595  0.57226  1.0000
  Fe  Fe313     1.0  0.92887  0.17243  0.55399  1.0000
  S   S627      1.0  0.92878  0.19561  0.54343  1.0000
  S   S628      1.0  0.94958  0.15567  0.55532  1.0000
  Fe  Fe314     1.0  0.91030  0.20018  0.56210  1.0000
  S   S629      1.0  0.90633  0.21747  0.57474  1.0000
  Fe  Fe315     1.0  0.91170  0.19365  0.53337  1.0000
  S   S630      1.0  0.91185  0.20077  0.50980  1.0000
  S   S631      1.0  0.91161  0.17693  0.57333  1.0000
  S   S632      1.0  0.91332  0.17004  0.54248  1.0000
  Fe  Fe316     1.0  0.88844  0.16276  0.44746  1.0000
  S   S633      1.0  0.88182  0.14292  0.44693  1.0000
  S   S634      1.0  0.89923  0.17620  0.42702  1.0000
  Fe  Fe317     1.0  0.87590  0.16034  0.47897  1.0000
  S   S635      1.0  0.86828  0.14038  0.48134  1.0000
  S   S636      1.0  0.86963  0.16894  0.49885  1.0000
  Fe  Fe318     1.0  0.88979  0.13337  0.46724  1.0000
  S   S637      1.0  0.89907  0.10977  0.47360  1.0000
  Fe  Fe319     1.0  0.86075  0.15133  0.46111  1.0000
  S   S638      1.0  0.83814  0.15013  0.46101  1.0000
  S   S639      1.0  0.89839  0.15239  0.46669  1.0000
  S   S640      1.0  0.86646  0.17213  0.45981  1.0000
  Fe  Fe320     1.0  0.94930  0.08646  0.54102  1.0000
  S   S641      1.0  0.96820  0.09389  0.52463  1.0000
  S   S642      1.0  0.93234  0.09901  0.55587  1.0000
  Fe  Fe321     1.0  0.95605  0.05802  0.53229  1.0000
  S   S643      1.0  0.97534  0.06300  0.51485  1.0000
  S   S644      1.0  0.94891  0.03703  0.54043  1.0000
  Fe  Fe322     1.0  0.98069  0.07128  0.53109  1.0000
  H   H2434     1.0  0.73325  0.08429  0.49659  1.0000
  Fe  Fe323     1.0  0.96108  0.08503  0.51005  1.0000
  S   S645      1.0  0.96023  0.09925  0.48836  1.0000
  S   S646      1.0  0.96236  0.06476  0.54887  1.0000
  S   S647      1.0  0.94116  0.07926  0.52597  1.0000
  Fe  Fe324     1.0  0.89380  0.01453  0.49118  1.0000
  H   H2435     1.0  0.87151  0.01464  0.45919  1.0000
  S   S648      1.0  0.88313  0.03066  0.47409  1.0000
  N   N153      1.0  0.98846  0.02204  0.55396  1.0000
  H   H2436     1.0  0.75831  0.99903  0.41676  1.0000
  H   H2437     1.0  0.97994  0.20159  0.41443  1.0000
  C   C1520     1.0  0.98749  0.02863  0.53893  1.0000
  Fe  Fe325     1.0  0.89477  0.00823  0.52242  1.0000
  S   S649      1.0  0.88336  0.01797  0.54149  1.0000
  H   H2438     1.0  0.81154  0.01618  0.60863  1.0000
  S   S650      1.0  0.90517  0.02255  0.50289  1.0000
  H   H2439     1.0  0.95035  0.20527  0.43649  1.0000
  H   H2440     1.0  0.61051  0.01983  0.35587  1.0000
  H   H2441     1.0  0.59726  0.00216  0.35554  1.0000
  Fe  Fe326     1.0  0.73933  0.02635  0.41184  1.0000
  S   S651      1.0  0.71737  0.04117  0.41077  1.0000
  S   S652      1.0  0.76131  0.03056  0.41094  1.0000
  Fe  Fe327     1.0  0.70880  0.02497  0.42970  1.0000
  S   S653      1.0  0.69343  0.03284  0.44864  1.0000
  Fe  Fe328     1.0  0.71456  0.02706  0.39792  1.0000
  C   C1521     1.0  0.99754  0.12783  0.58368  1.0000
  S   S654      1.0  0.73748  0.01379  0.39688  1.0000
  H   H2442     1.0  0.60289  0.99307  0.62539  1.0000
  H   H2443     1.0  0.77011  0.00781  0.39184  1.0000
  N   N154      1.0  0.60114  0.02051  0.33850  1.0000
  S   S655      1.0  0.69031  0.00987  0.55925  1.0000
  H   H2444     1.0  0.99901  0.13852  0.58381  1.0000
  H   H2445     1.0  0.83508  0.02100  0.50016  1.0000
  Fe  Fe329     1.0  0.71380  0.03115  0.61641  1.0000
  S   S656      1.0  0.73826  0.02587  0.60948  1.0000
  S   S657      1.0  0.69644  0.02003  0.61686  1.0000
  C   C1522     1.0  0.79221  0.04129  0.61052  1.0000
  S   S658      1.0  0.73785  0.04994  0.62740  1.0000
  Fe  Fe330     1.0  0.73664  0.04978  0.60532  1.0000
  S   S659      1.0  0.75210  0.05887  0.58522  1.0000
  Fe  Fe331     1.0  0.73828  0.02639  0.63169  1.0000
  S   S660      1.0  0.71196  0.05504  0.61012  1.0000
  H   H2446     1.0  0.00020  0.13113  0.55529  1.0000
  H   H2447     1.0  0.58044  0.01266  0.60120  1.0000
  H   H2448     1.0  0.96849  0.01473  0.55891  1.0000
  H   H2449     1.0  0.61980  0.02288  0.52583  1.0000
  H   H2450     1.0  0.67677  0.02232  0.35170  1.0000
  Fe  Fe332     1.0  0.67559  0.99753  0.33663  1.0000
  S   S661      1.0  0.65358  0.01225  0.34113  1.0000
  H   H2451     1.0  0.98122  0.13899  0.55538  1.0000
  H   H2452     1.0  0.63548  0.02563  0.51154  1.0000
  S   S662      1.0  0.93981  0.24209  0.39668  1.0000
  H   H2453     1.0  0.78235  0.12278  0.55532  1.0000
  H   H2454     1.0  0.97946  0.18449  0.41198  1.0000
  C   C1523     1.0  0.74006  0.07883  0.47022  1.0000
  H   H2455     1.0  0.95014  0.18180  0.43281  1.0000
  C   C1524     1.0  0.69144  0.01359  0.57509  1.0000
  C   C1525     1.0  0.70306  0.01930  0.57506  1.0000
  C   C1526     1.0  0.70458  0.02163  0.58778  1.0000
  C   C1527     1.0  0.69443  0.01830  0.60054  1.0000
  C   C1528     1.0  0.68269  0.01285  0.60051  1.0000
  C   C1529     1.0  0.68126  0.01039  0.58785  1.0000
  H   H2456     1.0  0.71097  0.02180  0.56520  1.0000
  H   H2457     1.0  0.71365  0.02588  0.58774  1.0000
  C   C1530     1.0  0.61113  0.01429  0.57463  1.0000
  C   C1531     1.0  0.59729  0.01171  0.58191  1.0000
  C   C1532     1.0  0.59107  0.01473  0.59555  1.0000
  H   H2458     1.0  0.73878  0.99575  0.63335  1.0000
  Fe  Fe333     1.0  0.57370  0.01286  0.63301  1.0000
  Fe  Fe334     1.0  0.64277  0.99765  0.56005  1.0000
  H   H2459     1.0  0.80260  0.02197  0.59388  1.0000
  Fe  Fe335     1.0  0.54310  0.00794  0.64033  1.0000
  H   H2460     1.0  0.70960  0.00139  0.64100  1.0000
  H   H2461     1.0  0.86884  0.07206  0.46122  1.0000
  C   C1533     1.0  0.67569  0.03010  0.45280  1.0000
  C   C1534     1.0  0.67227  0.02065  0.44680  1.0000
  C   C1535     1.0  0.65800  0.01856  0.45031  1.0000
  C   C1536     1.0  0.64704  0.02629  0.45948  1.0000
  C   C1537     1.0  0.65038  0.03596  0.46527  1.0000
  C   C1538     1.0  0.66475  0.03770  0.46210  1.0000
  H   H2462     1.0  0.68055  0.01492  0.43951  1.0000
  H   H2463     1.0  0.65543  0.01112  0.44576  1.0000
  C   C1539     1.0  0.63077  0.01746  0.52049  1.0000
  H   H2464     1.0  0.66737  0.04505  0.46675  1.0000
  C   C1540     1.0  0.94771  0.01440  0.50703  1.0000
  H   H2465     1.0  0.71720  0.99419  0.35957  1.0000
  C   C1541     1.0  0.94133  0.01724  0.53153  1.0000
  C   C1542     1.0  0.94952  0.02778  0.52760  1.0000
  C   C1543     1.0  0.95717  0.03140  0.51344  1.0000
  C   C1544     1.0  0.95640  0.02456  0.50317  1.0000
  H   H2466     1.0  0.77734  0.10999  0.53986  1.0000
  H   H2467     1.0  0.87886  0.00156  0.48238  1.0000
  H   H2468     1.0  0.96348  0.03960  0.51031  1.0000
  H   H2469     1.0  0.96214  0.02746  0.49217  1.0000
  S   S663      1.0  0.66287  0.00054  0.54292  1.0000
  H   H2470     1.0  0.65876  0.03949  0.62863  1.0000
  S   S664      1.0  0.95438  0.23039  0.59900  1.0000
  C   C1545     1.0  0.90294  0.19169  0.42934  1.0000
  C   C1546     1.0  0.90902  0.20137  0.41742  1.0000
  C   C1547     1.0  0.91200  0.21379  0.41916  1.0000
  C   C1548     1.0  0.90886  0.21657  0.43283  1.0000
  C   C1549     1.0  0.90281  0.20686  0.44471  1.0000
  C   C1550     1.0  0.89986  0.19447  0.44298  1.0000
  H   H2471     1.0  0.57809  0.02865  0.33990  1.0000
  H   H2472     1.0  0.91653  0.22130  0.40992  1.0000
  H   H2473     1.0  0.90038  0.20889  0.45532  1.0000
  H   H2474     1.0  0.89517  0.18707  0.45222  1.0000
  C   C1551     1.0  0.91623  0.10675  0.47734  1.0000
  C   C1552     1.0  0.92121  0.09408  0.48676  1.0000
  C   C1553     1.0  0.93481  0.09164  0.49012  1.0000
  C   C1554     1.0  0.94346  0.10185  0.48393  1.0000
  C   C1555     1.0  0.93857  0.11440  0.47430  1.0000
  C   C1556     1.0  0.92490  0.11691  0.47110  1.0000
  H   H2475     1.0  0.91450  0.08623  0.49145  1.0000
  H   H2476     1.0  0.93876  0.08175  0.49721  1.0000
  H   H2477     1.0  0.94532  0.12223  0.46940  1.0000
  H   H2478     1.0  0.92123  0.12655  0.46355  1.0000
  C   C1557     1.0  0.91985  0.22112  0.58123  1.0000
  C   C1558     1.0  0.93417  0.21297  0.57948  1.0000
  C   C1559     1.0  0.94075  0.22728  0.59225  1.0000
  C   C1560     1.0  0.65797  0.05765  0.64452  1.0000
  H   H2479     1.0  0.59107  0.00329  0.33982  1.0000
  C   C1561     1.0  0.78731  0.02057  0.62920  1.0000
  C   C1562     1.0  0.95856  0.20517  0.40106  1.0000
  H   H2480     1.0  0.65254  0.06596  0.65100  1.0000
  C   C1563     1.0  0.94517  0.13937  0.55663  1.0000
  C   C1564     1.0  0.95586  0.12813  0.55159  1.0000
  C   C1565     1.0  0.95207  0.11541  0.55192  1.0000
  C   C1566     1.0  0.93758  0.11401  0.55708  1.0000
  C   C1567     1.0  0.92698  0.12508  0.56249  1.0000
  C   C1568     1.0  0.93078  0.13775  0.56227  1.0000
  H   H2481     1.0  0.96693  0.12940  0.54697  1.0000
  H   H2482     1.0  0.96035  0.10675  0.54809  1.0000
  H   H2483     1.0  0.91576  0.12399  0.56656  1.0000
  H   H2484     1.0  0.92250  0.14630  0.56639  1.0000
  C   C1569     1.0  0.90018  0.19210  0.50638  1.0000
  C   C1570     1.0  0.88871  0.18782  0.51734  1.0000
  C   C1571     1.0  0.87929  0.18097  0.51476  1.0000
  C   C1572     1.0  0.88149  0.17799  0.50133  1.0000
  C   C1573     1.0  0.89303  0.18215  0.49032  1.0000
  C   C1574     1.0  0.90229  0.18937  0.49280  1.0000
  H   H2485     1.0  0.88694  0.18996  0.52781  1.0000
  H   H2486     1.0  0.87031  0.17788  0.52326  1.0000
  C   C1575     1.0  0.78902  0.07904  0.58516  1.0000
  C   C1576     1.0  0.77756  0.07759  0.59729  1.0000
  C   C1577     1.0  0.76633  0.07107  0.59767  1.0000
  C   C1578     1.0  0.76648  0.06601  0.58585  1.0000
  C   C1579     1.0  0.77811  0.06718  0.57388  1.0000
  C   C1580     1.0  0.78939  0.07354  0.57358  1.0000
  H   H2487     1.0  0.77721  0.08177  0.60634  1.0000
  H   H2488     1.0  0.75736  0.07033  0.60692  1.0000
  H   H2489     1.0  0.77835  0.06318  0.56476  1.0000
  H   H2490     1.0  0.79839  0.07412  0.56441  1.0000
  C   C1581     1.0  0.86101  0.13939  0.55032  1.0000
  C   C1582     1.0  0.85517  0.13960  0.56480  1.0000
  C   C1583     1.0  0.85995  0.14780  0.57141  1.0000
  C   C1584     1.0  0.87065  0.15577  0.56366  1.0000
  C   C1585     1.0  0.87635  0.15563  0.54919  1.0000
  C   C1586     1.0  0.87145  0.14761  0.54256  1.0000
  H   H2491     1.0  0.84715  0.13332  0.57094  1.0000
  H   H2492     1.0  0.85545  0.14783  0.58262  1.0000
  H   H2493     1.0  0.88440  0.16186  0.54305  1.0000
  H   H2494     1.0  0.87569  0.14787  0.53128  1.0000
  C   C1587     1.0  0.85387  0.06086  0.52608  1.0000
  C   C1588     1.0  0.86071  0.05136  0.51695  1.0000
  C   C1589     1.0  0.86934  0.03800  0.52187  1.0000
  C   C1590     1.0  0.87134  0.03410  0.53589  1.0000
  C   C1591     1.0  0.86426  0.04349  0.54515  1.0000
  C   C1592     1.0  0.85548  0.05687  0.54025  1.0000
  H   H2495     1.0  0.85949  0.05431  0.50600  1.0000
  H   H2496     1.0  0.87452  0.03078  0.51470  1.0000
  H   H2497     1.0  0.86573  0.04049  0.55604  1.0000
  H   H2498     1.0  0.85012  0.06411  0.54740  1.0000
  C   C1593     1.0  0.76627  0.06376  0.43280  1.0000
  C   C1594     1.0  0.77824  0.05303  0.42858  1.0000
  C   C1595     1.0  0.77656  0.04286  0.42201  1.0000
  C   C1596     1.0  0.76285  0.04311  0.41987  1.0000
  C   C1597     1.0  0.75082  0.05361  0.42445  1.0000
  C   C1598     1.0  0.75257  0.06395  0.43071  1.0000
  H   H2499     1.0  0.78887  0.05280  0.43001  1.0000
  H   H2500     1.0  0.78596  0.03485  0.41847  1.0000
  H   H2501     1.0  0.74023  0.05399  0.42282  1.0000
  H   H2502     1.0  0.74326  0.07225  0.43382  1.0000
  C   C1599     1.0  0.83387  0.11266  0.44517  1.0000
  C   C1600     1.0  0.84677  0.11782  0.44025  1.0000
  C   C1601     1.0  0.84834  0.12899  0.44541  1.0000
  C   C1602     1.0  0.83684  0.13535  0.45525  1.0000
  C   C1603     1.0  0.82393  0.13020  0.46017  1.0000
  C   C1604     1.0  0.82251  0.11877  0.45529  1.0000
  H   H2503     1.0  0.85555  0.11317  0.43237  1.0000
  H   H2504     1.0  0.85829  0.13292  0.44146  1.0000
  H   H2505     1.0  0.81497  0.13508  0.46777  1.0000
  H   H2506     1.0  0.81250  0.11489  0.45913  1.0000
  C   C1605     1.0  0.77821  0.11207  0.49889  1.0000
  C   C1606     1.0  0.76887  0.12367  0.50450  1.0000
  C   C1607     1.0  0.77385  0.13086  0.51182  1.0000
  C   C1608     1.0  0.78803  0.12614  0.51413  1.0000
  C   C1609     1.0  0.79744  0.11446  0.50861  1.0000
  C   C1610     1.0  0.79262  0.10762  0.50073  1.0000
  H   H2507     1.0  0.75777  0.12722  0.50306  1.0000
  H   H2508     1.0  0.76656  0.13992  0.51595  1.0000
  H   H2509     1.0  0.80847  0.11082  0.51026  1.0000
  H   H2510     1.0  0.79998  0.09883  0.49626  1.0000
  C   C1611     1.0  0.83376  0.03770  0.48109  1.0000
  C   C1612     1.0  0.84154  0.04614  0.46935  1.0000
  C   C1613     1.0  0.85670  0.04401  0.46734  1.0000
  C   C1614     1.0  0.86403  0.03377  0.47730  1.0000
  C   C1615     1.0  0.85612  0.02570  0.48924  1.0000
  C   C1616     1.0  0.84106  0.02748  0.49102  1.0000
  H   H2511     1.0  0.83593  0.05412  0.46166  1.0000
  H   H2512     1.0  0.86275  0.05019  0.45798  1.0000
  H   H2513     1.0  0.86151  0.01797  0.49707  1.0000
  H   H2514     1.0  0.74768  0.11482  0.57967  1.0000
  C   C1617     1.0  0.82598  0.14928  0.49938  1.0000
  C   C1618     1.0  0.83454  0.17114  0.49421  1.0000
  H   H2515     1.0  0.82061  0.14112  0.50767  1.0000
  H   H2516     1.0  0.83647  0.14346  0.49368  1.0000
  H   H2517     1.0  0.81893  0.15433  0.49148  1.0000
  H   H2518     1.0  0.84093  0.16098  0.51987  1.0000
  H   H2519     1.0  0.82730  0.17670  0.48657  1.0000
  H   H2520     1.0  0.84522  0.16624  0.48798  1.0000
  S   S665      1.0  0.91250  0.23190  0.43558  1.0000
  C   C1619     1.0  0.61851  0.02031  0.58078  1.0000
  H   H2521     1.0  0.88688  0.17010  0.59747  1.0000
  N   N155      1.0  0.95844  0.19871  0.41635  1.0000
  C   C1620     1.0  0.89729  0.23162  0.47748  1.0000
  H   H2522     1.0  0.84888  0.14711  0.51009  1.0000
  H   H2523     1.0  0.61806  0.02809  0.59903  1.0000
  S   S666      1.0  0.56448  0.99662  0.62858  1.0000
  H   H2524     1.0  0.85046  0.19097  0.61220  1.0000
  C   C1621     1.0  0.62350  0.99469  0.52769  1.0000
  H   H2525     1.0  0.87878  0.16900  0.61617  1.0000
  H   H2526     1.0  0.88043  0.19230  0.57997  1.0000
  H   H2527     1.0  0.86800  0.16985  0.60383  1.0000
  H   H2528     1.0  0.62890  0.05954  0.65304  1.0000
  H   H2529     1.0  0.71910  0.00953  0.37454  1.0000
  S   S667      1.0  0.69627  0.06659  0.64667  1.0000
  H   H2530     1.0  0.98280  0.02220  0.53453  1.0000
  C   C1622     1.0  0.95116  0.20982  0.42483  1.0000
  H   H2531     1.0  0.77797  0.02718  0.63559  1.0000
  H   H2532     1.0  0.64191  0.04190  0.47241  1.0000
  S   S668      1.0  0.97980  0.23295  0.40397  1.0000
  H   H2533     1.0  0.67809  0.06348  0.38798  1.0000
  H   H2534     1.0  0.93727  0.20421  0.57400  1.0000
  H   H2535     1.0  0.99891  0.00215  0.56602  1.0000
  S   S669      1.0  0.65274  0.99676  0.57801  1.0000
  C   C1623     1.0  0.91607  0.23244  0.58843  1.0000
  S   S670      1.0  0.71421  0.02931  0.63911  1.0000
  C   C1624     1.0  0.99791  0.00746  0.55481  1.0000
  N   N156      1.0  0.78897  0.02688  0.61369  1.0000
  S   S671      1.0  0.62932  0.02351  0.46400  1.0000
  H   H2536     1.0  0.65261  0.07810  0.40905  1.0000
  N   N157      1.0  0.91507  0.13223  0.51998  1.0000
  C   C1625     1.0  0.90705  0.14686  0.51440  1.0000
  C   C1626     1.0  0.91910  0.12356  0.50902  1.0000
  C   C1627     1.0  0.90573  0.12531  0.53306  1.0000
  C   C1628     1.0  0.92845  0.13316  0.52348  1.0000
  H   H2537     1.0  0.91381  0.15250  0.50464  1.0000
  H   H2538     1.0  0.90371  0.15366  0.52246  1.0000
  H   H2539     1.0  0.89696  0.14656  0.51150  1.0000
  H   H2540     1.0  0.90928  0.12259  0.50610  1.0000
  H   H2541     1.0  0.92619  0.12844  0.49902  1.0000
  H   H2542     1.0  0.92524  0.11247  0.51284  1.0000
  H   H2543     1.0  0.91142  0.11424  0.53754  1.0000
  H   H2544     1.0  0.89543  0.12451  0.53092  1.0000
  H   H2545     1.0  0.90264  0.13148  0.54163  1.0000
  H   H2546     1.0  0.93480  0.12229  0.52763  1.0000
  H   H2547     1.0  0.92583  0.13949  0.53186  1.0000
  H   H2548     1.0  0.93575  0.13841  0.51392  1.0000
  H   H2549     1.0  0.98027  0.03950  0.53803  1.0000
  N   N158      1.0  0.86119  0.17705  0.41429  1.0000
  C   C1629     1.0  0.85413  0.18318  0.40196  1.0000
  C   C1630     1.0  0.86326  0.18883  0.41938  1.0000
  C   C1631     1.0  0.87554  0.16764  0.40985  1.0000
  C   C1632     1.0  0.85186  0.16853  0.42596  1.0000
  H   H2550     1.0  0.84327  0.19033  0.40495  1.0000
  H   H2551     1.0  0.85241  0.17457  0.39787  1.0000
  H   H2552     1.0  0.86090  0.18969  0.39297  1.0000
  H   H2553     1.0  0.86837  0.18458  0.42881  1.0000
  H   H2554     1.0  0.87063  0.19524  0.41101  1.0000
  H   H2555     1.0  0.85272  0.19630  0.42263  1.0000
  H   H2556     1.0  0.87446  0.15865  0.40587  1.0000
  H   H2557     1.0  0.88113  0.16277  0.41892  1.0000
  H   H2558     1.0  0.88300  0.17376  0.40127  1.0000
  H   H2559     1.0  0.85685  0.16381  0.43544  1.0000
  H   H2560     1.0  0.85012  0.15943  0.42262  1.0000
  H   H2561     1.0  0.84093  0.17521  0.42967  1.0000
  C   C1633     1.0  0.88542  0.19506  0.60414  1.0000
  H   H2562     1.0  0.88316  0.20703  0.60197  1.0000
  H   H2563     1.0  0.89568  0.19171  0.59638  1.0000
  H   H2564     1.0  0.88766  0.19076  0.61504  1.0000
  N   N159      1.0  0.66970  0.05901  0.41079  1.0000
  Fe  Fe336     1.0  0.67350  0.99741  0.56117  1.0000
  C   C1634     1.0  0.65451  0.06634  0.40980  1.0000
  C   C1635     1.0  0.67272  0.06109  0.42370  1.0000
  C   C1636     1.0  0.67168  0.04347  0.41175  1.0000
  H   H2565     1.0  0.93543  0.01438  0.54248  1.0000
  C   C1637     1.0  0.77528  0.02820  0.60942  1.0000
  H   H2566     1.0  0.92440  0.21748  0.48031  1.0000
  H   H2567     1.0  0.64657  0.06198  0.41937  1.0000
  H   H2568     1.0  0.93366  0.00281  0.52433  1.0000
  H   H2569     1.0  0.73228  0.07246  0.47791  1.0000
  H   H2570     1.0  0.66525  0.05660  0.43361  1.0000
  H   H2571     1.0  0.67141  0.07268  0.42337  1.0000
  H   H2572     1.0  0.68407  0.05559  0.42484  1.0000
  H   H2573     1.0  0.68291  0.03763  0.41288  1.0000
  H   H2574     1.0  0.67004  0.04142  0.40196  1.0000
  H   H2575     1.0  0.66393  0.03858  0.42114  1.0000
  N   N160      1.0  0.81046  0.05919  0.51742  1.0000
  C   C1638     1.0  0.82244  0.06353  0.50553  1.0000
  C   C1639     1.0  0.81376  0.04335  0.52236  1.0000
  C   C1640     1.0  0.79664  0.06391  0.51245  1.0000
  C   C1641     1.0  0.80909  0.06594  0.52933  1.0000
  H   H2576     1.0  0.82080  0.07545  0.50204  1.0000
  H   H2577     1.0  0.82338  0.05922  0.49610  1.0000
  H   H2578     1.0  0.83312  0.05938  0.50867  1.0000
  H   H2579     1.0  0.80506  0.03965  0.53145  1.0000
  H   H2580     1.0  0.81471  0.03797  0.51363  1.0000
  H   H2581     1.0  0.82430  0.03939  0.52591  1.0000
  H   H2582     1.0  0.78736  0.06079  0.52115  1.0000
  H   H2583     1.0  0.79735  0.05901  0.50344  1.0000
  H   H2584     1.0  0.79383  0.07580  0.50856  1.0000
  H   H2585     1.0  0.80682  0.07789  0.52583  1.0000
  H   H2586     1.0  0.81938  0.06258  0.53330  1.0000
  H   H2587     1.0  0.80013  0.06299  0.53852  1.0000
  H   H2588     1.0  0.69501  0.99638  0.47201  1.0000
  C   C1642     1.0  0.97361  0.19294  0.41820  1.0000
  H   H2589     1.0  0.99172  0.14794  0.56063  1.0000
  C   C1643     1.0  0.92351  0.22785  0.47218  1.0000
  H   H2590     1.0  0.93888  0.19102  0.42019  1.0000
  H   H2591     1.0  0.96885  0.13211  0.59490  1.0000
  H   H2592     1.0  0.61423  0.03392  0.34022  1.0000
  C   C1644     1.0  0.99433  0.24104  0.39340  1.0000
  H   H2593     1.0  0.76020  0.09460  0.46315  1.0000
  H   H2594     1.0  0.65265  0.02564  0.64329  1.0000
  C   C1645     1.0  0.99472  0.03100  0.55922  1.0000
  C   C1646     1.0  0.00107  0.08930  0.54123  1.0000
  H   H2595     1.0  0.89474  0.17991  0.47989  1.0000
  C   C1647     1.0  0.60483  0.02413  0.32268  1.0000
  H   H2596     1.0  0.91118  0.19261  0.48430  1.0000
  H   H2597     1.0  0.87091  0.10853  0.46239  1.0000
  C   C1648     1.0  0.85165  0.09176  0.47615  1.0000
  H   H2598     1.0  0.60941  0.01554  0.50943  1.0000
  H   H2599     1.0  0.99572  0.02637  0.57051  1.0000
  H   H2600     1.0  0.88493  0.08445  0.48409  1.0000
  H   H2601     1.0  0.87072  0.09737  0.45102  1.0000
  H   H2602     1.0  0.97258  0.14861  0.58283  1.0000
  H   H2603     1.0  0.75227  0.08382  0.48884  1.0000
  C   C1649     1.0  0.90888  0.24095  0.49029  1.0000
  Fe  Fe337     1.0  0.71344  0.05284  0.63274  1.0000
  N   N161      1.0  0.98594  0.12932  0.57620  1.0000
  C   C1650     1.0  0.62071  0.01026  0.50475  1.0000
  H   H2604     1.0  0.79886  0.00654  0.60775  1.0000
  H   H2605     1.0  0.79335  0.04646  0.59893  1.0000
  H   H2606     1.0  0.86150  0.19246  0.58643  1.0000
  H   H2607     1.0  0.86837  0.07987  0.49569  1.0000
  H   H2608     1.0  0.88444  0.06871  0.46874  1.0000
  C   C1651     1.0  0.61278  0.02263  0.34395  1.0000
  C   C1652     1.0  0.68599  0.01951  0.35665  1.0000
  C   C1653     1.0  0.67989  0.06507  0.39793  1.0000
  H   H2609     1.0  0.89756  0.22932  0.46709  1.0000
  C   C1654     1.0  0.97370  0.02111  0.56282  1.0000
  H   H2610     1.0  0.77024  0.12426  0.57234  1.0000
  H   H2611     1.0  0.76232  0.13424  0.54294  1.0000
  H   H2612     1.0  0.62907  0.02259  0.57509  1.0000
  C   C1655     1.0  0.83828  0.15304  0.51555  1.0000
  C   C1656     1.0  0.61224  0.02351  0.59429  1.0000
  H   H2613     1.0  0.58412  0.02750  0.35570  1.0000
  C   C1657     1.0  0.69676  0.00707  0.35480  1.0000
  H   H2614     1.0  0.89758  0.22129  0.48563  1.0000
  H   H2615     1.0  0.61997  0.00123  0.50058  1.0000
  C   C1658     1.0  0.72331  0.10130  0.47355  1.0000
  H   H2616     1.0  0.74807  0.11130  0.46575  1.0000
  H   H2617     1.0  0.71506  0.09557  0.48139  1.0000
  H   H2618     1.0  0.88635  0.09435  0.45847  1.0000
  H   H2619     1.0  0.97396  0.01605  0.57423  1.0000
  H   H2620     1.0  0.65189  0.06490  0.40019  1.0000
  S   S672      1.0  0.91254  0.99613  0.48641  1.0000
  N   N162      1.0  0.86774  0.08727  0.47340  1.0000
  C   C1659     1.0  0.68731  0.02847  0.36476  1.0000
  H   H2621     1.0  0.80253  0.04076  0.61349  1.0000
  H   H2622     1.0  0.73831  0.08034  0.45928  1.0000
  C   C1660     1.0  0.87419  0.09731  0.46074  1.0000
  H   H2623     1.0  0.99504  0.12175  0.59496  1.0000
  C   C1661     1.0  0.74104  0.09024  0.48828  1.0000
  S   S673      1.0  0.70465  0.01181  0.41692  1.0000
  H   H2624     1.0  0.95549  0.17842  0.41507  1.0000
  N   N163      1.0  0.90779  0.05539  0.52437  1.0000
  C   C1662     1.0  0.92172  0.05357  0.51367  1.0000
  C   C1663     1.0  0.90726  0.04186  0.53536  1.0000
  C   C1664     1.0  0.89550  0.05896  0.51722  1.0000
  C   C1665     1.0  0.90668  0.06716  0.53127  1.0000
  H   H2625     1.0  0.92205  0.06298  0.50450  1.0000
  H   H2626     1.0  0.92366  0.04385  0.50928  1.0000
  H   H2627     1.0  0.93109  0.05239  0.51843  1.0000
  H   H2628     1.0  0.91624  0.03901  0.54115  1.0000
  H   H2629     1.0  0.89675  0.04265  0.54345  1.0000
  H   H2630     1.0  0.90838  0.03264  0.53053  1.0000
  H   H2631     1.0  0.88484  0.06050  0.52500  1.0000
  H   H2632     1.0  0.89589  0.05020  0.51210  1.0000
  H   H2633     1.0  0.89562  0.06905  0.50881  1.0000
  H   H2634     1.0  0.90756  0.07743  0.52324  1.0000
  H   H2635     1.0  0.91553  0.06455  0.53720  1.0000
  H   H2636     1.0  0.89610  0.06907  0.53914  1.0000
  H   H2637     1.0  0.99478  0.10824  0.57169  1.0000
  H   H2638     1.0  0.75129  0.07215  0.47027  1.0000
  H   H2639     1.0  0.72166  0.11191  0.47621  1.0000
  C   C1666     1.0  0.74884  0.10080  0.46327  1.0000
  H   H2640     1.0  0.72097  0.10340  0.46276  1.0000
  N   N164      1.0  0.62993  0.00513  0.51543  1.0000
  H   H2641     1.0  0.99130  0.09303  0.53707  1.0000
  H   H2642     1.0  0.67874  0.07679  0.39678  1.0000
  H   H2643     1.0  0.68305  0.00003  0.38430  1.0000
  H   H2644     1.0  0.76604  0.03539  0.61515  1.0000
  H   H2645     1.0  0.65844  0.06308  0.63306  1.0000
  C   C1667     1.0  0.95042  0.18696  0.42131  1.0000
  H   H2646     1.0  0.87090  0.00450  0.44716  1.0000
  C   C1668     1.0  0.98997  0.13716  0.56121  1.0000
  H   H2647     1.0  0.58781  0.04151  0.34013  1.0000
  H   H2648     1.0  0.77607  0.03282  0.59775  1.0000
  H   H2649     1.0  0.93308  0.23234  0.47113  1.0000
  C   C1669     1.0  0.87687  0.17404  0.60521  1.0000
  H   H2650     1.0  0.78334  0.04861  0.61655  1.0000
  C   C1670     1.0  0.87236  0.07255  0.47073  1.0000
  S   S674      1.0  0.73074  0.01121  0.43183  1.0000
  C   C1671     1.0  0.94450  0.21600  0.58501  1.0000
  H   H2651     1.0  0.67909  0.03821  0.36594  1.0000
  N   N165      1.0  0.82822  0.16008  0.50574  1.0000
  H   H2652     1.0  0.98783  0.04209  0.55873  1.0000
  N   N166      1.0  0.73830  0.09279  0.47384  1.0000
  C   C1672     1.0  0.59863  0.02052  0.60179  1.0000
  H   H2653     1.0  0.85784  0.00427  0.46399  1.0000
  H   H2654     1.0  0.83661  0.17937  0.49858  1.0000
  Fe  Fe338     1.0  0.63110  0.00108  0.46234  1.0000
  H   H2655     1.0  0.83356  0.14523  0.52487  1.0000
  H   H2656     1.0  0.74395  0.10561  0.56834  1.0000
  N   N167      1.0  0.87322  0.18994  0.60263  1.0000
  H   H2657     1.0  0.86832  0.20798  0.58540  1.0000
  H   H2658     1.0  0.85679  0.20661  0.61135  1.0000
  H   H2659     1.0  0.74723  0.10287  0.45220  1.0000
  H   H2660     1.0  0.95718  0.21861  0.42170  1.0000
  C   C1673     1.0  0.51799  0.00138  0.62671  1.0000
  H   H2661     1.0  0.93991  0.21483  0.42322  1.0000
  C   C1674     1.0  0.87068  0.19600  0.58800  1.0000
  C   C1675     1.0  0.85986  0.19466  0.61309  1.0000
  C   C1676     1.0  0.81405  0.16691  0.51381  1.0000
  H   H2662     1.0  0.80897  0.15877  0.52253  1.0000
  C   C1677     1.0  0.75283  0.10793  0.57171  1.0000
  H   H2663     1.0  0.80619  0.17233  0.50675  1.0000
  H   H2664     1.0  0.81535  0.17505  0.51882  1.0000
  H   H2665     1.0  0.96441  0.21419  0.39702  1.0000
  H   H2666     1.0  0.94727  0.20958  0.39925  1.0000
  H   H2667     1.0  0.86138  0.19028  0.62426  1.0000
  H   H2668     1.0  0.63767  0.01394  0.52854  1.0000
  C   C1678     1.0  0.69919  0.02487  0.37136  1.0000
  H   H2669     1.0  0.86759  0.06467  0.47999  1.0000
  H   H2670     1.0  0.91136  0.19930  0.40683  1.0000
  H   H2671     1.0  0.75864  0.09750  0.57739  1.0000
  N   N168      1.0  0.76292  0.11484  0.55935  1.0000
  C   C1679     1.0  0.77466  0.11737  0.56434  1.0000
  H   H2672     1.0  0.99346  0.00046  0.55089  1.0000
  H   H2673     1.0  0.69145  0.05971  0.39834  1.0000
  S   S675      1.0  0.75419  0.01050  0.64388  1.0000
  H   H2674     1.0  0.64994  0.00566  0.49950  1.0000
  H   H2675     1.0  0.78508  0.00958  0.63195  1.0000
  H   H2676     1.0  0.84645  0.08471  0.48595  1.0000
  H   H2677     1.0  0.84743  0.09129  0.46704  1.0000
  H   H2678     1.0  0.78118  0.10712  0.56948  1.0000
  H   H2679     1.0  0.95550  0.20949  0.58372  1.0000
  C   C1680     1.0  0.76934  0.10532  0.54909  1.0000
  H   H2680     1.0  0.00038  0.11002  0.54456  1.0000
  H   H2681     1.0  0.74607  0.12726  0.54810  1.0000
  S   S676      1.0  0.70057  0.03633  0.38146  1.0000
  Fe  Fe339     1.0  0.92281  0.00297  0.50024  1.0000
  C   C1681     1.0  0.75489  0.12874  0.55222  1.0000
  H   H2682     1.0  0.77523  0.09465  0.55417  1.0000
  S   S677      1.0  0.59179  0.02355  0.61915  1.0000
  H   H2683     1.0  0.62900  0.04269  0.64982  1.0000
  H   H2684     1.0  0.74010  0.10054  0.49125  1.0000
  C   C1682     1.0  0.70983  0.01233  0.36966  1.0000
  H   H2685     1.0  0.86935  0.09840  0.48837  1.0000
  H   H2686     1.0  0.79729  0.01970  0.63293  1.0000
  H   H2687     1.0  0.97397  0.18814  0.42963  1.0000
  C   C1683     1.0  0.97199  0.13741  0.58343  1.0000
  C   C1684     1.0  0.92645  0.23553  0.59390  1.0000
  C   C1685     1.0  0.98429  0.11487  0.57648  1.0000
  H   H2688     1.0  0.77226  0.01758  0.61201  1.0000
  H   H2689     1.0  0.76085  0.10348  0.54478  1.0000
  H   H2690     1.0  0.74982  0.13618  0.55967  1.0000
  H   H2691     1.0  0.89695  0.00298  0.45974  1.0000
  H   H2692     1.0  0.92436  0.22533  0.46174  1.0000
  C   C1686     1.0  0.87281  0.08748  0.48596  1.0000
  H   H2693     1.0  0.84780  0.10301  0.47770  1.0000
  C   C1687     1.0  0.59981  0.00532  0.34362  1.0000
  S   S678      1.0  0.52085  0.01296  0.63563  1.0000
  H   H2694     1.0  0.67473  0.01043  0.61033  1.0000
  H   H2695     1.0  0.90502  0.23879  0.58990  1.0000
  C   C1688     1.0  0.58716  0.02997  0.34378  1.0000
  S   S679      1.0  0.61980  0.00891  0.55845  1.0000
  H   H2696     1.0  0.62343  0.01565  0.34016  1.0000
  H   H2697     1.0  0.67227  0.00604  0.58801  1.0000
  H   H2698     1.0  0.63514  0.05653  0.63514  1.0000
  H   H2699     1.0  0.61262  0.99983  0.53345  1.0000
  H   H2700     1.0  0.97609  0.11552  0.57039  1.0000
  H   H2701     1.0  0.78728  0.99765  0.38383  1.0000
  H   H2702     1.0  0.66945  0.05373  0.64587  1.0000
  C   C1689     1.0  0.70873  0.00365  0.36119  1.0000
  C   C1690     1.0  0.80104  0.01748  0.60563  1.0000
  H   H2703     1.0  0.98070  0.10887  0.58761  1.0000
  H   H2704     1.0  0.66958  0.03050  0.64163  1.0000
  Fe  Fe340     1.0  0.72758  0.99965  0.41699  1.0000
  C   C1691     1.0  0.94024  0.01074  0.52123  1.0000
  H   H2705     1.0  0.96292  0.13819  0.57835  1.0000
  H   H2706     1.0  0.61019  0.99787  0.33986  1.0000
  S   S680      1.0  0.88215  0.00140  0.51097  1.0000
  S   S681      1.0  0.55208  0.02539  0.64282  1.0000
  S   S682      1.0  0.94550  0.00683  0.49407  1.0000
  H   H2707     1.0  0.62520  0.01823  0.49538  1.0000
  H   H2708     1.0  0.96632  0.03197  0.56246  1.0000
  N   N169      1.0  0.65023  0.04574  0.64890  1.0000
  H   H2709     1.0  0.99834  0.02987  0.53191  1.0000
  C   C1692     1.0  0.65812  0.03484  0.64027  1.0000
  H   H2710     1.0  0.96411  0.19715  0.39429  1.0000
  H   H2711     1.0  0.59153  0.00708  0.57714  1.0000
  S   S683      1.0  0.64272  0.99412  0.32421  1.0000
  C   C1693     1.0  0.63521  0.05138  0.64657  1.0000
  H   H2712     1.0  0.70020  0.99548  0.44664  1.0000
  H   H2713     1.0  0.78615  0.00674  0.39755  1.0000
  C   C1694     1.0  0.86948  0.00433  0.45866  1.0000
  C   C1695     1.0  0.78049  0.00041  0.39408  1.0000
  C   C1696     1.0  0.64474  0.99808  0.50877  1.0000
  H   H2714     1.0  0.66856  0.99743  0.39974  1.0000
  H   H2715     1.0  0.88662  0.23892  0.48065  1.0000
  H   H2716     1.0  0.90940  0.23090  0.49882  1.0000
  N   N170      1.0  0.90964  0.23803  0.47633  1.0000
  S   S684      1.0  0.00317  0.06313  0.53562  1.0000
  H   H2717     1.0  0.65198  0.99390  0.51656  1.0000
  S   S685      1.0  0.69551  0.99517  0.34512  1.0000
  H   H2718     1.0  0.77435  0.99773  0.42256  1.0000
  H   H2719     1.0  0.66785  0.99399  0.38317  1.0000
  Fe  Fe341     1.0  0.56213  0.10302  0.80802  1.0000
  S   S686      1.0  0.56175  0.10358  0.83036  1.0000
  S   S687      1.0  0.54039  0.10751  0.80216  1.0000
  Fe  Fe342     1.0  0.59515  0.09790  0.79948  1.0000
  S   S688      1.0  0.59746  0.09831  0.82126  1.0000
  S   S689      1.0  0.61472  0.09109  0.78251  1.0000
  Fe  Fe343     1.0  0.58064  0.08486  0.82925  1.0000
  S   S690      1.0  0.58117  0.06574  0.84769  1.0000
  Fe  Fe344     1.0  0.57836  0.11728  0.82043  1.0000
  S   S691      1.0  0.57150  0.13738  0.82944  1.0000
  S   S692      1.0  0.57972  0.08302  0.80768  1.0000
  S   S693      1.0  0.57745  0.11805  0.79788  1.0000
  Fe  Fe345     1.0  0.59182  0.16863  0.88211  1.0000
  S   S694      1.0  0.57710  0.19070  0.88065  1.0000
  S   S695      1.0  0.60491  0.15850  0.86337  1.0000
  Fe  Fe346     1.0  0.58623  0.16290  0.91444  1.0000
  S   S696      1.0  0.57090  0.18410  0.91575  1.0000
  S   S697      1.0  0.58979  0.14804  0.93509  1.0000
  Fe  Fe347     1.0  0.56198  0.17977  0.89935  1.0000
  N   N171      1.0  0.61666  0.04832  0.80445  1.0000
  Fe  Fe348     1.0  0.58755  0.19290  0.89732  1.0000
  S   S698      1.0  0.59453  0.21319  0.89659  1.0000
  S   S699      1.0  0.57601  0.15763  0.89971  1.0000
  S   S700      1.0  0.60360  0.17175  0.89710  1.0000
  H   H2720     1.0  0.57400  0.99839  0.71594  1.0000
  S   S701      1.0  0.57393  0.07403  0.92183  1.0000
  Fe  Fe349     1.0  0.55534  0.08914  0.95591  1.0000
  S   S702      1.0  0.57339  0.06924  0.95629  1.0000
  Fe  Fe350     1.0  0.58411  0.08143  0.93513  1.0000
  S   S703      1.0  0.60697  0.08472  0.92708  1.0000
  Fe  Fe351     1.0  0.56170  0.06343  0.94293  1.0000
  S   S704      1.0  0.55974  0.04112  0.94408  1.0000
  S   S705      1.0  0.56715  0.10180  0.93600  1.0000
  H   H2721     1.0  0.66070  0.03474  0.66650  1.0000
  H   H2722     1.0  0.63264  0.18015  0.87981  1.0000
  S   S706      1.0  0.52817  0.03886  0.85305  1.0000
  S   S707      1.0  0.62963  0.21592  0.94067  1.0000
  C   C1697     1.0  0.52857  0.01361  0.83478  1.0000
  C   C1698     1.0  0.53885  0.06845  0.79783  1.0000
  H   H2723     1.0  0.63518  0.99422  0.72698  1.0000
  H   H2724     1.0  0.50873  0.06111  0.94162  1.0000
  N   N172      1.0  0.52847  0.14198  0.82575  1.0000
  C   C1699     1.0  0.53216  0.13025  0.94566  1.0000
  H   H2725     1.0  0.53265  0.08672  0.87606  1.0000
  C   C1700     1.0  0.60485  0.05206  0.79664  1.0000
  H   H2726     1.0  0.63603  0.21807  0.86398  1.0000
  C   C1701     1.0  0.53247  0.17615  0.89052  1.0000
  H   H2727     1.0  0.51209  0.15691  0.81518  1.0000
  S   S708      1.0  0.53783  0.18137  0.90336  1.0000
  H   H2728     1.0  0.56596  0.06125  0.88603  1.0000
  C   C1702     1.0  0.57593  0.03028  0.66816  1.0000
  C   C1703     1.0  0.51851  0.05331  0.93838  1.0000
  H   H2729     1.0  0.60665  0.12356  0.86741  1.0000
  C   C1704     1.0  0.56859  0.10349  0.97615  1.0000
  H   H2730     1.0  0.55048  0.18149  0.87335  1.0000
  Fe  Fe352     1.0  0.63937  0.03518  0.70960  1.0000
  S   S709      1.0  0.62705  0.03299  0.73271  1.0000
  S   S710      1.0  0.66386  0.02872  0.70236  1.0000
  Fe  Fe353     1.0  0.61213  0.04243  0.69809  1.0000
  S   S711      1.0  0.59751  0.04112  0.71986  1.0000
  S   S712      1.0  0.60584  0.04550  0.67723  1.0000
  Fe  Fe354     1.0  0.61157  0.05308  0.72428  1.0000
  S   S713      1.0  0.59741  0.07041  0.73606  1.0000
  Fe  Fe355     1.0  0.61390  0.02134  0.72658  1.0000
  S   S714      1.0  0.62491  0.05626  0.70159  1.0000
  S   S715      1.0  0.62747  0.02165  0.70442  1.0000
  H   H2731     1.0  0.62316  0.22194  0.85284  1.0000
  C   C1705     1.0  0.70018  0.24012  0.96684  1.0000
  C   C1706     1.0  0.67335  0.06223  0.66955  1.0000
  H   H2732     1.0  0.58947  0.12512  0.89763  1.0000
  H   H2733     1.0  0.61489  0.18544  0.86452  1.0000
  H   H2734     1.0  0.61118  0.20285  0.85290  1.0000
  C   C1707     1.0  0.61407  0.19713  0.86338  1.0000
  H   H2735     1.0  0.54773  0.07937  0.90839  1.0000
  H   H2736     1.0  0.70621  0.03890  0.66461  1.0000
  C   C1708     1.0  0.54056  0.17753  0.87641  1.0000
  S   S716      1.0  0.54808  0.10922  0.90579  1.0000
  H   H2737     1.0  0.54538  0.04912  0.89465  1.0000
  H   H2738     1.0  0.53160  0.02846  0.91771  1.0000
  C   C1709     1.0  0.62594  0.21553  0.86319  1.0000
  H   H2739     1.0  0.58250  0.12313  0.86363  1.0000
  C   C1710     1.0  0.67297  0.03997  0.68764  1.0000
  C   C1711     1.0  0.68754  0.03466  0.68140  1.0000
  C   C1712     1.0  0.51660  0.08520  0.79295  1.0000
  H   H2740     1.0  0.51371  0.12791  0.83669  1.0000
  C   C1713     1.0  0.59921  0.16861  0.97125  1.0000
  C   C1714     1.0  0.66594  0.05387  0.68180  1.0000
  H   H2741     1.0  0.69319  0.02411  0.68613  1.0000
  H   H2742     1.0  0.67576  0.23467  0.96412  1.0000
  H   H2743     1.0  0.61199  0.14170  0.95306  1.0000
  H   H2744     1.0  0.65484  0.05821  0.68675  1.0000
  C   C1715     1.0  0.56651  0.02701  0.68149  1.0000
  C   C1716     1.0  0.56883  0.03000  0.69347  1.0000
  C   C1717     1.0  0.58080  0.03582  0.69220  1.0000
  C   C1718     1.0  0.59040  0.03882  0.67894  1.0000
  H   H2745     1.0  0.61245  0.11270  0.88324  1.0000
  H   H2746     1.0  0.53571  0.00354  0.83175  1.0000
  H   H2747     1.0  0.56153  0.02759  0.70377  1.0000
  H   H2748     1.0  0.58251  0.03804  0.70149  1.0000
  H   H2749     1.0  0.53759  0.06041  0.87990  1.0000
  H   H2750     1.0  0.58900  0.10543  0.97891  1.0000
  H   H2751     1.0  0.52768  0.01217  0.80835  1.0000
  C   C1719     1.0  0.57722  0.10844  0.98202  1.0000
  H   H2752     1.0  0.51898  0.15749  0.93437  1.0000
  C   C1720     1.0  0.69488  0.04296  0.66910  1.0000
  H   H2753     1.0  0.51938  0.02597  0.65869  1.0000
  H   H2754     1.0  0.58140  0.15952  0.96117  1.0000
  H   H2755     1.0  0.58988  0.00259  0.68488  1.0000
  N   N173      1.0  0.60096  0.15397  0.96919  1.0000
  C   C1721     1.0  0.60381  0.21385  0.90929  1.0000
  C   C1722     1.0  0.60918  0.20142  0.91881  1.0000
  C   C1723     1.0  0.61701  0.20225  0.92836  1.0000
  C   C1724     1.0  0.61942  0.21551  0.92865  1.0000
  H   H2756     1.0  0.63340  0.04364  0.78603  1.0000
  H   H2757     1.0  0.59550  0.08959  0.88908  1.0000
  H   H2758     1.0  0.60741  0.19116  0.91873  1.0000
  H   H2759     1.0  0.62126  0.19258  0.93557  1.0000
  H   H2760     1.0  0.57410  0.02829  0.65877  1.0000
  C   C1725     1.0  0.61392  0.22795  0.91922  1.0000
  C   C1726     1.0  0.59677  0.13037  0.93290  1.0000
  C   C1727     1.0  0.59460  0.11911  0.94475  1.0000
  C   C1728     1.0  0.59871  0.10490  0.94308  1.0000
  C   C1729     1.0  0.60532  0.10190  0.92958  1.0000
  C   C1730     1.0  0.60833  0.11312  0.91781  1.0000
  C   C1731     1.0  0.60382  0.12743  0.91941  1.0000
  H   H2761     1.0  0.58915  0.12147  0.95510  1.0000
  H   H2762     1.0  0.59641  0.09622  0.95215  1.0000
  H   H2763     1.0  0.61356  0.11079  0.90739  1.0000
  H   H2764     1.0  0.60566  0.13615  0.91023  1.0000
  C   C1732     1.0  0.52243  0.16952  0.86984  1.0000
  C   C1733     1.0  0.60625  0.22709  0.90954  1.0000
  C   C1734     1.0  0.51386  0.02850  0.66935  1.0000
  H   H2765     1.0  0.66786  0.07296  0.66505  1.0000
  H   H2766     1.0  0.60475  0.20086  0.87184  1.0000
  Fe  Fe356     1.0  0.55598  0.09343  0.92447  1.0000
  H   H2767     1.0  0.55682  0.05732  0.76875  1.0000
  N   N174      1.0  0.53913  0.14211  0.93642  1.0000
  H   H2768     1.0  0.59423  0.05062  0.80405  1.0000
  H   H2769     1.0  0.61136  0.10432  0.86987  1.0000
  C   C1735     1.0  0.61021  0.08572  0.76918  1.0000
  C   C1736     1.0  0.59579  0.08935  0.76764  1.0000
  C   C1737     1.0  0.59212  0.08466  0.75736  1.0000
  C   C1738     1.0  0.60273  0.07596  0.74878  1.0000
  C   C1739     1.0  0.61715  0.07210  0.75045  1.0000
  C   C1740     1.0  0.62091  0.07713  0.76052  1.0000
  H   H2770     1.0  0.58748  0.09603  0.77420  1.0000
  H   H2771     1.0  0.58101  0.08790  0.75603  1.0000
  H   H2772     1.0  0.62543  0.06551  0.74378  1.0000
  H   H2773     1.0  0.63211  0.07436  0.76159  1.0000
  C   C1741     1.0  0.58115  0.14313  0.83859  1.0000
  C   C1742     1.0  0.57322  0.15191  0.84830  1.0000
  C   C1743     1.0  0.58037  0.15670  0.85592  1.0000
  C   C1744     1.0  0.59559  0.15303  0.85363  1.0000
  C   C1745     1.0  0.60356  0.14444  0.84372  1.0000
  C   C1746     1.0  0.59637  0.13930  0.83640  1.0000
  H   H2774     1.0  0.56144  0.15491  0.85006  1.0000
  H   H2775     1.0  0.57409  0.16332  0.86349  1.0000
  H   H2776     1.0  0.61535  0.14162  0.84182  1.0000
  H   H2777     1.0  0.60259  0.13265  0.82884  1.0000
  C   C1747     1.0  0.53480  0.09337  0.79924  1.0000
  H   H2778     1.0  0.51166  0.04039  0.66791  1.0000
  H   H2779     1.0  0.64138  0.19393  0.87971  1.0000
  H   H2780     1.0  0.51529  0.07019  0.85187  1.0000
  H   H2781     1.0  0.55381  0.07711  0.80355  1.0000
  C   C1748     1.0  0.58376  0.12515  0.88943  1.0000
  H   H2782     1.0  0.50756  0.15426  0.83426  1.0000
  C   C1749     1.0  0.56648  0.05808  0.84941  1.0000
  C   C1750     1.0  0.56348  0.04646  0.86073  1.0000
  C   C1751     1.0  0.55152  0.04058  0.86212  1.0000
  C   C1752     1.0  0.54289  0.04609  0.85193  1.0000
  C   C1753     1.0  0.54596  0.05760  0.84061  1.0000
  C   C1754     1.0  0.55750  0.06379  0.83956  1.0000
  H   H2783     1.0  0.57213  0.12514  0.89479  1.0000
  H   H2784     1.0  0.54919  0.03160  0.87085  1.0000
  H   H2785     1.0  0.53929  0.06189  0.83272  1.0000
  H   H2786     1.0  0.55939  0.07299  0.83107  1.0000
  C   C1755     1.0  0.53812  0.05965  0.89108  1.0000
  C   C1756     1.0  0.54242  0.14105  0.92131  1.0000
  N   N175      1.0  0.59065  0.11270  0.88265  1.0000
  C   C1757     1.0  0.58655  0.15158  0.96968  1.0000
  C   C1758     1.0  0.53427  0.14005  0.83851  1.0000
  H   H2787     1.0  0.60254  0.05676  0.82246  1.0000
  H   H2788     1.0  0.62164  0.05516  0.82088  1.0000
  H   H2789     1.0  0.53061  0.05791  0.95089  1.0000
  H   H2790     1.0  0.69646  0.21413  0.96732  1.0000
  H   H2791     1.0  0.51336  0.16989  0.90530  1.0000
  Fe  Fe357     1.0  0.51580  0.03222  0.87542  1.0000
  H   H2792     1.0  0.61207  0.06928  0.80900  1.0000
  H   H2793     1.0  0.60218  0.23677  0.90221  1.0000
  S   S717      1.0  0.54260  0.10001  0.97400  1.0000
  H   H2794     1.0  0.58737  0.10390  0.86665  1.0000
  H   H2795     1.0  0.57191  0.06566  0.75913  1.0000
  S   S718      1.0  0.52022  0.05772  0.78975  1.0000
  C   C1759     1.0  0.51960  0.17107  0.89437  1.0000
  C   C1760     1.0  0.50654  0.03183  0.83266  1.0000
  H   H2796     1.0  0.55827  0.07339  0.87159  1.0000
  H   H2797     1.0  0.58401  0.13549  0.88138  1.0000
  H   H2798     1.0  0.52779  0.03015  0.80870  1.0000
  H   H2799     1.0  0.58853  0.00794  0.70885  1.0000
  C   C1761     1.0  0.63975  0.19513  0.85284  1.0000
  H   H2800     1.0  0.57892  0.09852  0.89929  1.0000
  C   C1762     1.0  0.52260  0.12937  0.82701  1.0000
  H   H2801     1.0  0.70034  0.23931  0.95587  1.0000
  C   C1763     1.0  0.52324  0.12425  0.89686  1.0000
  H   H2802     1.0  0.57038  0.04203  0.86840  1.0000
  S   S719      1.0  0.52222  0.01898  0.89589  1.0000
  H   H2803     1.0  0.62979  0.06171  0.78820  1.0000
  H   H2804     1.0  0.55738  0.05202  0.74540  1.0000
  H   H2805     1.0  0.53753  0.09489  0.88742  1.0000
  C   C1764     1.0  0.52071  0.10306  0.91578  1.0000
  H   H2806     1.0  0.57088  0.11273  0.87718  1.0000
  C   C1765     1.0  0.54033  0.14341  0.81280  1.0000
  C   C1766     1.0  0.50547  0.07904  0.85341  1.0000
  H   H2807     1.0  0.52165  0.13083  0.94303  1.0000
  C   C1767     1.0  0.52908  0.15604  0.93816  1.0000
  H   H2808     1.0  0.53534  0.02182  0.83156  1.0000
  H   H2809     1.0  0.51208  0.07409  0.82695  1.0000
  C   C1768     1.0  0.54384  0.03320  0.93011  1.0000
  C   C1769     1.0  0.63052  0.05030  0.79415  1.0000
  H   H2810     1.0  0.60855  0.13203  0.97952  1.0000
  C   C1770     1.0  0.60595  0.11332  0.87546  1.0000
  C   C1771     1.0  0.53353  0.08550  0.88723  1.0000
  C   C1772     1.0  0.54348  0.07942  0.80056  1.0000
  H   H2811     1.0  0.62233  0.19528  0.88747  1.0000
  C   C1773     1.0  0.63121  0.19195  0.87845  1.0000
  H   H2812     1.0  0.52179  0.02365  0.67644  1.0000
  H   H2813     1.0  0.55079  0.14179  0.95195  1.0000
  S   S720      1.0  0.60453  0.00237  0.74003  1.0000
  H   H2814     1.0  0.60791  0.03136  0.82030  1.0000
  C   C1774     1.0  0.52098  0.02194  0.81229  1.0000
  H   H2815     1.0  0.52979  0.13169  0.88975  1.0000
  H   H2816     1.0  0.50704  0.19908  0.86978  1.0000
  S   S721      1.0  0.51551  0.16711  0.85638  1.0000
  H   H2817     1.0  0.52069  0.16479  0.82401  1.0000
  N   N176      1.0  0.54344  0.07179  0.89214  1.0000
  C   C1775     1.0  0.68889  0.00506  0.66537  1.0000
  N   N177      1.0  0.62774  0.19994  0.86446  1.0000
  C   C1776     1.0  0.60731  0.14319  0.98068  1.0000
  H   H2818     1.0  0.59444  0.17699  0.96272  1.0000
  C   C1777     1.0  0.53139  0.03491  0.92491  1.0000
  C   C1778     1.0  0.51671  0.15509  0.82470  1.0000
  H   H2819     1.0  0.58751  0.14067  0.96804  1.0000
  H   H2820     1.0  0.54143  0.17600  0.85503  1.0000
  C   C1779     1.0  0.58251  0.11308  0.87207  1.0000
  C   C1780     1.0  0.54385  0.07038  0.90716  1.0000
  S   S722      1.0  0.54269  0.08232  0.94438  1.0000
  H   H2821     1.0  0.52700  0.05939  0.89792  1.0000
  H   H2822     1.0  0.64125  0.18342  0.85347  1.0000
  H   H2823     1.0  0.51463  0.10699  0.79434  1.0000
  C   C1781     1.0  0.55341  0.10704  0.98043  1.0000
  H   H2824     1.0  0.54307  0.13020  0.83975  1.0000
  S   S723      1.0  0.55255  0.01819  0.68344  1.0000
  H   H2825     1.0  0.60329  0.06348  0.79072  1.0000
  C   C1782     1.0  0.52933  0.11252  0.90654  1.0000
  H   H2826     1.0  0.52529  0.09398  0.92332  1.0000
  H   H2827     1.0  0.60988  0.17080  0.97091  1.0000
  C   C1783     1.0  0.61307  0.05776  0.81465  1.0000
  C   C1784     1.0  0.58781  0.03621  0.66689  1.0000
  H   H2828     1.0  0.62081  0.02574  0.80499  1.0000
  N   N178      1.0  0.55323  0.07311  0.74958  1.0000
  C   C1785     1.0  0.55978  0.06764  0.76227  1.0000
  C   C1786     1.0  0.55646  0.08735  0.74194  1.0000
  C   C1787     1.0  0.53725  0.07450  0.75420  1.0000
  C   C1788     1.0  0.55941  0.06294  0.73992  1.0000
  H   H2829     1.0  0.54510  0.15277  0.81158  1.0000
  H   H2830     1.0  0.55603  0.07545  0.76937  1.0000
  H   H2831     1.0  0.56843  0.08666  0.73814  1.0000
  H   H2832     1.0  0.55160  0.09184  0.73236  1.0000
  H   H2833     1.0  0.55216  0.09524  0.74898  1.0000
  H   H2834     1.0  0.53230  0.08176  0.76185  1.0000
  H   H2835     1.0  0.53441  0.06389  0.75973  1.0000
  H   H2836     1.0  0.53186  0.07889  0.74496  1.0000
  H   H2837     1.0  0.57146  0.06177  0.73614  1.0000
  H   H2838     1.0  0.55468  0.06666  0.73025  1.0000
  C   C1789     1.0  0.52134  0.09620  0.79547  1.0000
  H   H2839     1.0  0.60730  0.04538  0.78860  1.0000
  H   H2840     1.0  0.68541  0.00537  0.67694  1.0000
  C   C1790     1.0  0.52544  0.07135  0.79396  1.0000
  H   H2841     1.0  0.62703  0.02994  0.81836  1.0000
  H   H2842     1.0  0.54569  0.05773  0.79870  1.0000
  C   C1791     1.0  0.55828  0.07168  0.88308  1.0000
  H   H2843     1.0  0.51166  0.02634  0.80685  1.0000
  H   H2844     1.0  0.59616  0.09869  0.90200  1.0000
  C   C1792     1.0  0.53544  0.17439  0.86605  1.0000
  H   H2845     1.0  0.53284  0.07045  0.91431  1.0000
  C   C1793     1.0  0.61818  0.03315  0.81237  1.0000
  H   H2846     1.0  0.63973  0.04742  0.79962  1.0000
  C   C1794     1.0  0.59030  0.09926  0.89371  1.0000
  C   C1795     1.0  0.55281  0.14120  0.94057  1.0000
  H   H2847     1.0  0.53642  0.14473  0.80296  1.0000
  H   H2848     1.0  0.55127  0.06016  0.91121  1.0000
  H   H2849     1.0  0.56281  0.08037  0.88411  1.0000
  H   H2850     1.0  0.52584  0.15695  0.94954  1.0000
  H   H2851     1.0  0.61698  0.21945  0.87188  1.0000
  H   H2852     1.0  0.70688  0.21229  0.98023  1.0000
  C   C1796     1.0  0.58605  0.99709  0.71365  1.0000
  C   C1797     1.0  0.64960  0.03912  0.66425  1.0000
  C   C1798     1.0  0.54369  0.04180  0.93917  1.0000
  H   H2853     1.0  0.69272  0.01513  0.65956  1.0000
  H   H2854     1.0  0.57367  0.09668  0.96854  1.0000
  H   H2855     1.0  0.56078  0.13093  0.93929  1.0000
  C   C1799     1.0  0.69579  0.21625  0.97790  1.0000
  Fe  Fe358     1.0  0.55610  0.01050  0.66342  1.0000
  C   C1800     1.0  0.50869  0.12637  0.89615  1.0000
  C   C1801     1.0  0.51469  0.16760  0.88409  1.0000
  H   H2856     1.0  0.53425  0.16523  0.93185  1.0000
  H   H2857     1.0  0.53245  0.14118  0.91793  1.0000
  H   H2858     1.0  0.53898  0.14930  0.83781  1.0000
  N   N179      1.0  0.51587  0.01869  0.82803  1.0000
  H   H2859     1.0  0.52563  0.13917  0.84848  1.0000
  H   H2860     1.0  0.54707  0.15020  0.91398  1.0000
  Fe  Fe359     1.0  0.63173  0.23660  0.94504  1.0000
  H   H2861     1.0  0.52994  0.13038  0.95720  1.0000
  H   H2862     1.0  0.71815  0.00172  0.66165  1.0000
  H   H2863     1.0  0.51160  0.00195  0.68426  1.0000
  S   S724      1.0  0.54510  0.99411  0.66199  1.0000
  H   H2864     1.0  0.51801  0.13053  0.81761  1.0000
  H   H2865     1.0  0.64373  0.04710  0.67103  1.0000
  H   H2866     1.0  0.55828  0.15007  0.93386  1.0000
  H   H2867     1.0  0.55369  0.02550  0.92683  1.0000
  H   H2868     1.0  0.52235  0.08624  0.89418  1.0000
  C   C1802     1.0  0.53094  0.05166  0.94348  1.0000
  H   H2869     1.0  0.55042  0.13093  0.91948  1.0000
  H   H2870     1.0  0.59507  0.03864  0.65655  1.0000
  H   H2871     1.0  0.53120  0.11931  0.82768  1.0000
  H   H2872     1.0  0.54938  0.13371  0.81335  1.0000
  H   H2873     1.0  0.63751  0.20099  0.84213  1.0000
  C   C1803     1.0  0.68771  0.05664  0.66294  1.0000
  H   H2874     1.0  0.53922  0.11957  0.94438  1.0000
  H   H2875     1.0  0.66764  0.23057  0.98298  1.0000
  C   C1804     1.0  0.51880  0.04511  0.92892  1.0000
  N   N180      1.0  0.69027  0.23172  0.97791  1.0000
  Fe  Fe360     1.0  0.50466  0.03557  0.90619  1.0000
  H   H2876     1.0  0.50876  0.00410  0.66666  1.0000
  H   H2877     1.0  0.57894  0.15238  0.98021  1.0000
  S   S725      1.0  0.64543  0.23591  0.96022  1.0000
  H   H2878     1.0  0.65028  0.19698  0.85337  1.0000
  H   H2879     1.0  0.68849  0.20968  0.98613  1.0000
  H   H2880     1.0  0.61165  0.99759  0.69483  1.0000
  H   H2881     1.0  0.59187  0.17011  0.98175  1.0000
  H   H2882     1.0  0.58944  0.99332  0.72407  1.0000
  H   H2883     1.0  0.50478  0.16370  0.88717  1.0000
  H   H2884     1.0  0.60641  0.16063  0.94626  1.0000
  H   H2885     1.0  0.62183  0.15393  0.95449  1.0000
  C   C1805     1.0  0.61076  0.15249  0.95516  1.0000
  H   H2886     1.0  0.52508  0.01142  0.84668  1.0000
  H   H2887     1.0  0.71154  0.23647  0.96846  1.0000
  H   H2888     1.0  0.51412  0.99721  0.82935  1.0000
  C   C1806     1.0  0.50734  0.00742  0.83236  1.0000
  H   H2889     1.0  0.61574  0.23821  0.91927  1.0000
  H   H2890     1.0  0.67908  0.00537  0.66166  1.0000
  H   H2891     1.0  0.51243  0.04079  0.82896  1.0000
  C   C1807     1.0  0.50618  0.10502  0.91485  1.0000
  H   H2892     1.0  0.50628  0.08753  0.78989  1.0000
  H   H2893     1.0  0.61823  0.14455  0.98064  1.0000
  S   S726      1.0  0.57842  0.99928  0.65395  1.0000
  H   H2894     1.0  0.64363  0.03022  0.66801  1.0000
  H   H2895     1.0  0.50925  0.08933  0.85014  1.0000
  C   C1808     1.0  0.67558  0.23639  0.97473  1.0000
  H   H2896     1.0  0.50528  0.09302  0.82620  1.0000
  H   H2897     1.0  0.50414  0.13558  0.88873  1.0000
  C   C1809     1.0  0.50378  0.00725  0.67714  1.0000
  Fe  Fe361     1.0  0.74200  0.34716  0.07973  1.0000
  S   S727      1.0  0.71809  0.35168  0.09027  1.0000
  S   S728      1.0  0.76095  0.35169  0.08584  1.0000
  Fe  Fe362     1.0  0.73592  0.34043  0.05378  1.0000
  S   S729      1.0  0.71174  0.34511  0.06220  1.0000
  S   S730      1.0  0.74545  0.33321  0.03285  1.0000
  Fe  Fe363     1.0  0.71509  0.36378  0.06830  1.0000
  S   S731      1.0  0.70048  0.38575  0.06432  1.0000
  Fe  Fe364     1.0  0.71697  0.33235  0.08312  1.0000
  S   S732      1.0  0.70172  0.31725  0.09503  1.0000
  S   S733      1.0  0.73888  0.36034  0.05802  1.0000
  S   S734      1.0  0.74125  0.32655  0.07452  1.0000
  H   H2898     1.0  0.88027  0.45377  0.26256  1.0000
  H   H2899     1.0  0.93960  0.40016  0.13486  1.0000
  C   C1810     1.0  0.59567  0.27344  0.01870  1.0000
  H   H2900     1.0  0.82543  0.44488  0.20741  1.0000
  H   H2901     1.0  0.77900  0.49059  0.13792  1.0000
  Fe  Fe365     1.0  0.66247  0.25509  0.04388  1.0000
  H   H2902     1.0  0.91990  0.39084  0.12159  1.0000
  N   N181      1.0  0.91860  0.40929  0.12963  1.0000
  C   C1811     1.0  0.70811  0.29327  0.06585  1.0000
  H   H2903     1.0  0.59399  0.30943  0.00948  1.0000
  H   H2904     1.0  0.67701  0.36049  0.05962  1.0000
  Fe  Fe366     1.0  0.64195  0.40347  0.00970  1.0000
  C   C1812     1.0  0.88430  0.45016  0.25227  1.0000
  S   S735      1.0  0.62873  0.38773  0.02448  1.0000
  C   C1813     1.0  0.65356  0.25197  0.01450  1.0000
  H   H2905     1.0  0.75350  0.48933  0.14101  1.0000
  S   S736      1.0  0.69537  0.40024  0.00005  1.0000
  H   H2906     1.0  0.88672  0.48866  0.15313  1.0000
  H   H2907     1.0  0.80130  0.48140  0.20456  1.0000
  H   H2908     1.0  0.70071  0.31439  0.00020  1.0000
  S   S737      1.0  0.65369  0.41623  0.01620  1.0000
  C   C1814     1.0  0.81018  0.47988  0.19496  1.0000
  Fe  Fe367     1.0  0.91965  0.37412  0.29803  1.0000
  H   H2909     1.0  0.60247  0.29590  0.02267  1.0000
  S   S738      1.0  0.89883  0.38320  0.28977  1.0000
  H   H2910     1.0  0.72100  0.37070  0.99409  1.0000
  H   H2911     1.0  0.92546  0.40640  0.14908  1.0000
  N   N182      1.0  0.88637  0.43439  0.25457  1.0000
  H   H2912     1.0  0.70067  0.25786  0.10791  1.0000
  C   C1815     1.0  0.87756  0.48602  0.18168  1.0000
  C   C1816     1.0  0.92780  0.40107  0.13998  1.0000
  C   C1817     1.0  0.86239  0.43698  0.13082  1.0000
  S   S739      1.0  0.92955  0.35035  0.30330  1.0000
  N   N183      1.0  0.66563  0.36866  0.04238  1.0000
  S   S740      1.0  0.80172  0.47492  0.15983  1.0000
  Fe  Fe368     1.0  0.81610  0.39195  0.11584  1.0000
  S   S741      1.0  0.79661  0.40682  0.10825  1.0000
  S   S742      1.0  0.83499  0.38140  0.10082  1.0000
  Fe  Fe369     1.0  0.80496  0.39584  0.14639  1.0000
  S   S743      1.0  0.78390  0.41069  0.14174  1.0000
  S   S744      1.0  0.81396  0.38813  0.16646  1.0000
  Fe  Fe370     1.0  0.78388  0.39532  0.12857  1.0000
  S   S745      1.0  0.76402  0.38728  0.12889  1.0000
  Fe  Fe371     1.0  0.79832  0.42082  0.12173  1.0000
  S   S746      1.0  0.79983  0.44406  0.11299  1.0000
  S   S747      1.0  0.80352  0.37953  0.13531  1.0000
  S   S748      1.0  0.81910  0.40697  0.12725  1.0000
  Fe  Fe372     1.0  0.89408  0.42697  0.18224  1.0000
  S   S749      1.0  0.89776  0.42602  0.20367  1.0000
  S   S750      1.0  0.90960  0.43154  0.16102  1.0000
  Fe  Fe373     1.0  0.86258  0.42341  0.19401  1.0000
  S   S751      1.0  0.86366  0.42201  0.21671  1.0000
  S   S752      1.0  0.84170  0.42845  0.18598  1.0000
  Fe  Fe374     1.0  0.87539  0.44014  0.20728  1.0000
  S   S753      1.0  0.86840  0.45995  0.21647  1.0000
  Fe  Fe375     1.0  0.88605  0.40789  0.21140  1.0000
  S   S754      1.0  0.89750  0.38827  0.22543  1.0000
  S   S755      1.0  0.87277  0.44265  0.18518  1.0000
  S   S756      1.0  0.88400  0.40770  0.18940  1.0000
  C   C1818     1.0  0.87086  0.48270  0.10331  1.0000
  H   H2913     1.0  0.89836  0.41516  0.26616  1.0000
  S   S757      1.0  0.94154  0.48054  0.15586  1.0000
  Fe  Fe376     1.0  0.64596  0.43440  0.99877  1.0000
  S   S758      1.0  0.92157  0.37780  0.31865  1.0000
  H   H2914     1.0  0.90309  0.43318  0.23532  1.0000
  C   C1819     1.0  0.59908  0.38284  0.99888  1.0000
  C   C1820     1.0  0.98338  0.33340  0.29642  1.0000
  C   C1821     1.0  0.64366  0.25655  0.99343  1.0000
  H   H2915     1.0  0.86708  0.48676  0.22283  1.0000
  H   H2916     1.0  0.83256  0.48031  0.20533  1.0000
  H   H2917     1.0  0.58193  0.30197  0.99439  1.0000
  Fe  Fe377     1.0  0.90029  0.42051  0.06455  1.0000
  S   S759      1.0  0.91365  0.40904  0.08097  1.0000
  S   S760      1.0  0.90159  0.41230  0.04540  1.0000
  Fe  Fe378     1.0  0.88138  0.44246  0.08159  1.0000
  S   S761      1.0  0.89312  0.43338  0.09944  1.0000
  S   S762      1.0  0.85971  0.45789  0.08396  1.0000
  Fe  Fe379     1.0  0.91343  0.43135  0.08219  1.0000
  S   S763      1.0  0.93333  0.43402  0.08719  1.0000
  Fe  Fe380     1.0  0.89250  0.41194  0.09697  1.0000
  S   S764      1.0  0.88564  0.39602  0.11692  1.0000
  S   S765      1.0  0.90180  0.44281  0.06420  1.0000
  S   S766      1.0  0.87907  0.42114  0.08050  1.0000
  S   S767      1.0  0.84239  0.44076  0.02544  1.0000
  C   C1822     1.0  0.88499  0.41994  0.04013  1.0000
  C   C1823     1.0  0.87715  0.43346  0.04262  1.0000
  C   C1824     1.0  0.86413  0.43987  0.03794  1.0000
  C   C1825     1.0  0.85884  0.43272  0.03089  1.0000
  C   C1826     1.0  0.86655  0.41910  0.02857  1.0000
  C   C1827     1.0  0.87966  0.41271  0.03316  1.0000
  H   H2918     1.0  0.88125  0.43912  0.04793  1.0000
  H   H2919     1.0  0.85828  0.45048  0.03961  1.0000
  C   C1828     1.0  0.89085  0.43245  0.99992  1.0000
  H   H2920     1.0  0.88564  0.40217  0.03137  1.0000
  C   C1829     1.0  0.93122  0.48024  0.08814  1.0000
  C   C1830     1.0  0.94086  0.46886  0.09491  1.0000
  C   C1831     1.0  0.94145  0.45465  0.09461  1.0000
  C   C1832     1.0  0.93218  0.45179  0.08781  1.0000
  C   C1833     1.0  0.92223  0.46311  0.08142  1.0000
  C   C1834     1.0  0.92190  0.47734  0.08140  1.0000
  H   H2921     1.0  0.94815  0.47101  0.10001  1.0000
  H   H2922     1.0  0.94917  0.44589  0.09954  1.0000
  H   H2923     1.0  0.91507  0.46094  0.07614  1.0000
  H   H2924     1.0  0.61861  0.28410  0.00241  1.0000
  H   H2925     1.0  0.93312  0.42358  0.11818  1.0000
  H   H2926     1.0  0.92584  0.39000  0.14454  1.0000
  C   C1835     1.0  0.91864  0.44504  0.15959  1.0000
  C   C1836     1.0  0.92123  0.44734  0.17178  1.0000
  C   C1837     1.0  0.92857  0.45807  0.17052  1.0000
  C   C1838     1.0  0.93302  0.46675  0.15713  1.0000
  C   C1839     1.0  0.93036  0.46455  0.14492  1.0000
  C   C1840     1.0  0.92330  0.45361  0.14614  1.0000
  H   H2927     1.0  0.91788  0.44067  0.18214  1.0000
  H   H2928     1.0  0.93067  0.45972  0.17997  1.0000
  H   H2929     1.0  0.93372  0.47127  0.13454  1.0000
  H   H2930     1.0  0.92126  0.45199  0.13667  1.0000
  C   C1841     1.0  0.88227  0.46803  0.21650  1.0000
  C   C1842     1.0  0.89698  0.46114  0.21331  1.0000
  C   C1843     1.0  0.90778  0.46735  0.21439  1.0000
  C   C1844     1.0  0.90394  0.48068  0.21822  1.0000
  H   H2931     1.0  0.99987  0.39906  0.28564  1.0000
  C   C1845     1.0  0.87844  0.48136  0.22034  1.0000
  H   H2932     1.0  0.90009  0.45097  0.21017  1.0000
  H   H2933     1.0  0.91915  0.46191  0.21206  1.0000
  H   H2934     1.0  0.63741  0.28120  0.03378  1.0000
  H   H2935     1.0  0.71256  0.30716  0.02086  1.0000
  C   C1846     1.0  0.82208  0.39945  0.17125  1.0000
  C   C1847     1.0  0.83422  0.39345  0.17758  1.0000
  C   C1848     1.0  0.84052  0.40217  0.18201  1.0000
  C   C1849     1.0  0.83444  0.41691  0.18051  1.0000
  C   C1850     1.0  0.82220  0.42287  0.17435  1.0000
  C   C1851     1.0  0.81620  0.41425  0.16951  1.0000
  H   H2936     1.0  0.83874  0.38199  0.17907  1.0000
  H   H2937     1.0  0.84989  0.39743  0.18680  1.0000
  H   H2938     1.0  0.81729  0.43423  0.17332  1.0000
  H   H2939     1.0  0.80672  0.41895  0.16487  1.0000
  C   C1852     1.0  0.85052  0.38211  0.10582  1.0000
  C   C1853     1.0  0.86298  0.38469  0.09534  1.0000
  C   C1854     1.0  0.87429  0.38802  0.09899  1.0000
  C   C1855     1.0  0.87318  0.38870  0.11309  1.0000
  C   C1856     1.0  0.86124  0.38501  0.12376  1.0000
  C   C1857     1.0  0.84986  0.38180  0.12009  1.0000
  H   H2940     1.0  0.86363  0.38477  0.08432  1.0000
  H   H2941     1.0  0.88377  0.39036  0.09080  1.0000
  H   H2942     1.0  0.86043  0.38524  0.13473  1.0000
  H   H2943     1.0  0.84040  0.37944  0.12831  1.0000
  C   C1858     1.0  0.80213  0.46603  0.14670  1.0000
  C   C1859     1.0  0.79604  0.45387  0.15082  1.0000
  C   C1860     1.0  0.79579  0.44679  0.14056  1.0000
  C   C1861     1.0  0.80137  0.45200  0.12606  1.0000
  C   C1862     1.0  0.80773  0.46400  0.12192  1.0000
  C   C1863     1.0  0.80822  0.47093  0.13223  1.0000
  H   H2944     1.0  0.79146  0.44991  0.16201  1.0000
  H   H2945     1.0  0.79092  0.43751  0.14387  1.0000
  H   H2946     1.0  0.81223  0.46796  0.11073  1.0000
  H   H2947     1.0  0.81322  0.48011  0.12897  1.0000
  H   H2948     1.0  0.68576  0.31523  0.02464  1.0000
  C   C1864     1.0  0.87167  0.47235  0.09584  1.0000
  C   C1865     1.0  0.88926  0.48777  0.22100  1.0000
  H   H2949     1.0  0.88217  0.46603  0.09163  1.0000
  C   C1866     1.0  0.63502  0.35013  0.99932  1.0000
  H   H2950     1.0  0.90008  0.41573  0.14598  1.0000
  H   H2951     1.0  0.00365  0.44223  0.14081  1.0000
  H   H2952     1.0  0.72149  0.29031  0.01576  1.0000
  C   C1867     1.0  0.67912  0.36194  0.04779  1.0000
  H   H2953     1.0  0.71989  0.30654  0.07010  1.0000
  C   C1868     1.0  0.89875  0.38578  0.27157  1.0000
  C   C1869     1.0  0.88535  0.38886  0.26762  1.0000
  C   C1870     1.0  0.88484  0.39049  0.25330  1.0000
  C   C1871     1.0  0.89777  0.38889  0.24284  1.0000
  C   C1872     1.0  0.91118  0.38617  0.24672  1.0000
  C   C1873     1.0  0.91166  0.38480  0.26102  1.0000
  H   H2954     1.0  0.87531  0.38963  0.27573  1.0000
  H   H2955     1.0  0.87447  0.39233  0.25045  1.0000
  H   H2956     1.0  0.92121  0.38494  0.23864  1.0000
  H   H2957     1.0  0.92201  0.38273  0.26394  1.0000
  C   C1874     1.0  0.92153  0.42390  0.12390  1.0000
  H   H2958     1.0  0.91470  0.43049  0.11615  1.0000
  H   H2959     1.0  0.87058  0.42969  0.12432  1.0000
  N   N184      1.0  0.90670  0.43183  0.99575  1.0000
  H   H2960     1.0  0.67710  0.37773  0.02142  1.0000
  H   H2961     1.0  0.90389  0.45387  0.99658  1.0000
  C   C1875     1.0  0.64985  0.48228  0.02271  1.0000
  C   C1876     1.0  0.65709  0.46797  0.02230  1.0000
  C   C1877     1.0  0.65237  0.46002  0.01547  1.0000
  H   H2962     1.0  0.74015  0.37047  0.98961  1.0000
  C   C1878     1.0  0.64034  0.46635  0.00917  1.0000
  S   S768      1.0  0.63475  0.45740  0.99946  1.0000
  H   H2963     1.0  0.66657  0.46316  0.02692  1.0000
  H   H2964     1.0  0.65815  0.44909  0.01490  1.0000
  C   C1879     1.0  0.99519  0.45131  0.14463  1.0000
  C   C1880     1.0  0.90923  0.44649  0.98909  1.0000
  H   H2965     1.0  0.62475  0.34957  0.99696  1.0000
  H   H2966     1.0  0.88534  0.43860  0.00847  1.0000
  C   C1881     1.0  0.60550  0.37892  0.02173  1.0000
  C   C1882     1.0  0.61754  0.38520  0.01480  1.0000
  C   C1883     1.0  0.68517  0.30384  0.02610  1.0000
  H   H2967     1.0  0.57212  0.29178  0.00997  1.0000
  S   S769      1.0  0.58721  0.34240  0.00108  1.0000
  H   H2968     1.0  0.60308  0.37538  0.03327  1.0000
  H   H2969     1.0  0.66827  0.24977  0.10196  1.0000
  H   H2970     1.0  0.93359  0.40119  0.11181  1.0000
  C   C1884     1.0  0.89531  0.48624  0.15931  1.0000
  H   H2971     1.0  0.58652  0.37360  0.01917  1.0000
  C   C1885     1.0  0.64133  0.24665  0.02298  1.0000
  H   H2972     1.0  0.98934  0.40681  0.27212  1.0000
  H   H2973     1.0  0.91516  0.40782  0.10986  1.0000
  S   S770      1.0  0.69417  0.27537  0.06087  1.0000
  C   C1886     1.0  0.65447  0.25726  0.99979  1.0000
  C   C1887     1.0  0.62350  0.30091  0.03913  1.0000
  C   C1888     1.0  0.61589  0.31470  0.03373  1.0000
  C   C1889     1.0  0.61701  0.31971  0.01893  1.0000
  C   C1890     1.0  0.62585  0.31099  0.00953  1.0000
  C   C1891     1.0  0.63346  0.29723  0.01491  1.0000
  C   C1892     1.0  0.63203  0.29209  0.02970  1.0000
  H   H2974     1.0  0.60925  0.32153  0.04099  1.0000
  H   H2975     1.0  0.61121  0.33040  0.01485  1.0000
  H   H2976     1.0  0.64020  0.29035  0.00771  1.0000
  C   C1893     1.0  0.76077  0.36244  0.09747  1.0000
  C   C1894     1.0  0.77181  0.37020  0.09391  1.0000
  C   C1895     1.0  0.77282  0.37801  0.10331  1.0000
  C   C1896     1.0  0.76290  0.37800  0.11650  1.0000
  C   C1897     1.0  0.75166  0.37051  0.11992  1.0000
  C   C1898     1.0  0.75062  0.36272  0.11050  1.0000
  H   H2977     1.0  0.77962  0.37014  0.08379  1.0000
  H   H2978     1.0  0.78128  0.38404  0.10039  1.0000
  H   H2979     1.0  0.74390  0.37045  0.13009  1.0000
  H   H2980     1.0  0.74224  0.35658  0.11353  1.0000
  C   C1899     1.0  0.70002  0.39094  0.04614  1.0000
  C   C1900     1.0  0.68956  0.40279  0.04120  1.0000
  C   C1901     1.0  0.68836  0.40602  0.02688  1.0000
  C   C1902     1.0  0.69764  0.39742  0.01753  1.0000
  C   C1903     1.0  0.70852  0.38603  0.02236  1.0000
  C   C1904     1.0  0.70968  0.38278  0.03663  1.0000
  H   H2981     1.0  0.68216  0.40925  0.04849  1.0000
  H   H2982     1.0  0.68030  0.41518  0.02309  1.0000
  H   H2983     1.0  0.71582  0.37938  0.01526  1.0000
  H   H2984     1.0  0.71789  0.37372  0.04030  1.0000
  C   C1905     1.0  0.69908  0.30653  0.08485  1.0000
  C   C1906     1.0  0.68619  0.30137  0.08875  1.0000
  C   C1907     1.0  0.68417  0.29237  0.08107  1.0000
  H   H2985     1.0  0.67772  0.30442  0.09769  1.0000
  H   H2986     1.0  0.67410  0.28869  0.08405  1.0000
  C   C1908     1.0  0.71268  0.34180  0.00495  1.0000
  C   C1909     1.0  0.72606  0.33206  0.00228  1.0000
  C   C1910     1.0  0.73617  0.32950  0.01082  1.0000
  C   C1911     1.0  0.73290  0.33664  0.02203  1.0000
  C   C1912     1.0  0.71966  0.34657  0.02440  1.0000
  C   C1913     1.0  0.70959  0.34910  0.01594  1.0000
  H   H2987     1.0  0.86257  0.44828  0.12481  1.0000
  H   H2988     1.0  0.74648  0.32192  0.00884  1.0000
  H   H2989     1.0  0.71733  0.35255  0.03256  1.0000
  H   H2990     1.0  0.69957  0.35705  0.01768  1.0000
  N   N185      1.0  0.72689  0.39734  0.08338  1.0000
  C   C1914     1.0  0.73619  0.40134  0.09038  1.0000
  C   C1915     1.0  0.73604  0.39157  0.07082  1.0000
  C   C1916     1.0  0.71585  0.41017  0.07870  1.0000
  C   C1917     1.0  0.71944  0.38625  0.09362  1.0000
  H   H2991     1.0  0.72973  0.40544  0.10010  1.0000
  H   H2992     1.0  0.74190  0.40977  0.08302  1.0000
  H   H2993     1.0  0.74472  0.39192  0.09384  1.0000
  H   H2994     1.0  0.72927  0.38882  0.06510  1.0000
  H   H2995     1.0  0.74213  0.39948  0.06299  1.0000
  H   H2996     1.0  0.74421  0.38159  0.07400  1.0000
  H   H2997     1.0  0.70867  0.40746  0.07337  1.0000
  H   H2998     1.0  0.72107  0.41874  0.07089  1.0000
  H   H2999     1.0  0.70869  0.41474  0.08793  1.0000
  H   H3000     1.0  0.71191  0.38340  0.08884  1.0000
  H   H3001     1.0  0.71288  0.38996  0.10351  1.0000
  H   H3002     1.0  0.72741  0.37616  0.09686  1.0000
  H   H3003     1.0  0.88493  0.43519  0.23327  1.0000
  H   H3004     1.0  0.84225  0.44860  0.11465  1.0000
  S   S771      1.0  0.69964  0.34530  0.99469  1.0000
  H   H3005     1.0  0.85090  0.43055  0.11269  1.0000
  H   H3006     1.0  0.86427  0.43556  0.25398  1.0000
  H   H3007     1.0  0.86815  0.48867  0.17649  1.0000
  H   H3008     1.0  0.92495  0.42520  0.00594  1.0000
  S   S772      1.0  0.91759  0.48827  0.21954  1.0000
  H   H3009     1.0  0.84273  0.45676  0.18765  1.0000
  N   N186      1.0  0.69827  0.29597  0.01750  1.0000
  H   H3010     1.0  0.67797  0.26322  0.09046  1.0000
  C   C1918     1.0  0.82837  0.47021  0.20931  1.0000
  H   H3011     1.0  0.67504  0.30387  0.02306  1.0000
  H   H3012     1.0  0.68400  0.29881  0.03773  1.0000
  C   C1919     1.0  0.98424  0.34032  0.28201  1.0000
  S   S773      1.0  0.95548  0.35941  0.31184  1.0000
  H   H3013     1.0  0.58353  0.28317  0.99574  1.0000
  H   H3014     1.0  0.67383  0.36025  0.02327  1.0000
  H   H3015     1.0  0.89225  0.42996  0.27486  1.0000
  H   H3016     1.0  0.68423  0.35119  0.04518  1.0000
  H   H3017     1.0  0.98106  0.45937  0.12316  1.0000
  H   H3018     1.0  0.69615  0.24505  0.07834  1.0000
  H   H3019     1.0  0.83866  0.47588  0.18124  1.0000
  H   H3020     1.0  0.71682  0.28996  0.05720  1.0000
  H   H3021     1.0  0.96814  0.38675  0.28392  1.0000
  C   C1920     1.0  0.65921  0.38280  0.04626  1.0000
  H   H3022     1.0  0.00031  0.45384  0.11611  1.0000
  H   H3023     1.0  0.64470  0.36409  0.04493  1.0000
  S   S774      1.0  0.64099  0.25406  0.05946  1.0000
  H   H3024     1.0  0.64887  0.38807  0.04252  1.0000
  S   S775      1.0  0.55545  0.32675  0.99811  1.0000
  H   H3025     1.0  0.65917  0.37581  0.02225  1.0000
  H   H3026     1.0  0.70422  0.26018  0.08889  1.0000
  H   H3027     1.0  0.67442  0.26095  0.10947  1.0000
  N   N187      1.0  0.59520  0.28767  0.00875  1.0000
  C   C1921     1.0  0.69528  0.28804  0.06978  1.0000
  S   S776      1.0  0.86050  0.42363  0.99101  1.0000
  C   C1922     1.0  0.84539  0.47877  0.09889  1.0000
  H   H3028     1.0  0.68979  0.30336  0.99840  1.0000
  S   S777      1.0  0.62697  0.31681  0.99108  1.0000
  H   H3029     1.0  0.99135  0.47241  0.11198  1.0000
  C   C1923     1.0  0.99231  0.37341  0.29389  1.0000
  H   H3030     1.0  0.83554  0.47739  0.09704  1.0000
  H   H3031     1.0  0.91201  0.41127  0.99014  1.0000
  H   H3032     1.0  0.61021  0.27938  0.99106  1.0000
  H   H3033     1.0  0.65744  0.36219  0.99573  1.0000
  H   H3034     1.0  0.99766  0.45262  0.15437  1.0000
  H   H3035     1.0  0.72693  0.38732  0.98852  1.0000
  H   H3036     1.0  0.98291  0.48670  0.13079  1.0000
  H   H3037     1.0  0.91451  0.48609  0.07604  1.0000
  H   H3038     1.0  0.98447  0.44811  0.14792  1.0000
  H   H3039     1.0  0.68766  0.49226  0.03857  1.0000
  H   H3040     1.0  0.62346  0.48533  0.00528  1.0000
  H   H3041     1.0  0.68720  0.28056  0.01617  1.0000
  H   H3042     1.0  0.79983  0.49220  0.98768  1.0000
  H   H3043     1.0  0.90482  0.49054  0.15205  1.0000
  S   S778      1.0  0.83396  0.49277  0.15358  1.0000
  H   H3044     1.0  0.53154  0.31399  0.00065  1.0000
  H   H3045     1.0  0.58304  0.29985  0.02475  1.0000
  C   C1924     1.0  0.90164  0.48922  0.17986  1.0000
  C   C1925     1.0  0.70991  0.30265  0.07319  1.0000
  S   S779      1.0  0.58658  0.38391  0.98882  1.0000
  N   N188      1.0  0.99487  0.46472  0.13342  1.0000
  N   N189      1.0  0.99129  0.38400  0.28024  1.0000
  C   C1926     1.0  0.65502  0.35928  0.04881  1.0000
  H   H3046     1.0  0.63868  0.33974  0.00662  1.0000
  C   C1927     1.0  0.69954  0.30311  0.00221  1.0000
  H   H3047     1.0  0.65947  0.34851  0.04610  1.0000
  H   H3048     1.0  0.63009  0.39416  0.99443  1.0000
  H   H3049     1.0  0.81269  0.45167  0.19600  1.0000
  H   H3050     1.0  0.86235  0.41344  0.02333  1.0000
  N   N190      1.0  0.83537  0.42668  0.07640  1.0000
  C   C1928     1.0  0.84521  0.41596  0.06826  1.0000
  C   C1929     1.0  0.83890  0.44096  0.06972  1.0000
  C   C1930     1.0  0.83721  0.42235  0.09131  1.0000
  C   C1931     1.0  0.82010  0.42744  0.07632  1.0000
  H   H3051     1.0  0.84314  0.40498  0.07331  1.0000
  H   H3052     1.0  0.85688  0.41540  0.06768  1.0000
  H   H3053     1.0  0.84373  0.41867  0.05708  1.0000
  H   H3054     1.0  0.85052  0.44066  0.06914  1.0000
  H   H3055     1.0  0.83708  0.44480  0.05862  1.0000
  H   H3056     1.0  0.83209  0.44918  0.07593  1.0000
  H   H3057     1.0  0.82989  0.43018  0.09775  1.0000
  H   H3058     1.0  0.84860  0.42161  0.09179  1.0000
  H   H3059     1.0  0.83466  0.41162  0.09662  1.0000
  H   H3060     1.0  0.81233  0.43512  0.08273  1.0000
  H   H3061     1.0  0.81725  0.41673  0.08094  1.0000
  H   H3062     1.0  0.81823  0.43103  0.06523  1.0000
  N   N191      1.0  0.92788  0.34090  0.26508  1.0000
  C   C1932     1.0  0.92730  0.33665  0.25222  1.0000
  C   C1933     1.0  0.93745  0.35127  0.26085  1.0000
  H   H3063     1.0  0.93835  0.33159  0.24672  1.0000
  H   H3064     1.0  0.92018  0.32880  0.25501  1.0000
  H   H3065     1.0  0.92282  0.34614  0.24434  1.0000
  H   H3066     1.0  0.94508  0.32273  0.27044  1.0000
  H   H3067     1.0  0.92691  0.31993  0.27873  1.0000
  H   H3068     1.0  0.94896  0.34630  0.25635  1.0000
  H   H3069     1.0  0.93379  0.36077  0.25262  1.0000
  H   H3070     1.0  0.97294  0.33198  0.30335  1.0000
  C   C1934     1.0  0.83377  0.46623  0.18545  1.0000
  H   H3071     1.0  0.60522  0.27029  0.02379  1.0000
  C   C1935     1.0  0.59618  0.37784  0.01376  1.0000
  H   H3072     1.0  0.76488  0.47940  0.11266  1.0000
  C   C1936     1.0  0.90305  0.41028  0.13689  1.0000
  H   H3073     1.0  0.63224  0.35882  0.00530  1.0000
  H   H3074     1.0  0.88549  0.43778  0.99078  1.0000
  H   H3075     1.0  0.89581  0.41643  0.12939  1.0000
  H   H3076     1.0  0.82005  0.47120  0.21938  1.0000
  C   C1937     1.0  0.89246  0.43005  0.24070  1.0000
  S   S780      1.0  0.63239  0.42223  0.99407  1.0000
  H   H3077     1.0  0.90042  0.39943  0.14117  1.0000
  H   H3078     1.0  0.59670  0.26488  0.01303  1.0000
  C   C1938     1.0  0.99609  0.32786  0.30180  1.0000
  H   H3079     1.0  0.69601  0.27522  0.03098  1.0000
  H   H3080     1.0  0.97854  0.37299  0.27435  1.0000
  C   C1939     1.0  0.98333  0.47637  0.13890  1.0000
  H   H3081     1.0  0.83210  0.43469  0.12204  1.0000
  S   S781      1.0  0.61857  0.24917  0.99368  1.0000
  H   H3082     1.0  0.70919  0.29733  0.99538  1.0000
  S   S782      1.0  0.66847  0.25088  0.02168  1.0000
  H   H3083     1.0  0.58565  0.27340  0.02739  1.0000
  C   C1940     1.0  0.85731  0.49108  0.10859  1.0000
  H   H3084     1.0  0.87350  0.49003  0.19173  1.0000
  H   H3085     1.0  0.89466  0.45380  0.24670  1.0000
  C   C1941     1.0  0.99784  0.34182  0.27303  1.0000
  H   H3086     1.0  0.68620  0.24579  0.99223  1.0000
  N   N192      1.0  0.81194  0.34933  0.10844  1.0000
  C   C1942     1.0  0.79776  0.34952  0.11885  1.0000
  C   C1943     1.0  0.81535  0.33711  0.10144  1.0000
  C   C1944     1.0  0.82355  0.34777  0.11593  1.0000
  C   C1945     1.0  0.81112  0.36293  0.09748  1.0000
  H   H3087     1.0  0.79817  0.33973  0.12766  1.0000
  H   H3088     1.0  0.78888  0.35001  0.11366  1.0000
  H   H3089     1.0  0.79441  0.35903  0.12382  1.0000
  H   H3090     1.0  0.80677  0.33798  0.09569  1.0000
  H   H3091     1.0  0.82594  0.33670  0.09346  1.0000
  H   H3092     1.0  0.81607  0.32666  0.10939  1.0000
  H   H3093     1.0  0.83436  0.34777  0.10835  1.0000
  H   H3094     1.0  0.82455  0.33765  0.12431  1.0000
  H   H3095     1.0  0.82138  0.35687  0.12123  1.0000
  H   H3096     1.0  0.80299  0.36417  0.09113  1.0000
  H   H3097     1.0  0.82183  0.36346  0.08985  1.0000
  H   H3098     1.0  0.80797  0.37243  0.10244  1.0000
  N   N193      1.0  0.82224  0.46765  0.19851  1.0000
  Fe  Fe381     1.0  0.67360  0.26827  0.06218  1.0000
  S   S783      1.0  0.82554  0.44009  0.99433  1.0000
  S   S784      1.0  0.94052  0.38064  0.28550  1.0000
  C   C1946     1.0  0.53579  0.31794  0.98939  1.0000
  H   H3099     1.0  0.83772  0.46129  0.21198  1.0000
  H   H3100     1.0  0.65673  0.38177  0.05804  1.0000
  H   H3101     1.0  0.89900  0.47433  0.16221  1.0000
  H   H3102     1.0  0.81404  0.49012  0.19046  1.0000
  H   H3103     1.0  0.80757  0.45509  0.21374  1.0000
  H   H3104     1.0  0.89432  0.41821  0.24203  1.0000
  N   N194      1.0  0.88980  0.49242  0.17219  1.0000
  C   C1947     1.0  0.84458  0.48899  0.10649  1.0000
  S   S785      1.0  0.96830  0.34772  0.27536  1.0000
  C   C1948     1.0  0.58265  0.29126  0.00191  1.0000
  C   C1949     1.0  0.89655  0.42707  0.26422  1.0000
  S   S786      1.0  0.95832  0.48640  0.11426  1.0000
  C   C1950     1.0  0.93382  0.32803  0.27525  1.0000
  S   S787      1.0  0.62275  0.29488  0.05755  1.0000
  H   H3105     1.0  0.65213  0.35757  0.06069  1.0000
  C   C1951     1.0  0.59360  0.29869  0.01676  1.0000
  C   C1952     1.0  0.97819  0.38384  0.27576  1.0000
  H   H3106     1.0  0.66679  0.39025  0.04134  1.0000
  H   H3107     1.0  0.91302  0.35180  0.28121  1.0000
  C   C1953     1.0  0.70305  0.25202  0.09919  1.0000
  H   H3108     1.0  0.93762  0.35526  0.27017  1.0000
  C   C1954     1.0  0.99176  0.46245  0.12063  1.0000
  H   H3109     1.0  0.82621  0.44101  0.14575  1.0000
  C   C1955     1.0  0.66911  0.37068  0.02664  1.0000
  H   H3110     1.0  0.86719  0.43340  0.27156  1.0000
  C   C1956     1.0  0.91300  0.34765  0.27193  1.0000
  H   H3111     1.0  0.90789  0.35692  0.26430  1.0000
  C   C1957     1.0  0.63755  0.48836  0.01683  1.0000
  H   H3112     1.0  0.68738  0.36869  0.04300  1.0000
  Fe  Fe382     1.0  0.94344  0.38218  0.30649  1.0000
  H   H3113     1.0  0.90537  0.47744  0.18372  1.0000
  C   C1958     1.0  0.92202  0.40190  0.11774  1.0000
  C   C1959     1.0  0.85893  0.47050  0.09352  1.0000
  Fe  Fe383     1.0  0.95063  0.35728  0.29206  1.0000
  Fe  Fe384     1.0  0.67207  0.40964  0.99824  1.0000
  Fe  Fe385     1.0  0.64157  0.27618  0.06049  1.0000
  H   H3114     1.0  0.87331  0.41846  0.26296  1.0000
  H   H3115     1.0  0.85169  0.41592  0.15125  1.0000
  H   H3116     1.0  0.83746  0.41592  0.14319  1.0000
  H   H3117     1.0  0.84055  0.44115  0.15357  1.0000
  H   H3118     1.0  0.87617  0.45598  0.24557  1.0000
  H   H3119     1.0  0.78347  0.48048  0.11004  1.0000
  S   S788      1.0  0.67586  0.24553  0.06060  1.0000
  C   C1960     1.0  0.84830  0.41864  0.14088  1.0000
  H   H3120     1.0  0.93449  0.33087  0.28503  1.0000
  C   C1961     1.0  0.81670  0.45426  0.20421  1.0000
  H   H3121     1.0  0.99855  0.34706  0.26186  1.0000
  H   H3122     1.0  0.90738  0.42996  0.25963  1.0000
  C   C1962     1.0  0.87215  0.43028  0.26107  1.0000
  H   H3123     1.0  0.88091  0.47408  0.18482  1.0000
  S   S789      1.0  0.66230  0.27762  0.04404  1.0000
  C   C1963     1.0  0.83732  0.44315  0.14322  1.0000
  H   H3124     1.0  0.85617  0.41141  0.13407  1.0000
  H   H3125     1.0  0.90796  0.43275  0.01667  1.0000
  Fe  Fe386     1.0  0.57420  0.33787  0.98815  1.0000
  C   C1964     1.0  0.84304  0.43707  0.12019  1.0000
  C   C1965     1.0  0.69698  0.28098  0.01955  1.0000
  Fe  Fe387     1.0  0.65425  0.24653  0.07639  1.0000
  S   S790      1.0  0.65272  0.26887  0.07888  1.0000
  H   H3126     1.0  0.91920  0.42977  0.13252  1.0000
  N   N195      1.0  0.84775  0.43397  0.13378  1.0000
  H   H3127     1.0  0.83655  0.45479  0.13815  1.0000
  H   H3128     1.0  0.86600  0.43534  0.14091  1.0000
  H   H3129     1.0  0.66439  0.34326  0.99646  1.0000
  S   S791      1.0  0.95377  0.39861  0.30907  1.0000
  H   H3130     1.0  0.60916  0.29790  0.99017  1.0000
  H   H3131     1.0  0.90567  0.33991  0.27593  1.0000
  H   H3132     1.0  0.91106  0.41495  0.01400  1.0000
  C   C1966     1.0  0.63042  0.24605  0.01662  1.0000
  S   S792      1.0  0.66089  0.39534  0.99324  1.0000
  H   H3133     1.0  0.98044  0.40175  0.29051  1.0000
  H   H3134     1.0  0.70666  0.27477  0.01316  1.0000
  Fe  Fe388     1.0  0.84464  0.44011  0.00257  1.0000
  C   C1967     1.0  0.63287  0.48046  0.01001  1.0000
  H   H3135     1.0  0.66358  0.26189  0.99327  1.0000
  N   N196      1.0  0.69138  0.24449  0.10084  1.0000
  C   C1968     1.0  0.99021  0.39854  0.28218  1.0000
  H   H3136     1.0  0.98263  0.37616  0.30252  1.0000
  C   C1969     1.0  0.71136  0.29600  0.02211  1.0000
  C   C1970     1.0  0.91298  0.42594  0.00860  1.0000
  C   C1971     1.0  0.61152  0.38834  0.99200  1.0000
  C   C1972     1.0  0.62063  0.38966  0.99991  1.0000
  H   H3137     1.0  0.71381  0.24440  0.09926  1.0000
  H   H3138     1.0  0.72862  0.32647  0.99372  1.0000
  H   H3139     1.0  0.97700  0.39165  0.26549  1.0000
  H   H3140     1.0  0.67244  0.48267  0.99769  1.0000
  C   C1973     1.0  0.60888  0.28725  0.99762  1.0000
  C   C1974     1.0  0.65968  0.35360  0.98973  1.0000
  H   H3141     1.0  0.99539  0.32225  0.31289  1.0000
  H   H3142     1.0  0.77372  0.47313  0.12748  1.0000
  H   H3143     1.0  0.88854  0.42149  0.00390  1.0000
  H   H3144     1.0  0.99276  0.36237  0.29288  1.0000
  H   H3145     1.0  0.71079  0.29056  0.03359  1.0000
  H   H3146     1.0  0.82947  0.46472  0.17687  1.0000
  H   H3147     1.0  0.80534  0.47825  0.18683  1.0000
  H   H3148     1.0  0.98519  0.47827  0.14864  1.0000
  H   H3149     1.0  0.00231  0.37299  0.29734  1.0000
  H   H3150     1.0  0.97235  0.47381  0.14170  1.0000
  C   C1975     1.0  0.67737  0.25506  0.10072  1.0000
  H   H3151     1.0  0.88075  0.48414  0.10500  1.0000
  C   C1976     1.0  0.77263  0.48168  0.11760  1.0000
  C   C1977     1.0  0.63176  0.25071  0.00177  1.0000
  S   S793      1.0  0.65717  0.49281  0.02928  1.0000
  H   H3152     1.0  0.59076  0.43238  0.98754  1.0000
  C   C1978     1.0  0.99135  0.25176  0.43058  1.0000
  H   H3153     1.0  0.93044  0.29704  0.38136  1.0000
  S   S794      1.0  0.93650  0.29071  0.42506  1.0000
  H   H3154     1.0  0.91299  0.32156  0.61416  1.0000
  H   H3155     1.0  0.92200  0.32894  0.64503  1.0000
  S   S795      1.0  0.98897  0.41113  0.36368  1.0000
  H   H3156     1.0  0.99018  0.34962  0.32710  1.0000
  S   S796      1.0  0.97361  0.40026  0.39785  1.0000
  H   H3157     1.0  0.96864  0.28002  0.41389  1.0000
  Fe  Fe389     1.0  0.97746  0.39357  0.37718  1.0000
  S   S797      1.0  0.96143  0.38383  0.37281  1.0000
  Fe  Fe390     1.0  0.98689  0.41664  0.38470  1.0000
  S   S798      1.0  0.97880  0.43951  0.38756  1.0000
  H   H3158     1.0  0.93064  0.27569  0.57126  1.0000
  H   H3159     1.0  0.97330  0.47639  0.37081  1.0000
  H   H3160     1.0  0.99678  0.34073  0.49867  1.0000
  Fe  Fe391     1.0  0.98773  0.30560  0.48275  1.0000
  S   S799      1.0  0.97758  0.28948  0.50071  1.0000
  Fe  Fe392     1.0  0.95882  0.32468  0.47773  1.0000
  S   S800      1.0  0.94569  0.31064  0.49527  1.0000
  S   S801      1.0  0.94948  0.34604  0.46489  1.0000
  Fe  Fe393     1.0  0.96218  0.30893  0.50767  1.0000
  S   S802      1.0  0.95632  0.31243  0.52990  1.0000
  Fe  Fe394     1.0  0.96205  0.29242  0.48674  1.0000
  S   S803      1.0  0.95494  0.27381  0.48427  1.0000
  S   S804      1.0  0.97375  0.32479  0.49097  1.0000
  S   S805      1.0  0.97380  0.30661  0.46799  1.0000
  Fe  Fe395     1.0  0.93345  0.35459  0.32279  1.0000
  C   C1979     1.0  0.92477  0.31883  0.61434  1.0000
  C   C1980     1.0  0.95152  0.38071  0.35117  1.0000
  S   S806      1.0  0.94703  0.30007  0.58135  1.0000
  C   C1981     1.0  0.95255  0.34456  0.58034  1.0000
  C   C1982     1.0  0.95988  0.33234  0.58870  1.0000
  C   C1983     1.0  0.95821  0.31861  0.58916  1.0000
  C   C1984     1.0  0.94897  0.31709  0.58148  1.0000
  C   C1985     1.0  0.94106  0.32936  0.57374  1.0000
  C   C1986     1.0  0.94282  0.34308  0.57319  1.0000
  H   H3161     1.0  0.96722  0.33347  0.59446  1.0000
  H   H3162     1.0  0.96436  0.30924  0.59515  1.0000
  H   H3163     1.0  0.93386  0.32823  0.56783  1.0000
  H   H3164     1.0  0.93713  0.35249  0.56674  1.0000
  C   C1987     1.0  0.97160  0.31688  0.53193  1.0000
  H   H3165     1.0  0.98689  0.30377  0.51791  1.0000
  H   H3166     1.0  0.00026  0.30507  0.58516  1.0000
  H   H3167     1.0  0.93993  0.28425  0.54502  1.0000
  C   C1988     1.0  0.96990  0.32680  0.54015  1.0000
  H   H3168     1.0  0.00077  0.32275  0.64809  1.0000
  H   H3169     1.0  0.95923  0.33091  0.54619  1.0000
  C   C1989     1.0  0.98709  0.36238  0.43126  1.0000
  C   C1990     1.0  0.97287  0.37077  0.43217  1.0000
  C   C1991     1.0  0.96128  0.36583  0.44259  1.0000
  C   C1992     1.0  0.96391  0.35248  0.45207  1.0000
  C   C1993     1.0  0.97813  0.34417  0.45116  1.0000
  H   H3170     1.0  0.92603  0.33908  0.62691  1.0000
  H   H3171     1.0  0.97085  0.38119  0.42507  1.0000
  H   H3172     1.0  0.95031  0.37237  0.44335  1.0000
  H   H3173     1.0  0.98033  0.33392  0.45844  1.0000
  H   H3174     1.0  0.00063  0.34249  0.44000  1.0000
  C   C1994     1.0  0.99150  0.44834  0.38893  1.0000
  S   S807      1.0  0.95659  0.36142  0.57765  1.0000
  C   C1995     1.0  0.95039  0.27631  0.54603  1.0000
  H   H3175     1.0  0.00180  0.33684  0.46800  1.0000
  H   H3176     1.0  0.92971  0.32771  0.60676  1.0000
  H   H3177     1.0  0.96415  0.26505  0.42789  1.0000
  H   H3178     1.0  0.99178  0.34499  0.35835  1.0000
  H   H3179     1.0  0.98972  0.29846  0.55484  1.0000
  H   H3180     1.0  0.97547  0.27576  0.64071  1.0000
  C   C1996     1.0  0.94029  0.28600  0.44215  1.0000
  C   C1997     1.0  0.94162  0.27184  0.45019  1.0000
  C   C1998     1.0  0.94582  0.26813  0.46332  1.0000
  C   C1999     1.0  0.94852  0.27865  0.46850  1.0000
  C   C2000     1.0  0.94653  0.29292  0.46078  1.0000
  C   C2001     1.0  0.94252  0.29657  0.44759  1.0000
  H   H3181     1.0  0.93954  0.26372  0.44627  1.0000
  H   H3182     1.0  0.94721  0.25711  0.46935  1.0000
  H   H3183     1.0  0.94805  0.30119  0.46496  1.0000
  H   H3184     1.0  0.94126  0.30759  0.44154  1.0000
  H   H3185     1.0  0.94484  0.31125  0.63942  1.0000
  C   C2002     1.0  0.96470  0.39971  0.34499  1.0000
  C   C2003     1.0  0.95900  0.38857  0.35516  1.0000
  Fe  Fe396     1.0  0.99526  0.38552  0.40001  1.0000
  H   H3186     1.0  0.97039  0.40590  0.34801  1.0000
  C   C2004     1.0  0.92969  0.30150  0.34649  1.0000
  C   C2005     1.0  0.92979  0.29452  0.36083  1.0000
  C   C2006     1.0  0.93052  0.30225  0.37027  1.0000
  H   H3187     1.0  0.92910  0.29556  0.33916  1.0000
  S   S808      1.0  0.99566  0.36037  0.58355  1.0000
  H   H3188     1.0  0.99096  0.35231  0.47482  1.0000
  H   H3189     1.0  0.99657  0.49103  0.32831  1.0000
  H   H3190     1.0  0.99495  0.34888  0.64756  1.0000
  H   H3191     1.0  0.96541  0.49239  0.35951  1.0000
  H   H3192     1.0  0.97354  0.35211  0.62082  1.0000
  N   N197      1.0  0.94811  0.26361  0.55776  1.0000
  H   H3193     1.0  0.94763  0.30191  0.62567  1.0000
  H   H3194     1.0  0.94635  0.34929  0.52934  1.0000
  H   H3195     1.0  0.92988  0.30892  0.61001  1.0000
  H   H3196     1.0  0.94400  0.37771  0.33416  1.0000
  S   S809      1.0  0.92890  0.27619  0.36684  1.0000
  C   C2007     1.0  0.93099  0.32386  0.35115  1.0000
  H   H3197     1.0  0.93146  0.32279  0.37288  1.0000
  S   S810      1.0  0.97199  0.26186  0.58974  1.0000
  N   N198      1.0  0.98626  0.26703  0.42389  1.0000
  H   H3198     1.0  0.00141  0.35284  0.62842  1.0000
  Fe  Fe397     1.0  0.95653  0.28108  0.59697  1.0000
  C   C2008     1.0  0.95034  0.35354  0.51771  1.0000
  H   H3199     1.0  0.95770  0.28210  0.54792  1.0000
  C   C2009     1.0  0.92621  0.36736  0.51541  1.0000
  N   N199      1.0  0.93876  0.35659  0.50975  1.0000
  S   S811      1.0  0.00185  0.36828  0.41853  1.0000
  H   H3200     1.0  0.97002  0.25862  0.56078  1.0000
  H   H3201     1.0  0.98674  0.36374  0.35896  1.0000
  H   H3202     1.0  0.94701  0.37213  0.35898  1.0000
  C   C2010     1.0  0.94446  0.36223  0.49439  1.0000
  C   C2011     1.0  0.00239  0.40057  0.59143  1.0000
  H   H3203     1.0  0.94797  0.37246  0.49257  1.0000
  H   H3204     1.0  0.97927  0.46157  0.35355  1.0000
  H   H3205     1.0  0.98031  0.34031  0.54565  1.0000
  C   C2012     1.0  0.90889  0.25165  0.46538  1.0000
  H   H3206     1.0  0.90977  0.24983  0.45462  1.0000
  H   H3207     1.0  0.92377  0.29504  0.63478  1.0000
  S   S812      1.0  0.95231  0.27078  0.39407  1.0000
  C   C2013     1.0  0.93403  0.34317  0.51153  1.0000
  C   C2014     1.0  0.99231  0.25269  0.38184  1.0000
  H   H3208     1.0  0.97481  0.46609  0.39554  1.0000
  Fe  Fe398     1.0  0.98097  0.35836  0.57090  1.0000
  H   H3209     1.0  0.99280  0.38213  0.33709  1.0000
  H   H3210     1.0  0.92536  0.34494  0.50561  1.0000
  Fe  Fe399     1.0  0.93347  0.26619  0.38883  1.0000
  S   S813      1.0  0.93152  0.34228  0.34577  1.0000
  N   N200      1.0  0.94934  0.35287  0.41039  1.0000
  C   C2015     1.0  0.95705  0.34390  0.42176  1.0000
  C   C2016     1.0  0.93485  0.34947  0.41331  1.0000
  C   C2017     1.0  0.95791  0.34988  0.39636  1.0000
  C   C2018     1.0  0.94751  0.36826  0.41011  1.0000
  H   H3211     1.0  0.96791  0.34640  0.42009  1.0000
  H   H3212     1.0  0.95883  0.33222  0.42215  1.0000
  H   H3213     1.0  0.95071  0.34570  0.43252  1.0000
  H   H3214     1.0  0.92805  0.35162  0.42381  1.0000
  H   H3215     1.0  0.92874  0.35603  0.40491  1.0000
  H   H3216     1.0  0.93583  0.33792  0.41358  1.0000
  H   H3217     1.0  0.95226  0.35641  0.38760  1.0000
  H   H3218     1.0  0.95963  0.33835  0.39618  1.0000
  H   H3219     1.0  0.96879  0.35264  0.39367  1.0000
  H   H3220     1.0  0.94172  0.37535  0.40165  1.0000
  H   H3221     1.0  0.95826  0.37123  0.40775  1.0000
  H   H3222     1.0  0.94119  0.37093  0.42055  1.0000
  H   H3223     1.0  0.97823  0.33312  0.62107  1.0000
  C   C2019     1.0  0.94982  0.38387  0.33706  1.0000
  C   C2020     1.0  0.96289  0.40296  0.33086  1.0000
  H   H3224     1.0  0.00255  0.27909  0.47773  1.0000
  H   H3225     1.0  0.93611  0.36431  0.48799  1.0000
  H   H3226     1.0  0.97506  0.26206  0.41085  1.0000
  Fe  Fe400     1.0  0.93712  0.27259  0.41529  1.0000
  S   S814      1.0  0.94099  0.26850  0.61302  1.0000
  C   C2021     1.0  0.97294  0.26862  0.41891  1.0000
  S   S815      1.0  0.91769  0.26988  0.40943  1.0000
  H   H3227     1.0  0.96877  0.32796  0.64775  1.0000
  H   H3228     1.0  0.92983  0.33846  0.52300  1.0000
  S   S816      1.0  0.99173  0.33560  0.57002  1.0000
  H   H3229     1.0  0.91727  0.36991  0.50962  1.0000
  S   S817      1.0  0.94386  0.24930  0.42518  1.0000
  H   H3230     1.0  0.92941  0.37761  0.51432  1.0000
  Fe  Fe401     1.0  0.95487  0.26726  0.62820  1.0000
  C   C2022     1.0  0.96228  0.25347  0.55874  1.0000
  N   N201      1.0  0.92696  0.31671  0.62893  1.0000
  H   H3231     1.0  0.99586  0.28771  0.59187  1.0000
  H   H3232     1.0  0.96097  0.24387  0.56767  1.0000
  N   N202      1.0  0.98615  0.33894  0.63625  1.0000
  H   H3233     1.0  0.95990  0.34527  0.51388  1.0000
  H   H3234     1.0  0.00184  0.37692  0.32045  1.0000
  N   N203      1.0  0.98644  0.48123  0.34958  1.0000
  Fe  Fe402     1.0  0.95722  0.24896  0.60675  1.0000
  C   C2023     1.0  0.98081  0.47135  0.34489  1.0000
  H   H3235     1.0  0.00158  0.25009  0.43422  1.0000
  C   C2024     1.0  0.99575  0.32674  0.53212  1.0000
  H   H3236     1.0  0.98136  0.29327  0.57344  1.0000
  H   H3237     1.0  0.95430  0.36337  0.51662  1.0000
  C   C2025     1.0  0.93036  0.31613  0.34163  1.0000
  H   H3238     1.0  0.94328  0.33485  0.50741  1.0000
  H   H3239     1.0  0.98180  0.25660  0.37898  1.0000
  H   H3240     1.0  0.92163  0.36338  0.52698  1.0000
  H   H3241     1.0  0.90768  0.30829  0.63969  1.0000
  C   C2026     1.0  0.93106  0.31686  0.36545  1.0000
  H   H3242     1.0  0.96725  0.41161  0.32303  1.0000
  H   H3243     1.0  0.95402  0.35441  0.48980  1.0000
  C   C2027     1.0  0.98546  0.31154  0.52419  1.0000
  S   S818      1.0  0.96920  0.28121  0.61233  1.0000
  H   H3244     1.0  0.92734  0.26356  0.55438  1.0000
  H   H3245     1.0  0.92186  0.30270  0.64961  1.0000
  C   C2028     1.0  0.99766  0.27171  0.41150  1.0000
  H   H3246     1.0  0.97005  0.47663  0.34206  1.0000
  H   H3247     1.0  0.97467  0.27254  0.44408  1.0000
  H   H3248     1.0  0.98330  0.36122  0.63648  1.0000
  C   C2029     1.0  0.00074  0.34899  0.32969  1.0000
  H   H3249     1.0  0.93026  0.32145  0.33060  1.0000
  C   C2030     1.0  0.98642  0.46189  0.39240  1.0000
  H   H3250     1.0  0.94021  0.25902  0.58061  1.0000
  H   H3251     1.0  0.98992  0.28716  0.64922  1.0000
  H   H3252     1.0  0.96748  0.24952  0.54870  1.0000
  C   C2031     1.0  0.98190  0.33200  0.53996  1.0000
  H   H3253     1.0  0.99424  0.28319  0.40624  1.0000
  S   S819      1.0  0.99409  0.36735  0.54938  1.0000
  H   H3254     1.0  0.98322  0.37544  0.32833  1.0000
  C   C2032     1.0  0.98307  0.27597  0.43448  1.0000
  H   H3255     1.0  0.99302  0.27517  0.43825  1.0000
  H   H3256     1.0  0.97887  0.28751  0.42992  1.0000
  H   H3257     1.0  0.98847  0.46763  0.33540  1.0000
  N   N204      1.0  0.99912  0.35929  0.33856  1.0000
  H   H3258     1.0  0.00211  0.36472  0.48625  1.0000
  C   C2033     1.0  0.99402  0.37408  0.33073  1.0000
  C   C2034     1.0  0.98971  0.29902  0.56581  1.0000
  H   H3259     1.0  0.97744  0.35693  0.35006  1.0000
  C   C2035     1.0  0.94154  0.26833  0.57140  1.0000
  C   C2036     1.0  0.98968  0.34908  0.44075  1.0000
  H   H3260     1.0  0.99966  0.46358  0.36157  1.0000
  H   H3261     1.0  0.92330  0.24411  0.59961  1.0000
  H   H3262     1.0  0.89854  0.24855  0.49379  1.0000
  C   C2037     1.0  0.92065  0.33026  0.63398  1.0000
  C   C2038     1.0  0.99625  0.47029  0.39132  1.0000
  C   C2039     1.0  0.91970  0.30524  0.63868  1.0000
  H   H3263     1.0  0.91787  0.25692  0.46444  1.0000
  S   S820      1.0  0.94484  0.27438  0.64922  1.0000
  H   H3264     1.0  0.94873  0.32049  0.62091  1.0000
  C   C2040     1.0  0.98218  0.34211  0.62228  1.0000
  Fe  Fe403     1.0  0.98320  0.26056  0.60697  1.0000
  C   C2041     1.0  0.00063  0.47368  0.35338  1.0000
  C   C2042     1.0  0.00224  0.34727  0.46985  1.0000
  H   H3265     1.0  0.91810  0.24571  0.48983  1.0000
  H   H3266     1.0  0.94848  0.27425  0.57360  1.0000
  H   H3267     1.0  0.98304  0.24795  0.44006  1.0000
  H   H3268     1.0  0.94279  0.25281  0.54458  1.0000
  H   H3269     1.0  0.99219  0.48089  0.39362  1.0000
  C   C2043     1.0  0.97018  0.28167  0.64906  1.0000
  H   H3270     1.0  0.96429  0.34704  0.64720  1.0000
  Fe  Fe404     1.0  0.92563  0.24617  0.41778  1.0000
  H   H3271     1.0  0.99178  0.34363  0.61331  1.0000
  S   S821      1.0  0.99796  0.37750  0.38047  1.0000
  H   H3272     1.0  0.99195  0.40085  0.59895  1.0000
  H   H3273     1.0  0.00071  0.27137  0.57505  1.0000
  H   H3274     1.0  0.98588  0.31051  0.56646  1.0000
  C   C2044     1.0  0.99756  0.31624  0.52452  1.0000
  C   C2045     1.0  0.94274  0.31247  0.62869  1.0000
  C   C2046     1.0  0.93826  0.25634  0.55491  1.0000
  H   H3275     1.0  0.99366  0.31620  0.63704  1.0000
  C   C2047     1.0  0.98833  0.35606  0.35209  1.0000
  C   C2048     1.0  0.95544  0.39503  0.32688  1.0000
  H   H3276     1.0  0.95539  0.27324  0.53551  1.0000
  H   H3277     1.0  0.99636  0.25623  0.63234  1.0000
  H   H3278     1.0  0.90878  0.33389  0.63415  1.0000
  C   C2049     1.0  0.97590  0.48581  0.36221  1.0000
  C   C2050     1.0  0.97314  0.33714  0.64790  1.0000
  H   H3279     1.0  0.99363  0.24470  0.42295  1.0000
  Fe  Fe405     1.0  0.95746  0.24715  0.40350  1.0000
  C   C2051     1.0  0.99755  0.32552  0.63764  1.0000
  S   S822      1.0  0.96970  0.24627  0.62375  1.0000
  H   H3280     1.0  0.99745  0.38924  0.57852  1.0000
  H   H3281     1.0  0.98784  0.39316  0.64710  1.0000
  H   H3282     1.0  0.89841  0.25945  0.46799  1.0000
  H   H3283     1.0  0.00249  0.26798  0.36465  1.0000
  C   C2052     1.0  0.99174  0.35097  0.63718  1.0000
  H   H3284     1.0  0.93654  0.24658  0.56346  1.0000
  H   H3285     1.0  0.00025  0.26523  0.40328  1.0000
  H   H3286     1.0  0.98020  0.49240  0.36679  1.0000
  C   C2053     1.0  0.00370  0.29375  0.58385  1.0000
  H   H3287     1.0  0.96059  0.47253  0.84922  1.0000
  H   H3288     1.0  0.88097  0.39373  0.92223  1.0000
  H   H3289     1.0  0.87965  0.49016  0.91094  1.0000
  Fe  Fe406     1.0  0.72697  0.33169  0.94655  1.0000
  S   S823      1.0  0.71061  0.32396  0.94004  1.0000
  S   S824      1.0  0.74833  0.33451  0.93086  1.0000
  Fe  Fe407     1.0  0.69452  0.34245  0.94823  1.0000
  C   C2054     1.0  0.65771  0.38216  0.93681  1.0000
  Fe  Fe408     1.0  0.70620  0.31164  0.96280  1.0000
  S   S825      1.0  0.69863  0.29073  0.97194  1.0000
  S   S826      1.0  0.71102  0.35122  0.95288  1.0000
  S   S827      1.0  0.72393  0.31765  0.96887  1.0000
  S   S828      1.0  0.60742  0.28695  0.92745  1.0000
  N   N205      1.0  0.72996  0.37657  0.97161  1.0000
  S   S829      1.0  0.59950  0.34940  0.93620  1.0000
  Fe  Fe409     1.0  0.70666  0.33673  0.97462  1.0000
  Fe  Fe410     1.0  0.82853  0.39877  0.90822  1.0000
  S   S830      1.0  0.80421  0.40651  0.91178  1.0000
  S   S831      1.0  0.84422  0.40860  0.91306  1.0000
  Fe  Fe411     1.0  0.82935  0.37713  0.89160  1.0000
  S   S832      1.0  0.80512  0.38277  0.89342  1.0000
  S   S833      1.0  0.84609  0.36072  0.88058  1.0000
  Fe  Fe412     1.0  0.80759  0.40560  0.88887  1.0000
  S   S834      1.0  0.79733  0.42330  0.87278  1.0000
  Fe  Fe413     1.0  0.80354  0.38307  0.91627  1.0000
  S   S835      1.0  0.78809  0.37294  0.93571  1.0000
  S   S836      1.0  0.83191  0.39983  0.88490  1.0000
  S   S837      1.0  0.82779  0.37542  0.91484  1.0000
  Fe  Fe414     1.0  0.89389  0.38512  0.80814  1.0000
  S   S838      1.0  0.90640  0.38957  0.78516  1.0000
  S   S839      1.0  0.86994  0.38502  0.81465  1.0000
  Fe  Fe415     1.0  0.91935  0.38336  0.82025  1.0000
  S   S840      1.0  0.93384  0.38789  0.79859  1.0000
  S   S841      1.0  0.92665  0.37867  0.84086  1.0000
  Fe  Fe416     1.0  0.91475  0.40464  0.79237  1.0000
  S   S842      1.0  0.92039  0.42502  0.77756  1.0000
  Fe  Fe417     1.0  0.92461  0.37236  0.79314  1.0000
  S   S843      1.0  0.94332  0.35689  0.78230  1.0000
  S   S844      1.0  0.90091  0.40158  0.81468  1.0000
  S   S845      1.0  0.91133  0.36654  0.81544  1.0000
  S   S846      1.0  0.99434  0.33024  0.68025  1.0000
  Fe  Fe418     1.0  0.96112  0.33253  0.71148  1.0000
  S   S847      1.0  0.95882  0.33727  0.68861  1.0000
  S   S848      1.0  0.94061  0.33575  0.72880  1.0000
  S   S849      1.0  0.82293  0.48172  0.89162  1.0000
  H   H3290     1.0  0.64090  0.37597  0.98047  1.0000
  S   S850      1.0  0.57358  0.35906  0.97229  1.0000
  Fe  Fe419     1.0  0.97648  0.34923  0.68408  1.0000
  H   H3291     1.0  0.95774  0.36261  0.80224  1.0000
  Fe  Fe420     1.0  0.97684  0.31768  0.68654  1.0000
  S   S851      1.0  0.98295  0.30309  0.67087  1.0000
  S   S852      1.0  0.97746  0.34613  0.70695  1.0000
  S   S853      1.0  0.97786  0.31177  0.70981  1.0000
  Fe  Fe421     1.0  0.84188  0.42515  0.98125  1.0000
  S   S854      1.0  0.84768  0.44275  0.96243  1.0000
  S   S855      1.0  0.83540  0.40622  0.97856  1.0000
  H   H3292     1.0  0.63573  0.32818  0.95625  1.0000
  N   N206      1.0  0.95894  0.34589  0.82123  1.0000
  Fe  Fe422     1.0  0.83307  0.45761  0.97638  1.0000
  C   C2055     1.0  0.91369  0.42243  0.98542  1.0000
  Fe  Fe423     1.0  0.86498  0.44261  0.97316  1.0000
  S   S856      1.0  0.88756  0.44585  0.96163  1.0000
  H   H3293     1.0  0.88713  0.48387  0.88734  1.0000
  H   H3294     1.0  0.68269  0.47847  0.98086  1.0000
  Fe  Fe424     1.0  0.96900  0.42938  0.88785  1.0000
  S   S857      1.0  0.94803  0.44195  0.89887  1.0000
  Fe  Fe425     1.0  0.95645  0.42889  0.86363  1.0000
  S   S858      1.0  0.93443  0.44122  0.87245  1.0000
  S   S859      1.0  0.96070  0.42363  0.84217  1.0000
  Fe  Fe426     1.0  0.94657  0.45497  0.87677  1.0000
  H   H3295     1.0  0.52052  0.31084  0.98246  1.0000
  Fe  Fe427     1.0  0.93737  0.42722  0.89377  1.0000
  S   S860      1.0  0.91735  0.41897  0.90728  1.0000
  S   S861      1.0  0.96859  0.44383  0.86612  1.0000
  S   S862      1.0  0.95848  0.41341  0.88452  1.0000
  C   C2056     1.0  0.89589  0.43743  0.94719  1.0000
  C   C2057     1.0  0.91038  0.43797  0.94034  1.0000
  C   C2058     1.0  0.91712  0.43197  0.92832  1.0000
  C   C2059     1.0  0.90937  0.42555  0.92299  1.0000
  C   C2060     1.0  0.89493  0.42476  0.93000  1.0000
  C   C2061     1.0  0.88821  0.43065  0.94213  1.0000
  H   H3296     1.0  0.91641  0.44306  0.94431  1.0000
  H   H3297     1.0  0.92837  0.43219  0.92332  1.0000
  H   H3298     1.0  0.88882  0.41983  0.92598  1.0000
  H   H3299     1.0  0.87705  0.43013  0.94742  1.0000
  C   C2062     1.0  0.97184  0.29553  0.66505  1.0000
  C   C2063     1.0  0.95695  0.29655  0.67116  1.0000
  C   C2064     1.0  0.94876  0.28992  0.66635  1.0000
  H   H3300     1.0  0.93733  0.29047  0.67132  1.0000
  C   C2065     1.0  0.95191  0.48017  0.84467  1.0000
  H   H3301     1.0  0.95183  0.30215  0.67980  1.0000
  H   H3302     1.0  0.85384  0.48947  0.83734  1.0000
  S   S863      1.0  0.97744  0.36902  0.66657  1.0000
  C   C2066     1.0  0.95446  0.38248  0.74465  1.0000
  C   C2067     1.0  0.89102  0.48561  0.91243  1.0000
  C   C2068     1.0  0.89200  0.39142  0.91512  1.0000
  H   H3303     1.0  0.94360  0.39258  0.72096  1.0000
  C   C2069     1.0  0.99350  0.44771  0.89403  1.0000
  Fe  Fe428     1.0  0.62619  0.25150  0.96973  1.0000
  H   H3304     1.0  0.95415  0.37699  0.75608  1.0000
  H   H3305     1.0  0.87096  0.38976  0.90376  1.0000
  C   C2070     1.0  0.88475  0.41172  0.89662  1.0000
  C   C2071     1.0  0.99378  0.37679  0.68044  1.0000
  S   S864      1.0  0.67479  0.25998  0.93852  1.0000
  Fe  Fe429     1.0  0.62130  0.26902  0.94057  1.0000
  H   H3306     1.0  0.57700  0.29965  0.94526  1.0000
  C   C2072     1.0  0.93598  0.39126  0.84125  1.0000
  C   C2073     1.0  0.93751  0.39250  0.85438  1.0000
  C   C2074     1.0  0.94497  0.40254  0.85480  1.0000
  C   C2075     1.0  0.95134  0.41097  0.84204  1.0000
  C   C2076     1.0  0.94995  0.40960  0.82893  1.0000
  C   C2077     1.0  0.94208  0.39993  0.82855  1.0000
  H   H3307     1.0  0.93286  0.38576  0.86422  1.0000
  H   H3308     1.0  0.94600  0.40358  0.86495  1.0000
  H   H3309     1.0  0.95485  0.41612  0.81905  1.0000
  H   H3310     1.0  0.94093  0.39910  0.81840  1.0000
  C   C2078     1.0  0.94224  0.35070  0.76775  1.0000
  C   C2079     1.0  0.95521  0.34554  0.75850  1.0000
  C   C2080     1.0  0.95483  0.34106  0.74646  1.0000
  C   C2081     1.0  0.94145  0.34143  0.74375  1.0000
  C   C2082     1.0  0.92846  0.34637  0.75314  1.0000
  C   C2083     1.0  0.92884  0.35108  0.76508  1.0000
  H   H3311     1.0  0.96563  0.34510  0.76056  1.0000
  H   H3312     1.0  0.96489  0.33708  0.73941  1.0000
  H   H3313     1.0  0.91808  0.34657  0.75116  1.0000
  H   H3314     1.0  0.91877  0.35488  0.77223  1.0000
  C   C2084     1.0  0.91124  0.44098  0.78347  1.0000
  C   C2085     1.0  0.91615  0.45371  0.77656  1.0000
  C   C2086     1.0  0.90908  0.46655  0.78120  1.0000
  H   H3315     1.0  0.95279  0.36888  0.81861  1.0000
  C   C2087     1.0  0.89198  0.45402  0.79953  1.0000
  C   C2088     1.0  0.89912  0.44117  0.79496  1.0000
  H   H3316     1.0  0.92544  0.45365  0.76758  1.0000
  C   C2089     1.0  0.66142  0.32787  0.92519  1.0000
  C   C2090     1.0  0.64151  0.33252  0.94520  1.0000
  H   H3317     1.0  0.89512  0.43148  0.80017  1.0000
  H   H3318     1.0  0.54913  0.27658  0.93904  1.0000
  Fe  Fe430     1.0  0.65227  0.41505  0.97794  1.0000
  S   S865      1.0  0.68889  0.32962  0.97038  1.0000
  S   S866      1.0  0.82938  0.47484  0.85210  1.0000
  C   C2091     1.0  0.94377  0.34443  0.82359  1.0000
  C   C2092     1.0  0.84259  0.40660  0.93139  1.0000
  C   C2093     1.0  0.83204  0.39983  0.94148  1.0000
  C   C2094     1.0  0.83028  0.39918  0.95609  1.0000
  C   C2095     1.0  0.83895  0.40542  0.96056  1.0000
  C   C2096     1.0  0.84983  0.41173  0.95047  1.0000
  C   C2097     1.0  0.85162  0.41236  0.93589  1.0000
  H   H3319     1.0  0.82507  0.39532  0.93804  1.0000
  H   H3320     1.0  0.82190  0.39421  0.96389  1.0000
  H   H3321     1.0  0.85689  0.41607  0.95392  1.0000
  H   H3322     1.0  0.85986  0.41753  0.92814  1.0000
  C   C2098     1.0  0.85267  0.36770  0.86232  1.0000
  C   C2099     1.0  0.86774  0.36576  0.85667  1.0000
  C   C2100     1.0  0.87313  0.37110  0.84206  1.0000
  C   C2101     1.0  0.86349  0.37792  0.83293  1.0000
  C   C2102     1.0  0.84842  0.37966  0.83857  1.0000
  C   C2103     1.0  0.84300  0.37483  0.85328  1.0000
  H   H3323     1.0  0.87526  0.36022  0.86361  1.0000
  H   H3324     1.0  0.88475  0.36978  0.83787  1.0000
  H   H3325     1.0  0.84090  0.38485  0.83156  1.0000
  H   H3326     1.0  0.83136  0.37624  0.85756  1.0000
  C   C2104     1.0  0.80486  0.43853  0.86822  1.0000
  C   C2105     1.0  0.80341  0.44841  0.85532  1.0000
  C   C2106     1.0  0.81069  0.45977  0.85062  1.0000
  C   C2107     1.0  0.81906  0.46157  0.85902  1.0000
  C   C2108     1.0  0.82016  0.45197  0.87217  1.0000
  C   C2109     1.0  0.81323  0.44030  0.87667  1.0000
  H   H3327     1.0  0.79699  0.44703  0.84876  1.0000
  H   H3328     1.0  0.80984  0.46715  0.84044  1.0000
  C   C2110     1.0  0.65155  0.39530  0.94104  1.0000
  H   H3329     1.0  0.81444  0.43262  0.88661  1.0000
  Fe  Fe431     1.0  0.65193  0.25577  0.94501  1.0000
  C   C2111     1.0  0.60639  0.30433  0.92921  1.0000
  C   C2112     1.0  0.60006  0.31629  0.91982  1.0000
  C   C2113     1.0  0.59838  0.33023  0.92164  1.0000
  C   C2114     1.0  0.60295  0.33219  0.93291  1.0000
  C   C2115     1.0  0.60973  0.32026  0.94194  1.0000
  C   C2116     1.0  0.61127  0.30636  0.94022  1.0000
  H   H3330     1.0  0.59633  0.31478  0.91122  1.0000
  H   H3331     1.0  0.59321  0.33945  0.91457  1.0000
  H   H3332     1.0  0.61382  0.32172  0.95028  1.0000
  H   H3333     1.0  0.61592  0.29726  0.94762  1.0000
  H   H3334     1.0  0.54379  0.29576  0.93708  1.0000
  H   H3335     1.0  0.93594  0.35231  0.82971  1.0000
  H   H3336     1.0  0.98047  0.33603  0.81105  1.0000
  H   H3337     1.0  0.90423  0.47151  0.88275  1.0000
  Fe  Fe432     1.0  0.59435  0.34762  0.95989  1.0000
  N   N207      1.0  0.56398  0.28598  0.94391  1.0000
  H   H3338     1.0  0.82679  0.45321  0.87859  1.0000
  N   N208      1.0  0.89847  0.47409  0.90447  1.0000
  H   H3339     1.0  0.90907  0.42644  0.97567  1.0000
  H   H3340     1.0  0.65356  0.37949  0.92912  1.0000
  C   C2117     1.0  0.77608  0.36329  0.93426  1.0000
  C   C2118     1.0  0.76977  0.35417  0.94656  1.0000
  C   C2119     1.0  0.76082  0.34568  0.94569  1.0000
  C   C2120     1.0  0.75798  0.34636  0.93252  1.0000
  C   C2121     1.0  0.76413  0.35562  0.92024  1.0000
  C   C2122     1.0  0.77310  0.36412  0.92111  1.0000
  H   H3341     1.0  0.77218  0.35335  0.95674  1.0000
  H   H3342     1.0  0.75650  0.33823  0.95512  1.0000
  H   H3343     1.0  0.76204  0.35614  0.91000  1.0000
  H   H3344     1.0  0.77776  0.37123  0.91158  1.0000
  C   C2123     1.0  0.69085  0.28478  0.96129  1.0000
  C   C2124     1.0  0.69904  0.28157  0.94819  1.0000
  C   C2125     1.0  0.69367  0.27454  0.94096  1.0000
  C   C2126     1.0  0.67996  0.27100  0.94657  1.0000
  C   C2127     1.0  0.67132  0.27520  0.95913  1.0000
  C   C2128     1.0  0.67690  0.28173  0.96666  1.0000
  H   H3345     1.0  0.70984  0.28379  0.94400  1.0000
  H   H3346     1.0  0.70040  0.27142  0.93120  1.0000
  S   S867      1.0  0.64027  0.25490  0.92882  1.0000
  H   H3347     1.0  0.64272  0.40277  0.93654  1.0000
  S   S868      1.0  0.63354  0.27125  0.95551  1.0000
  H   H3348     1.0  0.85631  0.48748  0.80685  1.0000
  S   S869      1.0  0.67556  0.35537  0.93843  1.0000
  H   H3349     1.0  0.89907  0.39702  0.91765  1.0000
  C   C2129     1.0  0.73355  0.36169  0.96960  1.0000
  H   H3350     1.0  0.92731  0.38039  0.75944  1.0000
  H   H3351     1.0  0.98331  0.45194  0.89054  1.0000
  H   H3352     1.0  0.62967  0.36737  0.97552  1.0000
  H   H3353     1.0  0.66065  0.27277  0.96343  1.0000
  H   H3354     1.0  0.67234  0.39173  0.96450  1.0000
  H   H3355     1.0  0.63990  0.34044  0.97535  1.0000
  C   C2130     1.0  0.66907  0.37240  0.94265  1.0000
  H   H3356     1.0  0.88406  0.41569  0.88520  1.0000
  N   N209      1.0  0.81571  0.45033  0.93240  1.0000
  C   C2131     1.0  0.83056  0.45297  0.92918  1.0000
  C   C2132     1.0  0.81324  0.43995  0.94626  1.0000
  C   C2133     1.0  0.81426  0.44438  0.92096  1.0000
  C   C2134     1.0  0.80482  0.46400  0.93326  1.0000
  H   H3357     1.0  0.83204  0.45741  0.93763  1.0000
  H   H3358     1.0  0.83286  0.46081  0.91883  1.0000
  H   H3359     1.0  0.83903  0.44287  0.92851  1.0000
  H   H3360     1.0  0.80209  0.43778  0.94920  1.0000
  H   H3361     1.0  0.82112  0.42948  0.94592  1.0000
  H   H3362     1.0  0.81461  0.44393  0.95510  1.0000
  H   H3363     1.0  0.80326  0.44206  0.92311  1.0000
  H   H3364     1.0  0.82240  0.43411  0.91998  1.0000
  H   H3365     1.0  0.81596  0.45198  0.91036  1.0000
  H   H3366     1.0  0.79353  0.46253  0.93500  1.0000
  H   H3367     1.0  0.80676  0.47239  0.92326  1.0000
  H   H3368     1.0  0.80516  0.46834  0.94228  1.0000
  C   C2135     1.0  0.00184  0.45715  0.89418  1.0000
  H   H3369     1.0  0.67050  0.28420  0.97679  1.0000
  H   H3370     1.0  0.99101  0.36819  0.68934  1.0000
  H   H3371     1.0  0.88258  0.45411  0.80839  1.0000
  H   H3372     1.0  0.66539  0.33748  0.92489  1.0000
  S   S870      1.0  0.60904  0.35320  0.97006  1.0000
  H   H3373     1.0  0.88690  0.37633  0.89899  1.0000
  H   H3374     1.0  0.95641  0.37395  0.73862  1.0000
  H   H3375     1.0  0.75226  0.37886  0.96406  1.0000
  C   C2136     1.0  0.89699  0.46670  0.79271  1.0000
  H   H3376     1.0  0.57302  0.26332  0.94515  1.0000
  H   H3377     1.0  0.92107  0.44649  0.98590  1.0000
  H   H3378     1.0  0.89658  0.37966  0.91805  1.0000
  H   H3379     1.0  0.69664  0.25175  0.96708  1.0000
  H   H3380     1.0  0.96406  0.38755  0.74072  1.0000
  H   H3381     1.0  0.86923  0.49182  0.82282  1.0000
  H   H3382     1.0  0.87949  0.46546  0.90834  1.0000
  H   H3383     1.0  0.73887  0.39554  0.96311  1.0000
  H   H3384     1.0  0.61381  0.44377  0.95140  1.0000
  C   C2137     1.0  0.64968  0.34100  0.97856  1.0000
  C   C2138     1.0  0.64090  0.36653  0.97659  1.0000
  H   H3385     1.0  0.84089  0.48535  0.82150  1.0000
  H   H3386     1.0  0.97579  0.33487  0.65855  1.0000
  Fe  Fe433     1.0  0.99407  0.32590  0.70346  1.0000
  H   H3387     1.0  0.91954  0.46016  0.90033  1.0000
  H   H3388     1.0  0.61913  0.41150  0.96272  1.0000
  H   H3389     1.0  0.91986  0.47750  0.90213  1.0000
  C   C2139     1.0  0.96265  0.34351  0.83521  1.0000
  C   C2140     1.0  0.55315  0.32968  0.97059  1.0000
  H   H3390     1.0  0.64456  0.26044  0.98206  1.0000
  C   C2141     1.0  0.82966  0.49059  0.92361  1.0000
  S   S871      1.0  0.59370  0.32617  0.97480  1.0000
  H   H3391     1.0  0.91148  0.38169  0.89304  1.0000
  H   H3392     1.0  0.67122  0.24803  0.97435  1.0000
  H   H3393     1.0  0.87349  0.41421  0.90321  1.0000
  H   H3394     1.0  0.90602  0.39671  0.87920  1.0000
  C   C2142     1.0  0.90616  0.39332  0.89080  1.0000
  C   C2143     1.0  0.88218  0.38811  0.89689  1.0000
  H   H3395     1.0  0.91329  0.39929  0.89271  1.0000
  N   N210      1.0  0.84585  0.42170  0.83877  1.0000
  C   C2144     1.0  0.85710  0.41179  0.84630  1.0000
  C   C2145     1.0  0.84957  0.42032  0.82373  1.0000
  C   C2146     1.0  0.84518  0.43665  0.83921  1.0000
  C   C2147     1.0  0.83153  0.41802  0.84591  1.0000
  H   H3396     1.0  0.85472  0.41275  0.85761  1.0000
  H   H3397     1.0  0.86815  0.41391  0.84096  1.0000
  H   H3398     1.0  0.85761  0.40039  0.84654  1.0000
  H   H3399     1.0  0.84157  0.42799  0.81763  1.0000
  H   H3400     1.0  0.86063  0.42231  0.81813  1.0000
  H   H3401     1.0  0.84957  0.40933  0.82304  1.0000
  H   H3402     1.0  0.83663  0.44442  0.83385  1.0000
  H   H3403     1.0  0.85576  0.43984  0.83382  1.0000
  H   H3404     1.0  0.84244  0.43802  0.85043  1.0000
  H   H3405     1.0  0.82843  0.41886  0.85728  1.0000
  H   H3406     1.0  0.83157  0.40682  0.84583  1.0000
  H   H3407     1.0  0.82267  0.42533  0.84069  1.0000
  H   H3408     1.0  0.88108  0.39162  0.88556  1.0000
  H   H3409     1.0  0.91788  0.39357  0.74679  1.0000
  C   C2148     1.0  0.96891  0.33518  0.81317  1.0000
  H   H3410     1.0  0.94055  0.34629  0.81326  1.0000
  H   H3411     1.0  0.80968  0.49234  0.93974  1.0000
  H   H3412     1.0  0.66328  0.47980  0.98583  1.0000
  H   H3413     1.0  0.50754  0.34817  0.95138  1.0000
  S   S872      1.0  0.66525  0.42878  0.98122  1.0000
  H   H3414     1.0  0.89006  0.45790  0.92173  1.0000
  H   H3415     1.0  0.66865  0.32669  0.94959  1.0000
  C   C2149     1.0  0.85189  0.47993  0.93222  1.0000
  H   H3416     1.0  0.65857  0.30034  0.93609  1.0000
  H   H3417     1.0  0.63342  0.33611  0.93827  1.0000
  H   H3418     1.0  0.58473  0.27304  0.94772  1.0000
  H   H3419     1.0  0.96161  0.33262  0.84185  1.0000
  H   H3420     1.0  0.94230  0.33350  0.82975  1.0000
  H   H3421     1.0  0.64354  0.30402  0.95072  1.0000
  C   C2150     1.0  0.96033  0.36051  0.81292  1.0000
  H   H3422     1.0  0.86360  0.47621  0.93026  1.0000
  N   N211      1.0  0.89128  0.39613  0.89985  1.0000
  H   H3423     1.0  0.89129  0.41807  0.89886  1.0000
  H   H3424     1.0  0.92042  0.47603  0.82912  1.0000
  S   S873      1.0  0.85500  0.48704  0.90314  1.0000
  C   C2151     1.0  0.82146  0.48904  0.93770  1.0000
  N   N212      1.0  0.94075  0.39320  0.74296  1.0000
  C   C2152     1.0  0.93832  0.40394  0.75158  1.0000
  C   C2153     1.0  0.94179  0.40045  0.72771  1.0000
  C   C2154     1.0  0.92843  0.38586  0.74794  1.0000
  H   H3425     1.0  0.92798  0.41213  0.75073  1.0000
  H   H3426     1.0  0.94734  0.40979  0.74815  1.0000
  H   H3427     1.0  0.93752  0.39879  0.76315  1.0000
  H   H3428     1.0  0.95100  0.40609  0.72356  1.0000
  H   H3429     1.0  0.93161  0.40860  0.72605  1.0000
  H   H3430     1.0  0.92996  0.37749  0.74185  1.0000
  H   H3431     1.0  0.67442  0.30927  0.94547  1.0000
  C   C2155     1.0  0.84367  0.47811  0.94631  1.0000
  H   H3432     1.0  0.73441  0.36154  0.95828  1.0000
  Fe  Fe434     1.0  0.82669  0.48831  0.86773  1.0000
  H   H3433     1.0  0.51989  0.35134  0.95983  1.0000
  H   H3434     1.0  0.71532  0.38440  0.95719  1.0000
  S   S874      1.0  0.93587  0.47843  0.87215  1.0000
  C   C2156     1.0  0.93871  0.48518  0.85360  1.0000
  H   H3435     1.0  0.90415  0.48897  0.88457  1.0000
  C   C2157     1.0  0.91365  0.46878  0.90630  1.0000
  H   H3436     1.0  0.84915  0.47314  0.95506  1.0000
  S   S875      1.0  0.81817  0.47704  0.96625  1.0000
  H   H3437     1.0  0.56000  0.30904  0.94021  1.0000
  H   H3438     1.0  0.56230  0.33487  0.96720  1.0000
  C   C2158     1.0  0.95408  0.48531  0.82981  1.0000
  H   H3439     1.0  0.90977  0.47209  0.81915  1.0000
  H   H3440     1.0  0.96435  0.48142  0.82298  1.0000
  C   C2159     1.0  0.95536  0.28242  0.65529  1.0000
  N   N213      1.0  0.81214  0.33387  0.91141  1.0000
  C   C2160     1.0  0.81755  0.31895  0.91878  1.0000
  C   C2161     1.0  0.79777  0.33512  0.90851  1.0000
  C   C2162     1.0  0.82257  0.33766  0.89775  1.0000
  C   C2163     1.0  0.81067  0.34380  0.92060  1.0000
  H   H3441     1.0  0.82835  0.31768  0.92119  1.0000
  H   H3442     1.0  0.81885  0.31117  0.91212  1.0000
  H   H3443     1.0  0.80987  0.31580  0.92912  1.0000
  H   H3444     1.0  0.79348  0.34622  0.90277  1.0000
  H   H3445     1.0  0.79839  0.32765  0.90176  1.0000
  H   H3446     1.0  0.78954  0.33261  0.91861  1.0000
  H   H3447     1.0  0.81890  0.34893  0.89198  1.0000
  H   H3448     1.0  0.82392  0.33051  0.89042  1.0000
  H   H3449     1.0  0.83355  0.33682  0.89951  1.0000
  H   H3450     1.0  0.80643  0.35513  0.91544  1.0000
  H   H3451     1.0  0.82132  0.34335  0.92285  1.0000
  H   H3452     1.0  0.80292  0.34129  0.93106  1.0000
  N   N214      1.0  0.93043  0.45727  0.82025  1.0000
  C   C2164     1.0  0.93078  0.45209  0.80762  1.0000
  C   C2165     1.0  0.94539  0.45767  0.82037  1.0000
  C   C2166     1.0  0.92448  0.44745  0.83341  1.0000
  C   C2167     1.0  0.92107  0.47188  0.81962  1.0000
  H   H3453     1.0  0.91973  0.45127  0.80744  1.0000
  H   H3454     1.0  0.93798  0.44119  0.80759  1.0000
  H   H3455     1.0  0.93480  0.45947  0.79746  1.0000
  H   H3456     1.0  0.94571  0.46035  0.83037  1.0000
  H   H3457     1.0  0.95302  0.44706  0.81978  1.0000
  H   H3458     1.0  0.94981  0.46584  0.81118  1.0000
  H   H3459     1.0  0.92426  0.45093  0.84317  1.0000
  H   H3460     1.0  0.93127  0.43633  0.83419  1.0000
  H   H3461     1.0  0.91318  0.44694  0.83371  1.0000
  H   H3462     1.0  0.92544  0.47964  0.80998  1.0000
  H   H3463     1.0  0.65381  0.33134  0.91779  1.0000
  C   C2168     1.0  0.57648  0.27376  0.94166  1.0000
  H   H3464     1.0  0.67103  0.31995  0.92082  1.0000
  H   H3465     1.0  0.95524  0.35155  0.84142  1.0000
  C   C2169     1.0  0.56919  0.29956  0.93905  1.0000
  H   H3466     1.0  0.97402  0.34455  0.83387  1.0000
  C   C2170     1.0  0.67217  0.48458  0.98623  1.0000
  S   S876      1.0  0.61196  0.25076  0.95587  1.0000
  H   H3467     1.0  0.58220  0.27496  0.93017  1.0000
  H   H3468     1.0  0.57499  0.30117  0.92759  1.0000
  C   C2171     1.0  0.66465  0.31734  0.94931  1.0000
  H   H3469     1.0  0.55836  0.28813  0.92398  1.0000
  C   C2172     1.0  0.82843  0.48231  0.94903  1.0000
  C   C2173     1.0  0.52950  0.31622  0.97910  1.0000
  C   C2174     1.0  0.99854  0.43282  0.89815  1.0000
  H   H3470     1.0  0.66825  0.35610  0.97995  1.0000
  S   S877      1.0  0.52750  0.31927  0.95131  1.0000
  H   H3471     1.0  0.64152  0.31167  0.93262  1.0000
  C   C2175     1.0  0.66812  0.38903  0.95692  1.0000
  H   H3472     1.0  0.97159  0.36208  0.81107  1.0000
  H   H3473     1.0  0.74409  0.35556  0.97253  1.0000
  H   H3474     1.0  0.96816  0.32400  0.81909  1.0000
  H   H3475     1.0  0.74189  0.38459  0.95048  1.0000
  H   H3476     1.0  0.91285  0.47633  0.77572  1.0000
  H   H3477     1.0  0.61398  0.39180  0.98051  1.0000
  H   H3478     1.0  0.65343  0.33036  0.98547  1.0000
  H   H3479     1.0  0.65832  0.34259  0.96863  1.0000
  H   H3480     1.0  0.89656  0.45293  0.90468  1.0000
  H   H3481     1.0  0.64784  0.36763  0.96564  1.0000
  H   H3482     1.0  0.89045  0.48151  0.92412  1.0000
  H   H3483     1.0  0.71238  0.39527  0.96993  1.0000
  C   C2176     1.0  0.64924  0.30887  0.93983  1.0000
  C   C2177     1.0  0.65664  0.39870  0.95121  1.0000
  H   H3484     1.0  0.70679  0.37847  0.97564  1.0000
  C   C2178     1.0  0.98838  0.37962  0.66811  1.0000
  C   C2179     1.0  0.53497  0.32132  0.96454  1.0000
  C   C2180     1.0  0.54684  0.32801  0.96032  1.0000
  H   H3485     1.0  0.55114  0.33201  0.94908  1.0000
  H   H3486     1.0  0.64492  0.34230  0.94535  1.0000
  H   H3487     1.0  0.90467  0.45116  0.97930  1.0000
  S   S878      1.0  0.98953  0.42055  0.89639  1.0000
  C   C2181     1.0  0.89846  0.47987  0.88911  1.0000
  S   S879      1.0  0.88814  0.48244  0.79907  1.0000
  C   C2182     1.0  0.67432  0.37591  0.95265  1.0000
  C   C2183     1.0  0.89081  0.46207  0.91003  1.0000
  H   H3488     1.0  0.56457  0.28387  0.96579  1.0000
  N   N215      1.0  0.65419  0.32164  0.93989  1.0000
  H   H3489     1.0  0.65963  0.31248  0.96049  1.0000
  C   C2184     1.0  0.00294  0.38507  0.68123  1.0000
  S   S880      1.0  0.64816  0.41482  0.95697  1.0000
  H   H3490     1.0  0.68293  0.36842  0.95734  1.0000
  C   C2185     1.0  0.55335  0.28661  0.93564  1.0000
  C   C2186     1.0  0.55693  0.28401  0.95930  1.0000
  H   H3491     1.0  0.91410  0.46426  0.91774  1.0000
  H   H3492     1.0  0.55307  0.27376  0.96340  1.0000
  H   H3493     1.0  0.96621  0.33678  0.80259  1.0000
  H   H3494     1.0  0.72503  0.35575  0.97637  1.0000
  H   H3495     1.0  0.54728  0.29289  0.96135  1.0000
  C   C2187     1.0  0.74122  0.38425  0.96190  1.0000
  S   S881      1.0  0.85082  0.45901  0.98563  1.0000
  C   C2188     1.0  0.71550  0.38402  0.96839  1.0000
  C   C2189     1.0  0.84488  0.48597  0.92082  1.0000
  C   C2190     1.0  0.60882  0.41709  0.95908  1.0000
  C   C2191     1.0  0.97838  0.28813  0.65395  1.0000
  H   H3496     1.0  0.92565  0.42183  0.98191  1.0000
  C   C2192     1.0  0.58756  0.43651  0.96077  1.0000
  C   C2193     1.0  0.50924  0.35597  0.95658  1.0000
  H   H3497     1.0  0.51032  0.36603  0.94830  1.0000
  Fe  Fe435     1.0  0.50569  0.31308  0.95782  1.0000
  H   H3498     1.0  0.51047  0.36457  0.97936  1.0000
  C   C2194     1.0  0.99205  0.39083  0.65664  1.0000
  H   H3499     1.0  0.50633  0.34022  0.98374  1.0000
  C   C2195     1.0  0.00139  0.39893  0.65733  1.0000
  H   H3500     1.0  0.62070  0.43413  0.96701  1.0000
  H   H3501     1.0  0.61193  0.42086  0.94726  1.0000
  C   C2196     1.0  0.61046  0.43942  0.96310  1.0000
  H   H3502     1.0  0.99800  0.46865  0.89089  1.0000
  C   C2197     1.0  0.54763  0.32469  0.98515  1.0000
  Fe  Fe436     1.0  0.58833  0.36263  0.98406  1.0000
  H   H3503     1.0  0.60210  0.40895  0.96141  1.0000
  H   H3504     1.0  0.58134  0.44570  0.96589  1.0000
  H   H3505     1.0  0.59016  0.44079  0.94899  1.0000
  H   H3506     1.0  0.58018  0.42899  0.96302  1.0000
  N   N216      1.0  0.60095  0.42916  0.96619  1.0000
  H   H3507     1.0  0.60497  0.44864  0.96838  1.0000
  H   H3508     1.0  0.59006  0.41552  0.98457  1.0000
  C   C2198     1.0  0.72955  0.37625  0.98660  1.0000
  N   N217      1.0  0.64632  0.35282  0.98607  1.0000
  C   C2199     1.0  0.59694  0.42360  0.98182  1.0000
  Fe  Fe437     1.0  0.60678  0.33264  0.98603  1.0000
  H   H3509     1.0  0.60679  0.41826  0.98632  1.0000
  C   C2200     1.0  0.69018  0.50111  0.02918  1.0000
  H   H3510     1.0  0.60196  0.71693  0.10221  1.0000
  H   H3511     1.0  0.57160  0.57826  0.01444  1.0000
  H   H3512     1.0  0.67696  0.52347  0.04182  1.0000
  C   C2201     1.0  0.88104  0.51616  0.08126  1.0000
  H   H3513     1.0  0.70592  0.61207  0.01551  1.0000
  H   H3514     1.0  0.95940  0.52303  0.15585  1.0000
  H   H3515     1.0  0.74886  0.50818  0.13306  1.0000
  H   H3516     1.0  0.77100  0.50871  0.00256  1.0000
  H   H3517     1.0  0.99442  0.51547  0.17657  1.0000
  H   H3518     1.0  0.63382  0.59032  0.00931  1.0000
  Fe  Fe438     1.0  0.72287  0.55380  0.10251  1.0000
  S   S882      1.0  0.69962  0.56635  0.10689  1.0000
  S   S883      1.0  0.73320  0.53871  0.12059  1.0000
  Fe  Fe439     1.0  0.72686  0.56573  0.07043  1.0000
  S   S884      1.0  0.70436  0.57984  0.07193  1.0000
  S   S885      1.0  0.74305  0.56521  0.04938  1.0000
  Fe  Fe440     1.0  0.70793  0.58490  0.09105  1.0000
  S   S886      1.0  0.70354  0.60674  0.09621  1.0000
  Fe  Fe441     1.0  0.69767  0.56034  0.08749  1.0000
  S   S887      1.0  0.67766  0.55409  0.08643  1.0000
  S   S888      1.0  0.73140  0.57276  0.08796  1.0000
  S   S889      1.0  0.71995  0.54582  0.08474  1.0000
  Fe  Fe442     1.0  0.59572  0.68421  0.10192  1.0000
  S   S890      1.0  0.60380  0.66204  0.11407  1.0000
  S   S891      1.0  0.57996  0.69954  0.11518  1.0000
  Fe  Fe443     1.0  0.60776  0.67491  0.07336  1.0000
  S   S892      1.0  0.61669  0.65190  0.08337  1.0000
  S   S893      1.0  0.60711  0.68319  0.05011  1.0000
  Fe  Fe444     1.0  0.59537  0.65442  0.09951  1.0000
  S   S894      1.0  0.58101  0.63850  0.10939  1.0000
  Fe  Fe445     1.0  0.62436  0.66171  0.09691  1.0000
  S   S895      1.0  0.64565  0.65575  0.10418  1.0000
  S   S896      1.0  0.58592  0.67652  0.08849  1.0000
  S   S897      1.0  0.61689  0.68479  0.08570  1.0000
  Fe  Fe446     1.0  0.65583  0.54450  0.02338  1.0000
  S   S898      1.0  0.63587  0.55849  0.01594  1.0000
  S   S899      1.0  0.67401  0.55383  0.02424  1.0000
  Fe  Fe447     1.0  0.64716  0.51664  0.02531  1.0000
  S   S900      1.0  0.62623  0.52829  0.01830  1.0000
  Fe  Fe448     1.0  0.63955  0.54305  0.00217  1.0000
  Fe  Fe449     1.0  0.62421  0.54271  0.03289  1.0000
  S   S901      1.0  0.60238  0.54980  0.04693  1.0000
  S   S902      1.0  0.66072  0.53033  0.00794  1.0000
  S   S903      1.0  0.64400  0.52976  0.04145  1.0000
  Fe  Fe450     1.0  0.53678  0.64144  0.03442  1.0000
  S   S904      1.0  0.51929  0.63613  0.05377  1.0000
  Fe  Fe451     1.0  0.56120  0.62362  0.04882  1.0000
  S   S905      1.0  0.54605  0.61652  0.06953  1.0000
  S   S906      1.0  0.58547  0.61620  0.04545  1.0000
  Fe  Fe452     1.0  0.53293  0.61371  0.05579  1.0000
  S   S907      1.0  0.52278  0.59453  0.06207  1.0000
  Fe  Fe453     1.0  0.53386  0.63948  0.06571  1.0000
  S   S908      1.0  0.52509  0.64957  0.08471  1.0000
  S   S909      1.0  0.54923  0.61863  0.03532  1.0000
  S   S910      1.0  0.55020  0.64700  0.04614  1.0000
  H   H3519     1.0  0.88532  0.50641  0.10870  1.0000
  Fe  Fe454     1.0  0.96861  0.55593  0.29380  1.0000
  S   S911      1.0  0.97906  0.56038  0.27053  1.0000
  C   C2202     1.0  0.56862  0.57574  0.02633  1.0000
  Fe  Fe455     1.0  0.96251  0.58725  0.29578  1.0000
  S   S912      1.0  0.97195  0.59444  0.27223  1.0000
  H   H3520     1.0  0.89946  0.53436  0.06887  1.0000
  Fe  Fe456     1.0  0.96014  0.57930  0.26886  1.0000
  S   S913      1.0  0.95014  0.58225  0.24988  1.0000
  Fe  Fe457     1.0  0.98990  0.57479  0.27586  1.0000
  C   C2203     1.0  0.54316  0.69584  0.12032  1.0000
  S   S914      1.0  0.94905  0.57400  0.29207  1.0000
  S   S915      1.0  0.98112  0.56841  0.29949  1.0000
  Fe  Fe458     1.0  0.80573  0.52717  0.14269  1.0000
  S   S916      1.0  0.82856  0.52791  0.14302  1.0000
  S   S917      1.0  0.78992  0.54695  0.13370  1.0000
  C   C2204     1.0  0.99015  0.52434  0.11616  1.0000
  S   S918      1.0  0.83526  0.50732  0.18346  1.0000
  Fe  Fe459     1.0  0.82565  0.51172  0.16392  1.0000
  C   C2205     1.0  0.63857  0.59984  0.00735  1.0000
  H   H3521     1.0  0.53672  0.70531  0.18987  1.0000
  H   H3522     1.0  0.76294  0.51825  0.10949  1.0000
  S   S919      1.0  0.80212  0.51260  0.16463  1.0000
  S   S920      1.0  0.81290  0.50935  0.13083  1.0000
  Fe  Fe460     1.0  0.91948  0.53960  0.19835  1.0000
  S   S921      1.0  0.92563  0.52535  0.21847  1.0000
  S   S922      1.0  0.93495  0.55089  0.18053  1.0000
  Fe  Fe461     1.0  0.88748  0.53820  0.20842  1.0000
  S   S923      1.0  0.89057  0.52430  0.22997  1.0000
  S   S924      1.0  0.86811  0.54695  0.19778  1.0000
  Fe  Fe462     1.0  0.90528  0.53860  0.22958  1.0000
  S   S925      1.0  0.90590  0.54579  0.24919  1.0000
  Fe  Fe463     1.0  0.91073  0.51229  0.21726  1.0000
  H   H3523     1.0  0.70818  0.57561  0.01169  1.0000
  S   S926      1.0  0.90003  0.55372  0.20938  1.0000
  S   S927      1.0  0.90673  0.52524  0.19590  1.0000
  C   C2206     1.0  0.93380  0.54967  0.16377  1.0000
  C   C2207     1.0  0.68753  0.51706  0.04452  1.0000
  H   H3524     1.0  0.64754  0.68069  0.99501  1.0000
  C   C2208     1.0  0.93440  0.56060  0.13868  1.0000
  C   C2209     1.0  0.93629  0.56097  0.15196  1.0000
  N   N218      1.0  0.54251  0.68083  0.12149  1.0000
  H   H3525     1.0  0.93613  0.56943  0.12958  1.0000
  H   H3526     1.0  0.93936  0.57017  0.15316  1.0000
  C   C2210     1.0  0.84482  0.51836  0.18681  1.0000
  C   C2211     1.0  0.85154  0.51325  0.19855  1.0000
  C   C2212     1.0  0.85924  0.52164  0.20168  1.0000
  C   C2213     1.0  0.85983  0.53548  0.19336  1.0000
  C   C2214     1.0  0.85308  0.54063  0.18162  1.0000
  C   C2215     1.0  0.84578  0.53204  0.17823  1.0000
  H   H3527     1.0  0.60704  0.68972  0.00212  1.0000
  H   H3528     1.0  0.86423  0.51762  0.21084  1.0000
  H   H3529     1.0  0.85337  0.55137  0.17521  1.0000
  H   H3530     1.0  0.84056  0.53614  0.16922  1.0000
  H   H3531     1.0  0.92622  0.52761  0.14741  1.0000
  H   H3532     1.0  0.69253  0.52441  0.04734  1.0000
  H   H3533     1.0  0.97932  0.52840  0.11404  1.0000
  C   C2216     1.0  0.60014  0.72918  0.11772  1.0000
  S   S928      1.0  0.85649  0.50462  0.11712  1.0000
  H   H3534     1.0  0.78928  0.49757  0.12057  1.0000
  H   H3535     1.0  0.72990  0.60127  0.02315  1.0000
  Fe  Fe464     1.0  0.93922  0.52540  0.11775  1.0000
  Fe  Fe465     1.0  0.62360  0.64538  0.99006  1.0000
  H   H3536     1.0  0.63143  0.67354  0.00242  1.0000
  C   C2217     1.0  0.93724  0.57275  0.24973  1.0000
  C   C2218     1.0  0.93670  0.57019  0.23672  1.0000
  C   C2219     1.0  0.92706  0.56212  0.23631  1.0000
  C   C2220     1.0  0.91758  0.55681  0.24888  1.0000
  C   C2221     1.0  0.91774  0.55985  0.26178  1.0000
  C   C2222     1.0  0.92763  0.56761  0.26225  1.0000
  H   H3537     1.0  0.94397  0.57426  0.22694  1.0000
  H   H3538     1.0  0.92698  0.55999  0.22627  1.0000
  H   H3539     1.0  0.91027  0.55602  0.27151  1.0000
  H   H3540     1.0  0.92768  0.56977  0.27227  1.0000
  H   H3541     1.0  0.75874  0.50583  0.10204  1.0000
  H   H3542     1.0  0.97253  0.61769  0.29358  1.0000
  S   S929      1.0  0.51617  0.70631  0.15019  1.0000
  H   H3543     1.0  0.72030  0.53109  0.04089  1.0000
  H   H3544     1.0  0.89359  0.51332  0.16054  1.0000
  H   H3545     1.0  0.71390  0.60543  0.99940  1.0000
  H   H3546     1.0  0.90043  0.49910  0.09596  1.0000
  Fe  Fe466     1.0  0.96832  0.50550  0.10950  1.0000
  C   C2223     1.0  0.53258  0.71201  0.18063  1.0000
  H   H3547     1.0  0.67078  0.60581  0.00827  1.0000
  H   H3548     1.0  0.90994  0.52807  0.08250  1.0000
  H   H3549     1.0  0.90343  0.55861  0.15943  1.0000
  N   N219      1.0  0.95520  0.52764  0.26988  1.0000
  H   H3550     1.0  0.67445  0.58290  0.00209  1.0000
  C   C2224     1.0  0.51112  0.59634  0.05088  1.0000
  H   H3551     1.0  0.53273  0.70345  0.11855  1.0000
  H   H3552     1.0  0.93850  0.51987  0.26606  1.0000
  S   S930      1.0  0.92654  0.50825  0.12341  1.0000
  C   C2225     1.0  0.59268  0.73232  0.13110  1.0000
  C   C2226     1.0  0.59829  0.56794  0.04781  1.0000
  C   C2227     1.0  0.58402  0.57433  0.05377  1.0000
  C   C2228     1.0  0.58002  0.58918  0.05303  1.0000
  C   C2229     1.0  0.59043  0.59760  0.04670  1.0000
  C   C2230     1.0  0.60491  0.59111  0.04144  1.0000
  C   C2231     1.0  0.60884  0.57627  0.04205  1.0000
  H   H3553     1.0  0.57601  0.56780  0.05877  1.0000
  H   H3554     1.0  0.56889  0.59408  0.05735  1.0000
  H   H3555     1.0  0.61300  0.59760  0.03671  1.0000
  H   H3556     1.0  0.62002  0.57129  0.03819  1.0000
  H   H3557     1.0  0.96456  0.54289  0.16203  1.0000
  C   C2232     1.0  0.54026  0.64742  0.09180  1.0000
  C   C2233     1.0  0.54066  0.63942  0.10571  1.0000
  C   C2234     1.0  0.55324  0.63672  0.11101  1.0000
  C   C2235     1.0  0.56528  0.64241  0.10259  1.0000
  C   C2236     1.0  0.56470  0.65080  0.08882  1.0000
  C   C2237     1.0  0.55231  0.65307  0.08334  1.0000
  H   H3558     1.0  0.53144  0.63490  0.11223  1.0000
  H   H3559     1.0  0.55366  0.63018  0.12164  1.0000
  H   H3560     1.0  0.57390  0.65525  0.08222  1.0000
  H   H3561     1.0  0.55207  0.65920  0.07253  1.0000
  C   C2238     1.0  0.61170  0.66941  0.04078  1.0000
  C   C2239     1.0  0.62306  0.65752  0.04343  1.0000
  C   C2240     1.0  0.60472  0.67091  0.02980  1.0000
  H   H3562     1.0  0.62868  0.65647  0.05169  1.0000
  H   H3563     1.0  0.59578  0.68000  0.02791  1.0000
  S   S931      1.0  0.73573  0.52574  0.01296  1.0000
  C   C2241     1.0  0.74906  0.54116  0.12393  1.0000
  C   C2242     1.0  0.75784  0.54997  0.11381  1.0000
  C   C2243     1.0  0.77043  0.55162  0.11683  1.0000
  C   C2244     1.0  0.77458  0.54412  0.12977  1.0000
  C   C2245     1.0  0.76590  0.53518  0.13979  1.0000
  C   C2246     1.0  0.75311  0.53386  0.13694  1.0000
  H   H3564     1.0  0.75501  0.55542  0.10363  1.0000
  H   H3565     1.0  0.77710  0.55857  0.10904  1.0000
  H   H3566     1.0  0.76887  0.52956  0.14990  1.0000
  H   H3567     1.0  0.74627  0.52721  0.14494  1.0000
  C   C2247     1.0  0.67485  0.55410  0.04150  1.0000
  C   C2248     1.0  0.68738  0.55665  0.04363  1.0000
  C   C2249     1.0  0.68830  0.55673  0.05740  1.0000
  C   C2250     1.0  0.67671  0.55421  0.06908  1.0000
  C   C2251     1.0  0.66418  0.55170  0.06690  1.0000
  C   C2252     1.0  0.66322  0.55170  0.05313  1.0000
  H   H3568     1.0  0.69650  0.55829  0.03470  1.0000
  H   H3569     1.0  0.69801  0.55856  0.05906  1.0000
  H   H3570     1.0  0.65518  0.54977  0.07590  1.0000
  H   H3571     1.0  0.65344  0.54990  0.05157  1.0000
  C   C2253     1.0  0.68683  0.61970  0.09799  1.0000
  C   C2254     1.0  0.67429  0.61881  0.09433  1.0000
  C   C2255     1.0  0.66145  0.62985  0.09589  1.0000
  C   C2256     1.0  0.66117  0.64162  0.10128  1.0000
  C   C2257     1.0  0.67370  0.64228  0.10497  1.0000
  C   C2258     1.0  0.68641  0.63152  0.10325  1.0000
  H   H3572     1.0  0.67450  0.60972  0.09025  1.0000
  H   H3573     1.0  0.65180  0.62918  0.09308  1.0000
  H   H3574     1.0  0.67365  0.65128  0.10912  1.0000
  H   H3575     1.0  0.69601  0.63238  0.10603  1.0000
  C   C2259     1.0  0.73062  0.54554  0.04502  1.0000
  C   C2260     1.0  0.74160  0.55337  0.03986  1.0000
  C   C2261     1.0  0.75097  0.55249  0.02647  1.0000
  H   H3576     1.0  0.72327  0.54624  0.05524  1.0000
  H   H3577     1.0  0.75948  0.55854  0.02241  1.0000
  H   H3578     1.0  0.55636  0.73013  0.11921  1.0000
  H   H3579     1.0  0.70835  0.51828  0.01077  1.0000
  C   C2262     1.0  0.59650  0.71898  0.11272  1.0000
  C   C2263     1.0  0.58552  0.71178  0.12119  1.0000
  C   C2264     1.0  0.57823  0.71480  0.13461  1.0000
  C   C2265     1.0  0.58191  0.72490  0.13961  1.0000
  C   C2266     1.0  0.52247  0.71442  0.16022  1.0000
  C   C2267     1.0  0.70008  0.52244  0.01973  1.0000
  H   H3580     1.0  0.56973  0.70927  0.14123  1.0000
  H   H3581     1.0  0.57651  0.72679  0.15017  1.0000
  H   H3582     1.0  0.99997  0.60168  0.27361  1.0000
  H   H3583     1.0  0.97752  0.51590  0.26600  1.0000
  H   H3584     1.0  0.56162  0.64881  0.01304  1.0000
  C   C2268     1.0  0.71873  0.57723  0.01244  1.0000
  H   H3585     1.0  0.87100  0.53057  0.10246  1.0000
  C   C2269     1.0  0.65912  0.60861  0.00768  1.0000
  H   H3586     1.0  0.85068  0.50277  0.20537  1.0000
  H   H3587     1.0  0.63666  0.63831  0.03674  1.0000
  H   H3588     1.0  0.92891  0.52859  0.17104  1.0000
  C   C2270     1.0  0.53240  0.72674  0.17692  1.0000
  H   H3589     1.0  0.75640  0.54346  0.00783  1.0000
  H   H3590     1.0  0.77490  0.50944  0.12998  1.0000
  C   C2271     1.0  0.62763  0.64731  0.03489  1.0000
  H   H3591     1.0  0.53116  0.67799  0.14357  1.0000
  H   H3592     1.0  0.53199  0.58062  0.03029  1.0000
  H   H3593     1.0  0.55628  0.65963  0.12547  1.0000
  H   H3594     1.0  0.55006  0.68171  0.09889  1.0000
  N   N220      1.0  0.88978  0.52094  0.08824  1.0000
  H   H3595     1.0  0.54523  0.69718  0.13025  1.0000
  H   H3596     1.0  0.87766  0.52465  0.07210  1.0000
  C   C2272     1.0  0.96989  0.62042  0.30391  1.0000
  H   H3597     1.0  0.96517  0.53246  0.24740  1.0000
  H   H3598     1.0  0.53971  0.66828  0.10845  1.0000
  C   C2273     1.0  0.94929  0.51574  0.26915  1.0000
  H   H3599     1.0  0.74496  0.49540  0.12593  1.0000
  C   C2274     1.0  0.96950  0.52183  0.27389  1.0000
  H   H3600     1.0  0.69002  0.52813  0.01570  1.0000
  H   H3601     1.0  0.53004  0.74172  0.22649  1.0000
  H   H3602     1.0  0.56586  0.67378  0.11640  1.0000
  S   S932      1.0  0.92890  0.54787  0.12039  1.0000
  C   C2275     1.0  0.55621  0.67105  0.12477  1.0000
  H   H3603     1.0  0.99551  0.60188  0.30538  1.0000
  N   N221      1.0  0.60534  0.61535  0.07704  1.0000
  C   C2276     1.0  0.61287  0.61412  0.08841  1.0000
  C   C2277     1.0  0.60215  0.63051  0.06921  1.0000
  C   C2278     1.0  0.59151  0.61044  0.08352  1.0000
  C   C2279     1.0  0.61487  0.60636  0.06699  1.0000
  H   H3604     1.0  0.61551  0.60279  0.09446  1.0000
  H   H3605     1.0  0.60598  0.62067  0.09628  1.0000
  H   H3606     1.0  0.62325  0.61794  0.08393  1.0000
  H   H3607     1.0  0.59622  0.63186  0.06070  1.0000
  H   H3608     1.0  0.59524  0.63763  0.07653  1.0000
  H   H3609     1.0  0.61231  0.63452  0.06392  1.0000
  H   H3610     1.0  0.59343  0.59903  0.08947  1.0000
  H   H3611     1.0  0.58552  0.61130  0.07523  1.0000
  H   H3612     1.0  0.58410  0.61707  0.09115  1.0000
  H   H3613     1.0  0.60978  0.60756  0.05796  1.0000
  H   H3614     1.0  0.61698  0.59474  0.07234  1.0000
  H   H3615     1.0  0.62555  0.60953  0.06226  1.0000
  H   H3616     1.0  0.71683  0.50954  0.03891  1.0000
  C   C2280     1.0  0.93074  0.54859  0.13705  1.0000
  H   H3617     1.0  0.55733  0.56086  0.01487  1.0000
  H   H3618     1.0  0.51954  0.68433  0.13106  1.0000
  C   C2281     1.0  0.93025  0.53760  0.16211  1.0000
  H   H3619     1.0  0.56850  0.58548  0.02990  1.0000
  C   C2282     1.0  0.62099  0.64908  0.02359  1.0000
  C   C2283     1.0  0.60937  0.66076  0.02118  1.0000
  N   N222      1.0  0.55436  0.57155  0.03182  1.0000
  H   H3620     1.0  0.66390  0.58428  0.02760  1.0000
  H   H3621     1.0  0.53056  0.68685  0.10485  1.0000
  H   H3622     1.0  0.99038  0.50047  0.17278  1.0000
  H   H3623     1.0  0.55791  0.67178  0.13510  1.0000
  H   H3624     1.0  0.73800  0.58270  0.02334  1.0000
  C   C2284     1.0  0.99013  0.51218  0.16903  1.0000
  S   S933      1.0  0.95234  0.52036  0.09675  1.0000
  C   C2285     1.0  0.70878  0.58652  0.03389  1.0000
  N   N223      1.0  0.71663  0.58967  0.01877  1.0000
  H   H3625     1.0  0.87544  0.51103  0.16248  1.0000
  H   H3626     1.0  0.50594  0.61767  0.09905  1.0000
  H   H3627     1.0  0.96917  0.50489  0.16105  1.0000
  H   H3628     1.0  0.60544  0.70867  0.99476  1.0000
  H   H3629     1.0  0.95378  0.52380  0.18150  1.0000
  S   S934      1.0  0.93077  0.49818  0.08765  1.0000
  H   H3630     1.0  0.71887  0.49780  0.02749  1.0000
  H   H3631     1.0  0.64555  0.59425  0.03275  1.0000
  H   H3632     1.0  0.65290  0.61516  0.01575  1.0000
  H   H3633     1.0  0.87688  0.54257  0.08590  1.0000
  C   C2286     1.0  0.54286  0.58353  0.02659  1.0000
  H   H3634     1.0  0.97790  0.51751  0.14687  1.0000
  H   H3635     1.0  0.54459  0.74049  0.13181  1.0000
  H   H3636     1.0  0.69717  0.49617  0.02013  1.0000
  H   H3637     1.0  0.88621  0.49808  0.22395  1.0000
  H   H3638     1.0  0.58338  0.64518  0.99334  1.0000
  H   H3639     1.0  0.63103  0.60701  0.01440  1.0000
  H   H3640     1.0  0.57754  0.56698  0.03021  1.0000
  C   C2287     1.0  0.95701  0.53768  0.25574  1.0000
  H   H3641     1.0  0.97416  0.53062  0.27451  1.0000
  Fe  Fe467     1.0  0.83529  0.50888  0.13289  1.0000
  H   H3642     1.0  0.67965  0.50706  0.02616  1.0000
  S   S935      1.0  0.53882  0.73418  0.18739  1.0000
  H   H3643     1.0  0.00332  0.66607  0.31680  1.0000
  H   H3644     1.0  0.72576  0.57865  0.00147  1.0000
  N   N224      1.0  0.65343  0.59560  0.01010  1.0000
  H   H3645     1.0  0.94658  0.54165  0.25208  1.0000
  C   C2288     1.0  0.61243  0.69786  0.99379  1.0000
  H   H3646     1.0  0.90225  0.51190  0.10458  1.0000
  H   H3647     1.0  0.51807  0.73591  0.14737  1.0000
  H   H3648     1.0  0.52816  0.69442  0.17505  1.0000
  S   S936      1.0  0.53088  0.65461  0.01385  1.0000
  C   C2289     1.0  0.88080  0.53341  0.09432  1.0000
  H   H3649     1.0  0.65479  0.50662  0.99802  1.0000
  S   S937      1.0  0.99272  0.50243  0.10314  1.0000
  S   S938      1.0  0.95375  0.59919  0.31398  1.0000
  H   H3650     1.0  0.65821  0.61570  0.99699  1.0000
  H   H3651     1.0  0.55903  0.55875  0.05199  1.0000
  H   H3652     1.0  0.68500  0.50860  0.05429  1.0000
  C   C2290     1.0  0.55098  0.56821  0.04763  1.0000
  H   H3653     1.0  0.88727  0.50632  0.07717  1.0000
  C   C2291     1.0  0.89464  0.50910  0.09987  1.0000
  H   H3654     1.0  0.94856  0.54498  0.28093  1.0000
  H   H3655     1.0  0.96063  0.54730  0.25603  1.0000
  H   H3656     1.0  0.60399  0.66197  0.01269  1.0000
  S   S939      1.0  0.62793  0.63700  0.01220  1.0000
  C   C2292     1.0  0.92889  0.53699  0.14871  1.0000
  N   N225      1.0  0.69726  0.51079  0.03247  1.0000
  H   H3657     1.0  0.70714  0.59557  0.03913  1.0000
  H   H3658     1.0  0.94766  0.50801  0.27967  1.0000
  C   C2293     1.0  0.90265  0.52508  0.07752  1.0000
  C   C2294     1.0  0.73100  0.59236  0.01793  1.0000
  N   N226      1.0  0.88996  0.57654  0.16843  1.0000
  C   C2295     1.0  0.87716  0.57930  0.18020  1.0000
  C   C2296     1.0  0.88627  0.58471  0.15459  1.0000
  C   C2297     1.0  0.89415  0.56101  0.16849  1.0000
  C   C2298     1.0  0.90227  0.58111  0.17042  1.0000
  H   H3659     1.0  0.87958  0.57324  0.19080  1.0000
  H   H3660     1.0  0.86769  0.57580  0.17917  1.0000
  H   H3661     1.0  0.87363  0.59091  0.18050  1.0000
  H   H3662     1.0  0.87699  0.58150  0.15282  1.0000
  H   H3663     1.0  0.88314  0.59649  0.15409  1.0000
  H   H3664     1.0  0.89570  0.58274  0.14548  1.0000
  H   H3665     1.0  0.88491  0.55702  0.16767  1.0000
  H   H3666     1.0  0.90590  0.57459  0.18039  1.0000
  H   H3667     1.0  0.89930  0.59260  0.17112  1.0000
  H   H3668     1.0  0.60847  0.73491  0.11108  1.0000
  C   C2299     1.0  0.52708  0.73535  0.16491  1.0000
  H   H3669     1.0  0.54518  0.58665  0.01470  1.0000
  C   C2300     1.0  0.70805  0.60258  0.01077  1.0000
  N   N227      1.0  0.72999  0.58726  0.12563  1.0000
  C   C2301     1.0  0.72053  0.57792  0.12572  1.0000
  C   C2302     1.0  0.73940  0.57970  0.13596  1.0000
  C   C2303     1.0  0.72077  0.60074  0.12965  1.0000
  C   C2304     1.0  0.73921  0.59070  0.11112  1.0000
  H   H3670     1.0  0.71298  0.58345  0.11837  1.0000
  H   H3671     1.0  0.71374  0.57469  0.13657  1.0000
  H   H3672     1.0  0.72707  0.56791  0.12221  1.0000
  H   H3673     1.0  0.73282  0.57705  0.14704  1.0000
  H   H3674     1.0  0.74629  0.56936  0.13332  1.0000
  H   H3675     1.0  0.74691  0.58629  0.13600  1.0000
  H   H3676     1.0  0.72751  0.60808  0.12972  1.0000
  H   H3677     1.0  0.71352  0.59856  0.14045  1.0000
  H   H3678     1.0  0.71361  0.60668  0.12194  1.0000
  H   H3679     1.0  0.74641  0.59782  0.11061  1.0000
  H   H3680     1.0  0.73244  0.59628  0.10303  1.0000
  H   H3681     1.0  0.74634  0.58079  0.10774  1.0000
  N   N228      1.0  0.62685  0.68516  0.13097  1.0000
  C   C2305     1.0  0.61822  0.69586  0.13963  1.0000
  C   C2306     1.0  0.64254  0.68309  0.13041  1.0000
  C   C2307     1.0  0.62432  0.69037  0.11630  1.0000
  C   C2308     1.0  0.62230  0.67131  0.13748  1.0000
  H   H3682     1.0  0.61991  0.69239  0.15076  1.0000
  H   H3683     1.0  0.60632  0.69757  0.14030  1.0000
  H   H3684     1.0  0.62116  0.70655  0.13492  1.0000
  H   H3685     1.0  0.64635  0.69331  0.12538  1.0000
  H   H3686     1.0  0.64489  0.67920  0.14129  1.0000
  H   H3687     1.0  0.64928  0.67499  0.12397  1.0000
  H   H3688     1.0  0.63143  0.68309  0.10921  1.0000
  H   H3689     1.0  0.62666  0.70126  0.11136  1.0000
  H   H3690     1.0  0.61285  0.69094  0.11618  1.0000
  H   H3691     1.0  0.62420  0.66694  0.14851  1.0000
  H   H3692     1.0  0.62846  0.66306  0.13107  1.0000
  H   H3693     1.0  0.61049  0.67251  0.13810  1.0000
  H   H3694     1.0  0.55908  0.74011  0.09336  1.0000
  H   H3695     1.0  0.55115  0.57746  0.05180  1.0000
  H   H3696     1.0  0.51736  0.61537  0.03635  1.0000
  H   H3697     1.0  0.99793  0.51376  0.15846  1.0000
  H   H3698     1.0  0.96511  0.50643  0.18629  1.0000
  C   C2309     1.0  0.94497  0.53534  0.28073  1.0000
  H   H3699     1.0  0.83414  0.49556  0.11030  1.0000
  C   C2310     1.0  0.72898  0.53689  0.03685  1.0000
  H   H3700     1.0  0.55206  0.69924  0.11127  1.0000
  H   H3701     1.0  0.73704  0.59517  0.00663  1.0000
  Fe  Fe468     1.0  0.94113  0.50189  0.10333  1.0000
  C   C2311     1.0  0.88469  0.50818  0.16793  1.0000
  H   H3702     1.0  0.96851  0.51438  0.28462  1.0000
  C   C2312     1.0  0.99517  0.53136  0.12365  1.0000
  C   C2313     1.0  0.53006  0.67704  0.13308  1.0000
  C   C2314     1.0  0.52211  0.72920  0.15658  1.0000
  N   N229      1.0  0.97527  0.52067  0.16797  1.0000
  H   H3703     1.0  0.53692  0.73285  0.12205  1.0000
  H   H3704     1.0  0.94408  0.52834  0.29168  1.0000
  Fe  Fe469     1.0  0.81098  0.49482  0.15261  1.0000
  H   H3705     1.0  0.68150  0.50434  0.99265  1.0000
  C   C2315     1.0  0.97566  0.63118  0.30569  1.0000
  H   H3706     1.0  0.77744  0.50668  0.09972  1.0000
  C   C2316     1.0  0.66312  0.58638  0.00029  1.0000
  C   C2317     1.0  0.73820  0.53616  0.02338  1.0000
  H   H3707     1.0  0.90935  0.51600  0.07240  1.0000
  H   H3708     1.0  0.89752  0.55454  0.17856  1.0000
  H   H3709     1.0  0.98494  0.58852  0.31457  1.0000
  H   H3710     1.0  0.88711  0.53723  0.09969  1.0000
  H   H3711     1.0  0.62182  0.69096  0.01830  1.0000
  C   C2318     1.0  0.52780  0.70585  0.17221  1.0000
  S   S940      1.0  0.96488  0.53390  0.30524  1.0000
  C   C2319     1.0  0.75312  0.49729  0.13066  1.0000
  H   H3712     1.0  0.91188  0.57980  0.16141  1.0000
  C   C2320     1.0  0.56029  0.64901  0.00258  1.0000
  H   H3713     1.0  0.63172  0.49922  0.01734  1.0000
  C   C2321     1.0  0.54062  0.67938  0.10781  1.0000
  H   H3714     1.0  0.52918  0.66581  0.13420  1.0000
  C   C2322     1.0  0.96519  0.51806  0.18211  1.0000
  C   C2323     1.0  0.74919  0.54400  0.01819  1.0000
  H   H3715     1.0  0.98815  0.54077  0.12732  1.0000
  C   C2324     1.0  0.99615  0.59053  0.31138  1.0000
  H   H3716     1.0  0.97901  0.53991  0.17098  1.0000
  C   C2325     1.0  0.65288  0.58763  0.02511  1.0000
  H   H3717     1.0  0.53992  0.56581  0.05218  1.0000
  C   C2326     1.0  0.54629  0.65157  0.00011  1.0000
  H   H3718     1.0  0.98410  0.53931  0.31949  1.0000
  H   H3719     1.0  0.69738  0.60075  0.01064  1.0000
  H   H3720     1.0  0.95671  0.50969  0.26106  1.0000
  H   H3721     1.0  0.51149  0.59436  0.09217  1.0000
  H   H3722     1.0  0.88075  0.51317  0.17742  1.0000
  H   H3723     1.0  0.98272  0.63667  0.29666  1.0000
  C   C2327     1.0  0.71120  0.50254  0.03641  1.0000
  H   H3724     1.0  0.71500  0.57681  0.04019  1.0000
  H   H3725     1.0  0.77343  0.49379  0.99455  1.0000
  H   H3726     1.0  0.70418  0.53070  0.02217  1.0000
  N   N230      1.0  0.62738  0.69659  0.99530  1.0000
  H   H3727     1.0  0.98323  0.53845  0.15272  1.0000
  S   S941      1.0  0.95620  0.51217  0.13001  1.0000
  C   C2328     1.0  0.76667  0.50719  0.10741  1.0000
  H   H3728     1.0  0.54443  0.55514  0.03089  1.0000
  C   C2329     1.0  0.55497  0.55869  0.02677  1.0000
  H   H3729     1.0  0.56366  0.54949  0.03042  1.0000
  C   C2330     1.0  0.51074  0.60755  0.03873  1.0000
  H   H3730     1.0  0.89801  0.49413  0.18939  1.0000
  C   C2331     1.0  0.96075  0.61325  0.31549  1.0000
  N   N231      1.0  0.76764  0.49618  0.12082  1.0000
  H   H3731     1.0  0.69789  0.58443  0.03492  1.0000
  H   H3732     1.0  0.76102  0.51047  0.98940  1.0000
  H   H3733     1.0  0.93382  0.53902  0.27860  1.0000
  C   C2332     1.0  0.97552  0.53614  0.16322  1.0000
  H   H3734     1.0  0.72405  0.56710  0.01889  1.0000
  H   H3735     1.0  0.65925  0.57641  0.00185  1.0000
  H   H3736     1.0  0.87093  0.51351  0.08884  1.0000
  H   H3737     1.0  0.54181  0.59325  0.03061  1.0000
  H   H3738     1.0  0.64872  0.57768  0.02732  1.0000
  H   H3739     1.0  0.96817  0.52191  0.19014  1.0000
  C   C2333     1.0  0.62678  0.69901  0.00944  1.0000
  C   C2334     1.0  0.57260  0.64699  0.99142  1.0000
  H   H3740     1.0  0.78119  0.53007  0.98824  1.0000
  H   H3741     1.0  0.62009  0.70981  0.01088  1.0000
  H   H3742     1.0  0.63785  0.69814  0.01097  1.0000
  C   C2335     1.0  0.97024  0.51630  0.15750  1.0000
  C   C2336     1.0  0.54589  0.73812  0.12120  1.0000
  Fe  Fe470     1.0  0.73299  0.53931  0.99131  1.0000
  C   C2337     1.0  0.63617  0.68205  0.99399  1.0000
  H   H3743     1.0  0.63861  0.60580  0.99612  1.0000
  C   C2338     1.0  0.77815  0.49854  0.12762  1.0000
  H   H3744     1.0  0.79809  0.50729  0.99506  1.0000
  C   C2339     1.0  0.77179  0.50571  0.99236  1.0000
  C   C2340     1.0  0.99923  0.51224  0.11125  1.0000
  H   H3745     1.0  0.00283  0.58358  0.30378  1.0000
  H   H3746     1.0  0.53974  0.74219  0.09560  1.0000
  S   S942      1.0  0.71080  0.55088  0.98752  1.0000
  H   H3747     1.0  0.66381  0.59212  0.98889  1.0000
  H   H3748     1.0  0.70949  0.49364  0.04597  1.0000
  C   C2341     1.0  0.97233  0.63489  0.31903  1.0000
  Fe  Fe471     1.0  0.94478  0.49443  0.13377  1.0000
  H   H3749     1.0  0.91133  0.49338  0.17287  1.0000
  Fe  Fe472     1.0  0.97502  0.68062  0.58471  1.0000
  S   S943      1.0  0.98092  0.70177  0.57334  1.0000
  C   C2342     1.0  0.98765  0.74076  0.57500  1.0000
  Fe  Fe473     1.0  0.96411  0.71034  0.59112  1.0000
  S   S944      1.0  0.95216  0.73293  0.58353  1.0000
  C   C2343     1.0  0.90540  0.73172  0.46989  1.0000
  C   C2344     1.0  0.98787  0.57821  0.62281  1.0000
  C   C2345     1.0  0.97032  0.65629  0.64117  1.0000
  H   H3750     1.0  0.93462  0.68592  0.54599  1.0000
  C   C2346     1.0  0.94290  0.55789  0.36019  1.0000
  C   C2347     1.0  0.94355  0.69070  0.54624  1.0000
  H   H3751     1.0  0.99549  0.69704  0.37546  1.0000
  H   H3752     1.0  0.94240  0.70349  0.43607  1.0000
  H   H3753     1.0  0.98062  0.72916  0.37162  1.0000
  N   N232      1.0  0.93837  0.70069  0.55608  1.0000
  H   H3754     1.0  0.99725  0.59451  0.34375  1.0000
  H   H3755     1.0  0.91932  0.55933  0.35063  1.0000
  C   C2348     1.0  0.96494  0.62844  0.64894  1.0000
  H   H3756     1.0  0.96102  0.63292  0.62775  1.0000
  H   H3757     1.0  0.97835  0.71699  0.36244  1.0000
  C   C2349     1.0  0.93297  0.69275  0.57071  1.0000
  S   S945      1.0  0.97281  0.66668  0.57157  1.0000
  H   H3758     1.0  0.95492  0.55647  0.35853  1.0000
  S   S946      1.0  0.95671  0.68954  0.60141  1.0000
  H   H3759     1.0  0.95254  0.68165  0.54957  1.0000
  S   S947      1.0  0.95514  0.73491  0.40006  1.0000
  Fe  Fe474     1.0  0.96475  0.67158  0.36478  1.0000
  S   S948      1.0  0.96242  0.65012  0.36294  1.0000
  S   S949      1.0  0.94566  0.68908  0.37192  1.0000
  C   C2350     1.0  0.93430  0.73554  0.58155  1.0000
  H   H3760     1.0  0.97800  0.49975  0.33451  1.0000
  C   C2351     1.0  0.93921  0.58316  0.34887  1.0000
  Fe  Fe475     1.0  0.97882  0.65339  0.34205  1.0000
  Fe  Fe476     1.0  0.98209  0.64124  0.37269  1.0000
  S   S950      1.0  0.98635  0.62070  0.38893  1.0000
  S   S951      1.0  0.97960  0.67562  0.34300  1.0000
  S   S952      1.0  0.98289  0.66222  0.37646  1.0000
  S   S953      1.0  0.99352  0.51038  0.39447  1.0000
  H   H3761     1.0  0.94175  0.68380  0.57461  1.0000
  N   N233      1.0  0.93707  0.56907  0.34862  1.0000
  H   H3762     1.0  0.94340  0.55489  0.33404  1.0000
  S   S954      1.0  0.99659  0.54012  0.36970  1.0000
  C   C2352     1.0  0.95409  0.52219  0.34820  1.0000
  H   H3763     1.0  0.96762  0.74069  0.49463  1.0000
  C   C2353     1.0  0.97569  0.53196  0.34204  1.0000
  C   C2354     1.0  0.96487  0.52578  0.35239  1.0000
  Fe  Fe477     1.0  0.98674  0.52119  0.37370  1.0000
  H   H3764     1.0  0.93737  0.71655  0.42077  1.0000
  H   H3765     1.0  0.95009  0.61175  0.33778  1.0000
  H   H3766     1.0  0.92378  0.68797  0.57118  1.0000
  H   H3767     1.0  0.97557  0.60612  0.62216  1.0000
  N   N234      1.0  0.00069  0.71667  0.36145  1.0000
  H   H3768     1.0  0.91514  0.57252  0.36126  1.0000
  H   H3769     1.0  0.99325  0.56918  0.33501  1.0000
  H   H3770     1.0  0.97584  0.58074  0.62391  1.0000
  H   H3771     1.0  0.99736  0.60335  0.41360  1.0000
  C   C2355     1.0  0.00192  0.53678  0.63372  1.0000
  H   H3772     1.0  0.96610  0.65742  0.62078  1.0000
  H   H3773     1.0  0.96040  0.63061  0.34088  1.0000
  C   C2356     1.0  0.95210  0.72213  0.39259  1.0000
  C   C2357     1.0  0.93939  0.72442  0.38771  1.0000
  C   C2358     1.0  0.93753  0.71420  0.38141  1.0000
  C   C2359     1.0  0.94840  0.70170  0.37982  1.0000
  C   C2360     1.0  0.96100  0.69932  0.38492  1.0000
  C   C2361     1.0  0.96276  0.70944  0.39140  1.0000
  H   H3774     1.0  0.99641  0.58533  0.59411  1.0000
  H   H3775     1.0  0.92773  0.71609  0.37752  1.0000
  H   H3776     1.0  0.96930  0.68962  0.38404  1.0000
  H   H3777     1.0  0.97240  0.70743  0.39554  1.0000
  N   N235      1.0  0.99429  0.59063  0.61418  1.0000
  H   H3778     1.0  0.91660  0.57814  0.34222  1.0000
  H   H3779     1.0  0.92667  0.71790  0.43825  1.0000
  H   H3780     1.0  0.94081  0.54725  0.36078  1.0000
  C   C2362     1.0  0.99326  0.64467  0.56117  1.0000
  H   H3781     1.0  0.99257  0.56867  0.61786  1.0000
  H   H3782     1.0  0.98404  0.53479  0.34525  1.0000
  H   H3783     1.0  0.93004  0.71848  0.54017  1.0000
  C   C2363     1.0  0.98530  0.72435  0.36200  1.0000
  H   H3784     1.0  0.97615  0.73444  0.55655  1.0000
  C   C2364     1.0  0.99289  0.59653  0.33404  1.0000
  C   C2365     1.0  0.95729  0.61708  0.32879  1.0000
  H   H3785     1.0  0.95101  0.58323  0.34654  1.0000
  S   S955      1.0  0.00268  0.54200  0.40495  1.0000
  C   C2366     1.0  0.99468  0.53659  0.64802  1.0000
  C   C2367     1.0  0.96685  0.65085  0.63133  1.0000
  H   H3786     1.0  0.99621  0.60374  0.59282  1.0000
  H   H3787     1.0  0.94566  0.51749  0.35622  1.0000
  C   C2368     1.0  0.95058  0.70672  0.55606  1.0000
  C   C2369     1.0  0.96400  0.63698  0.63528  1.0000
  C   C2370     1.0  0.97567  0.53461  0.32749  1.0000
  C   C2371     1.0  0.95430  0.52447  0.33366  1.0000
  H   H3788     1.0  0.98568  0.64902  0.59527  1.0000
  H   H3789     1.0  0.99164  0.60823  0.32901  1.0000
  S   S956      1.0  0.96450  0.52274  0.37058  1.0000
  C   C2372     1.0  0.98654  0.65086  0.57304  1.0000
  H   H3790     1.0  0.00303  0.55610  0.46303  1.0000
  C   C2373     1.0  0.91188  0.72736  0.58607  1.0000
  C   C2374     1.0  0.92599  0.72510  0.58833  1.0000
  H   H3791     1.0  0.94778  0.69629  0.53509  1.0000
  H   H3792     1.0  0.90549  0.71926  0.59122  1.0000
  H   H3793     1.0  0.93038  0.71537  0.59539  1.0000
  S   S957      1.0  0.97362  0.67367  0.63671  1.0000
  H   H3794     1.0  0.99740  0.70970  0.38435  1.0000
  Fe  Fe478     1.0  0.99765  0.66470  0.35468  1.0000
  H   H3795     1.0  0.91688  0.70839  0.55158  1.0000
  H   H3796     1.0  0.94720  0.71401  0.56367  1.0000
  H   H3797     1.0  0.95983  0.69800  0.55929  1.0000
  C   C2375     1.0  0.98841  0.49400  0.33789  1.0000
  H   H3798     1.0  0.98994  0.57495  0.63382  1.0000
  H   H3799     1.0  0.91050  0.68658  0.44414  1.0000
  H   H3800     1.0  0.00222  0.65585  0.64364  1.0000
  C   C2376     1.0  0.98762  0.60303  0.62109  1.0000
  C   C2377     1.0  0.99123  0.64468  0.58589  1.0000
  H   H3801     1.0  0.91461  0.70882  0.50008  1.0000
  H   H3802     1.0  0.99206  0.61266  0.61483  1.0000
  C   C2378     1.0  0.00121  0.62075  0.39544  1.0000
  C   C2379     1.0  0.96313  0.62777  0.33059  1.0000
  H   H3803     1.0  0.99892  0.53103  0.62764  1.0000
  H   H3804     1.0  0.00213  0.72341  0.55679  1.0000
  H   H3805     1.0  0.97955  0.59743  0.59991  1.0000
  C   C2380     1.0  0.91256  0.71876  0.49223  1.0000
  C   C2381     1.0  0.90782  0.71893  0.48015  1.0000
  H   H3806     1.0  0.91062  0.70117  0.45142  1.0000
  H   H3807     1.0  0.92622  0.68646  0.45019  1.0000
  H   H3808     1.0  0.93113  0.73420  0.38848  1.0000
  C   C2382     1.0  0.94480  0.56544  0.33463  1.0000
  H   H3809     1.0  0.99222  0.50183  0.34129  1.0000
  S   S958      1.0  0.99212  0.67412  0.59760  1.0000
  H   H3810     1.0  0.92901  0.69991  0.57845  1.0000
  H   H3811     1.0  0.93781  0.56053  0.37086  1.0000
  S   S959      1.0  0.97996  0.70630  0.60499  1.0000
  H   H3812     1.0  0.92256  0.72044  0.55830  1.0000
  Fe  Fe479     1.0  0.97439  0.68456  0.61361  1.0000
  H   H3813     1.0  0.95479  0.71301  0.54526  1.0000
  H   H3814     1.0  0.93438  0.59194  0.34065  1.0000
  C   C2383     1.0  0.96502  0.53079  0.32331  1.0000
  C   C2384     1.0  0.92646  0.71250  0.55133  1.0000
  S   S960      1.0  0.91997  0.73125  0.50956  1.0000
  N   N236      1.0  0.92375  0.70117  0.43017  1.0000
  C   C2385     1.0  0.91180  0.71046  0.42326  1.0000
  C   C2386     1.0  0.93272  0.69068  0.42141  1.0000
  C   C2387     1.0  0.91751  0.69347  0.44462  1.0000
  C   C2388     1.0  0.93296  0.71014  0.43138  1.0000
  H   H3815     1.0  0.90483  0.71856  0.42956  1.0000
  H   H3816     1.0  0.90461  0.70407  0.42219  1.0000
  H   H3817     1.0  0.91612  0.71643  0.41232  1.0000
  H   H3818     1.0  0.92612  0.68381  0.42011  1.0000
  H   H3819     1.0  0.93759  0.69621  0.41048  1.0000
  H   H3820     1.0  0.94188  0.68347  0.42624  1.0000
  Fe  Fe480     1.0  0.99619  0.69624  0.58790  1.0000
  C   C2389     1.0  0.99145  0.59444  0.59964  1.0000
  H   H3821     1.0  0.98602  0.53079  0.65296  1.0000
  H   H3822     1.0  0.99682  0.74043  0.57971  1.0000
  H   H3823     1.0  0.98415  0.73324  0.35242  1.0000
  H   H3824     1.0  0.95672  0.56482  0.33255  1.0000
  H   H3825     1.0  0.94602  0.52156  0.33044  1.0000
  H   H3826     1.0  0.90629  0.70910  0.47866  1.0000
  S   S961      1.0  0.90034  0.73171  0.45440  1.0000
  S   S962      1.0  0.88950  0.74199  0.57243  1.0000
  C   C2390     1.0  0.91434  0.73149  0.49430  1.0000
  H   H3827     1.0  0.94068  0.57370  0.32566  1.0000
  C   C2391     1.0  0.92132  0.56980  0.35080  1.0000
  H   H3828     1.0  0.98174  0.59427  0.33759  1.0000
  S   S963      1.0  0.99829  0.64292  0.35182  1.0000
  H   H3829     1.0  0.98958  0.60056  0.63207  1.0000
  H   H3830     1.0  0.93402  0.58603  0.35944  1.0000
  C   C2392     1.0  0.00172  0.70523  0.37455  1.0000
  C   C2393     1.0  0.90624  0.73992  0.57683  1.0000
  H   H3831     1.0  0.99984  0.70223  0.34929  1.0000
  H   H3832     1.0  0.98960  0.64928  0.55125  1.0000
  H   H3833     1.0  0.98516  0.72986  0.57869  1.0000
  H   H3834     1.0  0.94939  0.73794  0.50247  1.0000
  S   S964      1.0  0.98014  0.64825  0.32080  1.0000
  N   N237      1.0  0.00252  0.58766  0.32392  1.0000
  H   H3835     1.0  0.00296  0.63930  0.63926  1.0000
  H   H3836     1.0  0.00307  0.50604  0.62059  1.0000
  C   C2394     1.0  0.00302  0.63277  0.58666  1.0000
  Fe  Fe481     1.0  0.71854  0.54409  0.96649  1.0000
  S   S965      1.0  0.73976  0.53042  0.97156  1.0000
  S   S966      1.0  0.70552  0.53622  0.95610  1.0000
  Fe  Fe482     1.0  0.72125  0.56949  0.97565  1.0000
  H   H3837     1.0  0.66847  0.51373  0.95876  1.0000
  S   S967      1.0  0.70932  0.59124  0.98023  1.0000
  Fe  Fe483     1.0  0.74825  0.55047  0.96100  1.0000
  S   S968      1.0  0.77091  0.54837  0.94709  1.0000
  Fe  Fe484     1.0  0.54495  0.73027  0.91163  1.0000
  H   H3838     1.0  0.68850  0.61787  0.98133  1.0000
  S   S969      1.0  0.72759  0.56355  0.95427  1.0000
  C   C2395     1.0  0.62572  0.72189  0.90967  1.0000
  Fe  Fe485     1.0  0.63870  0.63781  0.96132  1.0000
  S   S970      1.0  0.64228  0.65231  0.97301  1.0000
  S   S971      1.0  0.65554  0.62088  0.95105  1.0000
  S   S972      1.0  0.58605  0.64545  0.96364  1.0000
  C   C2396     1.0  0.54437  0.68697  0.95090  1.0000
  H   H3839     1.0  0.53381  0.65346  0.98476  1.0000
  Fe  Fe486     1.0  0.62499  0.66903  0.96311  1.0000
  S   S973      1.0  0.62789  0.69183  0.95510  1.0000
  S   S974      1.0  0.90194  0.50901  0.80965  1.0000
  H   H3840     1.0  0.63677  0.67990  0.98345  1.0000
  S   S975      1.0  0.62321  0.65520  0.94966  1.0000
  H   H3841     1.0  0.68761  0.55317  0.97658  1.0000
  H   H3842     1.0  0.96369  0.50884  0.75765  1.0000
  H   H3843     1.0  0.78971  0.57660  0.87497  1.0000
  H   H3844     1.0  0.66105  0.55863  0.98574  1.0000
  S   S976      1.0  0.56912  0.72492  0.91009  1.0000
  C   C2397     1.0  0.63416  0.70747  0.98390  1.0000
  C   C2398     1.0  0.77679  0.55801  0.89681  1.0000
  C   C2399     1.0  0.92524  0.58875  0.70808  1.0000
  Fe  Fe487     1.0  0.00066  0.58738  0.68128  1.0000
  H   H3845     1.0  0.65125  0.59118  0.95596  1.0000
  H   H3846     1.0  0.62477  0.61689  0.95384  1.0000
  H   H3847     1.0  0.63252  0.57211  0.95457  1.0000
  S   S977      1.0  0.53215  0.71300  0.92061  1.0000
  H   H3848     1.0  0.62761  0.71856  0.98430  1.0000
  H   H3849     1.0  0.64185  0.58018  0.97130  1.0000
  H   H3850     1.0  0.61564  0.58188  0.97490  1.0000
  C   C2400     1.0  0.64070  0.59095  0.96390  1.0000
  H   H3851     1.0  0.92379  0.58712  0.71987  1.0000
  Fe  Fe488     1.0  0.97273  0.59614  0.67065  1.0000
  S   S978      1.0  0.97902  0.60177  0.68802  1.0000
  H   H3852     1.0  0.79810  0.53853  0.87243  1.0000
  H   H3853     1.0  0.94779  0.52297  0.75999  1.0000
  H   H3854     1.0  0.96216  0.54165  0.77855  1.0000
  Fe  Fe489     1.0  0.97257  0.58126  0.70173  1.0000
  S   S979      1.0  0.95825  0.58001  0.72390  1.0000
  H   H3855     1.0  0.91855  0.60232  0.68251  1.0000
  S   S980      1.0  0.96439  0.57697  0.68485  1.0000
  N   N238      1.0  0.66981  0.50011  0.97950  1.0000
  Fe  Fe490     1.0  0.90005  0.50053  0.79178  1.0000
  H   H3856     1.0  0.97378  0.65201  0.66248  1.0000
  H   H3857     1.0  0.77383  0.51184  0.96384  1.0000
  C   C2401     1.0  0.63143  0.58328  0.94793  1.0000
  H   H3858     1.0  0.83626  0.52047  0.83051  1.0000
  Fe  Fe491     1.0  0.98715  0.56453  0.67887  1.0000
  C   C2402     1.0  0.95698  0.51611  0.76490  1.0000
  S   S981      1.0  0.82282  0.51570  0.89028  1.0000
  Fe  Fe492     1.0  0.92482  0.50944  0.79716  1.0000
  H   H3859     1.0  0.57407  0.69116  0.95931  1.0000
  H   H3860     1.0  0.63146  0.73041  0.90888  1.0000
  H   H3861     1.0  0.92749  0.61691  0.67925  1.0000
  H   H3862     1.0  0.55453  0.71084  0.93851  1.0000
  H   H3863     1.0  0.59782  0.73722  0.91315  1.0000
  Fe  Fe493     1.0  0.82646  0.51907  0.86660  1.0000
  S   S982      1.0  0.82581  0.54138  0.85300  1.0000
  H   H3864     1.0  0.63511  0.70573  0.97310  1.0000
  H   H3865     1.0  0.61709  0.70481  0.89842  1.0000
  Fe  Fe494     1.0  0.91595  0.52195  0.76866  1.0000
  S   S983      1.0  0.91919  0.53201  0.78465  1.0000
  S   S984      1.0  0.92570  0.52829  0.74506  1.0000
  N   N239      1.0  0.55219  0.69366  0.95710  1.0000
  C   C2403     1.0  0.57091  0.64716  0.97792  1.0000
  C   C2404     1.0  0.80311  0.55199  0.89010  1.0000
  Fe  Fe495     1.0  0.89602  0.53069  0.79549  1.0000
  S   S985      1.0  0.88022  0.55023  0.80194  1.0000
  H   H3866     1.0  0.97873  0.54021  0.75483  1.0000
  N   N240      1.0  0.84863  0.50451  0.81833  1.0000
  S   S986      1.0  0.89221  0.52227  0.77849  1.0000
  C   C2405     1.0  0.55039  0.70916  0.95030  1.0000
  H   H3867     1.0  0.60169  0.71786  0.89298  1.0000
  C   C2406     1.0  0.92765  0.49538  0.84763  1.0000
  S   S987      1.0  0.57463  0.74164  0.93905  1.0000
  H   H3868     1.0  0.97969  0.52604  0.74635  1.0000
  H   H3869     1.0  0.79886  0.56406  0.86361  1.0000
  H   H3870     1.0  0.61249  0.69614  0.98322  1.0000
  C   C2407     1.0  0.78117  0.52667  0.97852  1.0000
  C   C2408     1.0  0.85540  0.51495  0.80633  1.0000
  H   H3871     1.0  0.55160  0.69705  0.97765  1.0000
  H   H3872     1.0  0.85749  0.52354  0.81014  1.0000
  C   C2409     1.0  0.84145  0.54376  0.83943  1.0000
  C   C2410     1.0  0.85447  0.53325  0.83899  1.0000
  C   C2411     1.0  0.86651  0.53508  0.82751  1.0000
  C   C2412     1.0  0.86560  0.54756  0.81661  1.0000
  C   C2413     1.0  0.85274  0.55824  0.81735  1.0000
  C   C2414     1.0  0.84068  0.55631  0.82867  1.0000
  H   H3873     1.0  0.85533  0.52382  0.84755  1.0000
  H   H3874     1.0  0.87656  0.52698  0.82720  1.0000
  H   H3875     1.0  0.85205  0.56796  0.80902  1.0000
  H   H3876     1.0  0.83071  0.56453  0.82899  1.0000
  H   H3877     1.0  0.84829  0.52032  0.79853  1.0000
  S   S988      1.0  0.63832  0.55052  0.97910  1.0000
  H   H3878     1.0  0.53869  0.71482  0.95213  1.0000
  H   H3879     1.0  0.77652  0.54898  0.90642  1.0000
  H   H3880     1.0  0.69234  0.50119  0.97549  1.0000
  H   H3881     1.0  0.77857  0.54261  0.87804  1.0000
  H   H3882     1.0  0.80401  0.56171  0.89297  1.0000
  Fe  Fe496     1.0  0.56980  0.74225  0.88997  1.0000
  H   H3883     1.0  0.93578  0.58152  0.70434  1.0000
  C   C2415     1.0  0.62501  0.72985  0.88460  1.0000
  H   H3884     1.0  0.80363  0.54303  0.89972  1.0000
  H   H3885     1.0  0.67952  0.51792  0.97677  1.0000
  C   C2416     1.0  0.62697  0.60856  0.94755  1.0000
  C   C2417     1.0  0.94927  0.56560  0.72979  1.0000
  C   C2418     1.0  0.93883  0.56450  0.74272  1.0000
  C   C2419     1.0  0.93141  0.55318  0.74745  1.0000
  C   C2420     1.0  0.93439  0.54292  0.73924  1.0000
  C   C2421     1.0  0.94480  0.54407  0.72629  1.0000
  C   C2422     1.0  0.95230  0.55531  0.72162  1.0000
  H   H3886     1.0  0.93638  0.57247  0.74907  1.0000
  H   H3887     1.0  0.92319  0.55255  0.75731  1.0000
  H   H3888     1.0  0.94720  0.53614  0.71992  1.0000
  H   H3889     1.0  0.96050  0.55588  0.71175  1.0000
  S   S989      1.0  0.99010  0.54321  0.67393  1.0000
  H   H3890     1.0  0.93587  0.60721  0.71535  1.0000
  H   H3891     1.0  0.61785  0.61119  0.94200  1.0000
  H   H3892     1.0  0.86080  0.50554  0.83276  1.0000
  H   H3893     1.0  0.63048  0.73877  0.88313  1.0000
  H   H3894     1.0  0.90905  0.61212  0.71792  1.0000
  H   H3895     1.0  0.96911  0.62746  0.66928  1.0000
  Fe  Fe497     1.0  0.56435  0.74291  0.92115  1.0000
  C   C2423     1.0  0.60898  0.71475  0.90065  1.0000
  H   H3896     1.0  0.66179  0.49761  0.96257  1.0000
  N   N241      1.0  0.78950  0.55446  0.88521  1.0000
  H   H3897     1.0  0.63413  0.71197  0.90793  1.0000
  N   N242      1.0  0.62848  0.59391  0.95679  1.0000
  C   C2424     1.0  0.54462  0.65170  0.98661  1.0000
  H   H3898     1.0  0.97233  0.50904  0.78529  1.0000
  S   S990      1.0  0.74299  0.55846  0.98121  1.0000
  H   H3899     1.0  0.63716  0.60978  0.93925  1.0000
  C   C2425     1.0  0.78929  0.56648  0.87249  1.0000
  H   H3900     1.0  0.98394  0.52160  0.77667  1.0000
  H   H3901     1.0  0.94782  0.60176  0.69973  1.0000
  C   C2426     1.0  0.66558  0.55391  0.97646  1.0000
  H   H3902     1.0  0.91052  0.62465  0.70089  1.0000
  H   H3903     1.0  0.63915  0.59911  0.97022  1.0000
  H   H3904     1.0  0.86605  0.50959  0.80039  1.0000
  S   S991      1.0  0.92343  0.49927  0.78036  1.0000
  H   H3905     1.0  0.93790  0.59885  0.68068  1.0000
  H   H3906     1.0  0.96384  0.54037  0.74763  1.0000
  H   H3907     1.0  0.91746  0.49938  0.85452  1.0000
  H   H3908     1.0  0.82688  0.51748  0.81891  1.0000
  N   N243      1.0  0.61619  0.72648  0.89931  1.0000
  H   H3909     1.0  0.76632  0.56014  0.89346  1.0000
  N   N244      1.0  0.92514  0.60396  0.70075  1.0000
  H   H3910     1.0  0.98449  0.50751  0.76830  1.0000
  C   C2427     1.0  0.61263  0.70508  0.95081  1.0000
  C   C2428     1.0  0.60224  0.70227  0.94531  1.0000
  C   C2429     1.0  0.59063  0.71350  0.94128  1.0000
  C   C2430     1.0  0.58916  0.72732  0.94326  1.0000
  C   C2431     1.0  0.59946  0.72996  0.94892  1.0000
  C   C2432     1.0  0.61128  0.71898  0.95240  1.0000
  H   H3911     1.0  0.60335  0.69156  0.94390  1.0000
  H   H3912     1.0  0.58274  0.71145  0.93682  1.0000
  S   S992      1.0  0.94553  0.50049  0.80514  1.0000
  H   H3913     1.0  0.61934  0.72130  0.95644  1.0000
  H   H3914     1.0  0.81293  0.54913  0.88162  1.0000
  C   C2433     1.0  0.51097  0.70490  0.91379  1.0000
  C   C2434     1.0  0.78887  0.54132  0.88139  1.0000
  H   H3915     1.0  0.77705  0.56766  0.90028  1.0000
  H   H3916     1.0  0.50734  0.74031  0.93478  1.0000
  C   C2435     1.0  0.68676  0.54363  0.96006  1.0000
  C   C2436     1.0  0.68069  0.55076  0.97132  1.0000
  C   C2437     1.0  0.78421  0.50689  0.96755  1.0000
  C   C2438     1.0  0.65649  0.55018  0.97018  1.0000
  C   C2439     1.0  0.66237  0.54431  0.95805  1.0000
  C   C2440     1.0  0.67757  0.54090  0.95305  1.0000
  H   H3917     1.0  0.53424  0.69663  0.97510  1.0000
  H   H3918     1.0  0.65532  0.54147  0.95314  1.0000
  H   H3919     1.0  0.68226  0.53553  0.94422  1.0000
  C   C2441     1.0  0.77485  0.53555  0.93670  1.0000
  C   C2442     1.0  0.76368  0.53059  0.93471  1.0000
  C   C2443     1.0  0.76699  0.52069  0.92597  1.0000
  C   C2444     1.0  0.78145  0.51573  0.91920  1.0000
  C   C2445     1.0  0.79264  0.52040  0.92156  1.0000
  C   C2446     1.0  0.78934  0.53037  0.93020  1.0000
  H   H3920     1.0  0.75243  0.53461  0.93960  1.0000
  H   H3921     1.0  0.75827  0.51709  0.92423  1.0000
  H   H3922     1.0  0.80384  0.51628  0.91684  1.0000
  H   H3923     1.0  0.79805  0.53403  0.93187  1.0000
  C   C2447     1.0  0.69437  0.59925  0.97215  1.0000
  C   C2448     1.0  0.68577  0.61258  0.97463  1.0000
  C   C2449     1.0  0.67379  0.61922  0.96825  1.0000
  C   C2450     1.0  0.67045  0.61265  0.95923  1.0000
  C   C2451     1.0  0.67904  0.59930  0.95676  1.0000
  C   C2452     1.0  0.69089  0.59253  0.96335  1.0000
  S   S993      1.0  0.60647  0.66346  0.98128  1.0000
  H   H3924     1.0  0.66740  0.62960  0.97001  1.0000
  H   H3925     1.0  0.67664  0.59420  0.94969  1.0000
  H   H3926     1.0  0.69744  0.58221  0.96142  1.0000
  H   H3927     1.0  0.62249  0.58522  0.94231  1.0000
  H   H3928     1.0  0.55565  0.64919  0.96518  1.0000
  H   H3929     1.0  0.78947  0.53193  0.89058  1.0000
  C   C2453     1.0  0.83465  0.51207  0.82606  1.0000
  H   H3930     1.0  0.53257  0.69226  0.95229  1.0000
  H   H3931     1.0  0.77927  0.56855  0.86838  1.0000
  H   H3932     1.0  0.60535  0.59503  0.96280  1.0000
  H   H3933     1.0  0.93733  0.61987  0.69831  1.0000
  S   S994      1.0  0.78517  0.50423  0.90739  1.0000
  Fe  Fe498     1.0  0.60592  0.64826  0.96852  1.0000
  C   C2454     1.0  0.55694  0.64928  0.97557  1.0000
  C   C2455     1.0  0.54615  0.69186  0.97269  1.0000
  C   C2456     1.0  0.51684  0.71643  0.91324  1.0000
  Fe  Fe499     1.0  0.80681  0.50284  0.89158  1.0000
  C   C2457     1.0  0.51037  0.73044  0.90699  1.0000
  C   C2458     1.0  0.65539  0.50762  0.98650  1.0000
  S   S995      1.0  0.80882  0.50818  0.86781  1.0000
  H   H3934     1.0  0.51598  0.69406  0.91854  1.0000
  H   H3935     1.0  0.82927  0.50448  0.83519  1.0000
  H   H3936     1.0  0.77043  0.53199  0.97569  1.0000
  C   C2459     1.0  0.61484  0.59284  0.96777  1.0000
  C   C2460     1.0  0.97714  0.51535  0.77470  1.0000
  H   H3937     1.0  0.54885  0.68790  0.93918  1.0000
  N   N245      1.0  0.96562  0.52490  0.76735  1.0000
  S   S996      1.0  0.99500  0.56734  0.69673  1.0000
  H   H3938     1.0  0.91643  0.58492  0.70619  1.0000
  H   H3939     1.0  0.94722  0.54236  0.77110  1.0000
  H   H3940     1.0  0.51496  0.73937  0.90640  1.0000
  C   C2461     1.0  0.97232  0.53323  0.75345  1.0000
  C   C2462     1.0  0.91098  0.61309  0.70617  1.0000
  C   C2463     1.0  0.92731  0.60558  0.68514  1.0000
  H   H3941     1.0  0.63357  0.72033  0.88193  1.0000
  H   H3942     1.0  0.54522  0.67534  0.95597  1.0000
  H   H3943     1.0  0.90175  0.60997  0.70421  1.0000
  C   C2464     1.0  0.95599  0.53492  0.77637  1.0000
  H   H3944     1.0  0.95062  0.52898  0.78690  1.0000
  C   C2465     1.0  0.67032  0.50213  0.96414  1.0000
  C   C2466     1.0  0.93702  0.60845  0.70366  1.0000
  H   H3945     1.0  0.64178  0.58367  0.93969  1.0000
  H   H3946     1.0  0.59839  0.74063  0.95045  1.0000
  H   H3947     1.0  0.56956  0.67489  0.95926  1.0000
  N   N246      1.0  0.78374  0.51085  0.98093  1.0000
  C   C2467     1.0  0.56786  0.68664  0.95450  1.0000
  H   H3948     1.0  0.95215  0.50931  0.77508  1.0000
  H   H3949     1.0  0.57285  0.68789  0.94285  1.0000
  H   H3950     1.0  0.80714  0.50729  0.97665  1.0000
  C   C2468     1.0  0.60501  0.73944  0.90233  1.0000
  S   S997      1.0  0.62116  0.62966  0.97904  1.0000
  H   H3951     1.0  0.92111  0.50811  0.82816  1.0000
  C   C2469     1.0  0.85855  0.49754  0.82826  1.0000
  H   H3952     1.0  0.79316  0.51057  0.95872  1.0000
  H   H3953     1.0  0.54770  0.68028  0.97820  1.0000
  H   H3954     1.0  0.61932  0.71950  0.92086  1.0000
  H   H3955     1.0  0.00165  0.62625  0.66437  1.0000
  C   C2470     1.0  0.99872  0.54383  0.65598  1.0000
  H   H3956     1.0  0.61231  0.60076  0.97461  1.0000
  S   S998      1.0  0.99477  0.58323  0.66292  1.0000
  H   H3957     1.0  0.65308  0.51932  0.98150  1.0000
  S   S999      1.0  0.84457  0.49953  0.86500  1.0000
  H   H3958     1.0  0.55638  0.71459  0.95444  1.0000
  H   H3959     1.0  0.61808  0.73328  0.87655  1.0000
  H   H3960     1.0  0.60219  0.71196  0.91159  1.0000
  C   C2471     1.0  0.92968  0.50026  0.83272  1.0000
  C   C2472     1.0  0.68132  0.50611  0.98117  1.0000
  C   C2473     1.0  0.96868  0.63381  0.65865  1.0000
  H   H3961     1.0  0.00032  0.64280  0.66920  1.0000
  H   H3962     1.0  0.64642  0.50312  0.98586  1.0000
  H   H3963     1.0  0.64536  0.70699  0.98485  1.0000
  H   H3964     1.0  0.83851  0.49826  0.80516  1.0000
  S   S1000     1.0  0.58885  0.73967  0.87143  1.0000
  C   C2474     1.0  0.97125  0.64775  0.65482  1.0000
  H   H3965     1.0  0.78963  0.53104  0.96954  1.0000
  Fe  Fe500     1.0  0.83910  0.49493  0.88894  1.0000
  H   H3966     1.0  0.89678  0.49465  0.90870  1.0000
  C   C2475     1.0  0.79780  0.50416  0.98529  1.0000
  H   H3967     1.0  0.68110  0.49673  0.95846  1.0000
  H   H3968     1.0  0.78623  0.49500  0.96895  1.0000
  C   C2476     1.0  0.94288  0.49515  0.82381  1.0000
  H   H3969     1.0  0.82409  0.49493  0.91495  1.0000
  C   C2477     1.0  0.84595  0.49342  0.81270  1.0000
  S   S1001     1.0  0.96116  0.61118  0.65385  1.0000
  S   S1002     1.0  0.53171  0.78700  0.13351  1.0000
  Fe  Fe501     1.0  0.59276  0.82617  0.22479  1.0000
  S   S1003     1.0  0.57673  0.82883  0.24549  1.0000
  S   S1004     1.0  0.60056  0.80492  0.21782  1.0000
  Fe  Fe502     1.0  0.59428  0.85772  0.21638  1.0000
  S   S1005     1.0  0.57788  0.86297  0.23594  1.0000
  S   S1006     1.0  0.60600  0.87464  0.20189  1.0000
  Fe  Fe503     1.0  0.59058  0.84272  0.24751  1.0000
  S   S1007     1.0  0.59552  0.84245  0.26862  1.0000
  Fe  Fe504     1.0  0.56584  0.84879  0.23191  1.0000
  S   S1008     1.0  0.54190  0.85489  0.23195  1.0000
  S   S1009     1.0  0.60769  0.83811  0.22807  1.0000
  S   S1010     1.0  0.58117  0.84546  0.21113  1.0000
  H   H3970     1.0  0.54409  0.74624  0.21118  1.0000
  Fe  Fe505     1.0  0.56161  0.90968  0.14464  1.0000
  S   S1011     1.0  0.54050  0.92032  0.15713  1.0000
  S   S1012     1.0  0.58285  0.91206  0.14698  1.0000
  Fe  Fe506     1.0  0.54671  0.89987  0.12716  1.0000
  C   C2478     1.0  0.59898  0.80385  0.27321  1.0000
  S   S1013     1.0  0.55189  0.88794  0.10961  1.0000
  Fe  Fe507     1.0  0.53423  0.92856  0.13585  1.0000
  H   H3971     1.0  0.59198  0.79592  0.27590  1.0000
  H   H3972     1.0  0.59839  0.90232  0.21453  1.0000
  S   S1014     1.0  0.55591  0.91925  0.12327  1.0000
  S   S1015     1.0  0.55478  0.88920  0.14730  1.0000
  H   H3973     1.0  0.60027  0.80539  0.28338  1.0000
  C   C2479     1.0  0.53753  0.88614  0.10339  1.0000
  C   C2480     1.0  0.53128  0.82599  0.13348  1.0000
  C   C2481     1.0  0.55390  0.96075  0.15545  1.0000
  C   C2482     1.0  0.57687  0.95009  0.14158  1.0000
  C   C2483     1.0  0.62101  0.78529  0.27117  1.0000
  Fe  Fe508     1.0  0.53234  0.83723  0.06837  1.0000
  S   S1016     1.0  0.55378  0.82453  0.07367  1.0000
  H   H3974     1.0  0.54149  0.84931  0.10223  1.0000
  C   C2484     1.0  0.66335  0.94072  0.30528  1.0000
  H   H3975     1.0  0.51391  0.80386  0.07591  1.0000
  S   S1017     1.0  0.65069  0.89658  0.29833  1.0000
  H   H3976     1.0  0.55348  0.97139  0.14789  1.0000
  H   H3977     1.0  0.58805  0.95680  0.16000  1.0000
  S   S1018     1.0  0.61559  0.89769  0.30437  1.0000
  H   H3978     1.0  0.57088  0.96505  0.17006  1.0000
  Fe  Fe509     1.0  0.63653  0.88286  0.29658  1.0000
  S   S1019     1.0  0.64072  0.87373  0.27684  1.0000
  Fe  Fe510     1.0  0.62972  0.91002  0.30817  1.0000
  S   S1020     1.0  0.62453  0.93415  0.30457  1.0000
  H   H3979     1.0  0.62291  0.78612  0.28137  1.0000
  C   C2485     1.0  0.61000  0.90463  0.23513  1.0000
  H   H3980     1.0  0.51948  0.85849  0.19215  1.0000
  H   H3981     1.0  0.62370  0.81193  0.27046  1.0000
  C   C2486     1.0  0.67505  0.86131  0.29638  1.0000
  N   N247      1.0  0.61325  0.79922  0.26382  1.0000
  H   H3982     1.0  0.58820  0.88932  0.22552  1.0000
  C   C2487     1.0  0.62205  0.81015  0.26054  1.0000
  H   H3983     1.0  0.61575  0.90921  0.22416  1.0000
  H   H3984     1.0  0.51172  0.84214  0.11780  1.0000
  H   H3985     1.0  0.65602  0.92492  0.29955  1.0000
  C   C2488     1.0  0.51510  0.88295  0.09282  1.0000
  C   C2489     1.0  0.63790  0.94059  0.30807  1.0000
  C   C2490     1.0  0.59631  0.88685  0.24991  1.0000
  C   C2491     1.0  0.51192  0.78178  0.08227  1.0000
  H   H3986     1.0  0.52447  0.82681  0.14436  1.0000
  H   H3987     1.0  0.62231  0.95760  0.31717  1.0000
  C   C2492     1.0  0.59310  0.89807  0.22581  1.0000
  C   C2493     1.0  0.65272  0.93435  0.30407  1.0000
  Fe  Fe511     1.0  0.57699  0.75712  0.15088  1.0000
  H   H3988     1.0  0.59197  0.87741  0.25045  1.0000
  N   N248      1.0  0.52713  0.76425  0.21656  1.0000
  H   H3989     1.0  0.64928  0.97883  0.28814  1.0000
  H   H3990     1.0  0.54982  0.94382  0.07692  1.0000
  H   H3991     1.0  0.58059  0.93314  0.16687  1.0000
  C   C2494     1.0  0.63868  0.98546  0.28564  1.0000
  S   S1021     1.0  0.56922  0.78130  0.14672  1.0000
  H   H3992     1.0  0.60138  0.91350  0.23916  1.0000
  H   H3993     1.0  0.62418  0.87748  0.23592  1.0000
  N   N249      1.0  0.56915  0.95312  0.15580  1.0000
  H   H3994     1.0  0.54816  0.95457  0.15190  1.0000
  H   H3995     1.0  0.57114  0.94390  0.13804  1.0000
  H   H3996     1.0  0.52019  0.79728  0.10840  1.0000
  Fe  Fe512     1.0  0.56208  0.77798  0.17076  1.0000
  H   H3997     1.0  0.60421  0.78960  0.25233  1.0000
  H   H3998     1.0  0.52973  0.78554  0.20474  1.0000
  H   H3999     1.0  0.60523  0.80792  0.24450  1.0000
  H   H4000     1.0  0.63288  0.96418  0.26726  1.0000
  H   H4001     1.0  0.58698  0.89504  0.25421  1.0000
  H   H4002     1.0  0.58402  0.90677  0.22952  1.0000
  N   N250      1.0  0.54570  0.75134  0.10973  1.0000
  C   C2495     1.0  0.52968  0.87770  0.08673  1.0000
  H   H4003     1.0  0.70974  0.85775  0.29931  1.0000
  S   S1022     1.0  0.50915  0.75375  0.09035  1.0000
  C   C2496     1.0  0.53010  0.97648  0.12852  1.0000
  C   C2497     1.0  0.53500  0.96326  0.12435  1.0000
  C   C2498     1.0  0.54949  0.95934  0.11714  1.0000
  C   C2499     1.0  0.55911  0.96843  0.11434  1.0000
  S   S1023     1.0  0.63790  0.86853  0.31822  1.0000
  H   H4004     1.0  0.52323  0.77052  0.23651  1.0000
  H   H4005     1.0  0.55331  0.94934  0.11360  1.0000
  H   H4006     1.0  0.57034  0.96526  0.10887  1.0000
  C   C2500     1.0  0.60804  0.85145  0.27050  1.0000
  C   C2501     1.0  0.60559  0.85614  0.28320  1.0000
  C   C2502     1.0  0.61541  0.86306  0.28523  1.0000
  C   C2503     1.0  0.62800  0.86513  0.27468  1.0000
  C   C2504     1.0  0.63057  0.86024  0.26205  1.0000
  C   C2505     1.0  0.62061  0.85353  0.25992  1.0000
  H   H4007     1.0  0.59600  0.85446  0.29154  1.0000
  H   H4008     1.0  0.61329  0.86667  0.29505  1.0000
  H   H4009     1.0  0.64035  0.86162  0.25390  1.0000
  H   H4010     1.0  0.62279  0.84974  0.25020  1.0000
  C   C2506     1.0  0.59899  0.88484  0.18689  1.0000
  C   C2507     1.0  0.60709  0.89414  0.17661  1.0000
  C   C2508     1.0  0.60199  0.90241  0.16442  1.0000
  C   C2509     1.0  0.58871  0.90150  0.16247  1.0000
  C   C2510     1.0  0.58037  0.89243  0.17287  1.0000
  C   C2511     1.0  0.58555  0.88402  0.18510  1.0000
  H   H4011     1.0  0.61746  0.89479  0.17795  1.0000
  H   H4012     1.0  0.60844  0.90941  0.15640  1.0000
  H   H4013     1.0  0.56996  0.89194  0.17148  1.0000
  H   H4014     1.0  0.57914  0.87702  0.19316  1.0000
  C   C2512     1.0  0.53590  0.84105  0.22904  1.0000
  C   C2513     1.0  0.54221  0.82664  0.23401  1.0000
  C   C2514     1.0  0.53668  0.81566  0.23251  1.0000
  C   C2515     1.0  0.52494  0.81901  0.22586  1.0000
  C   C2516     1.0  0.51887  0.83344  0.22057  1.0000
  C   C2517     1.0  0.52425  0.84444  0.22227  1.0000
  H   H4015     1.0  0.55115  0.82391  0.23931  1.0000
  H   H4016     1.0  0.52021  0.89598  0.11877  1.0000
  H   H4017     1.0  0.54228  0.77666  0.21607  1.0000
  H   H4018     1.0  0.51940  0.85559  0.21830  1.0000
  C   C2518     1.0  0.58916  0.80136  0.20876  1.0000
  C   C2519     1.0  0.57466  0.80894  0.20977  1.0000
  C   C2520     1.0  0.56575  0.80623  0.20239  1.0000
  H   H4019     1.0  0.57028  0.81684  0.21633  1.0000
  H   H4020     1.0  0.55452  0.81209  0.20335  1.0000
  C   C2521     1.0  0.53938  0.79507  0.11608  1.0000
  C   C2522     1.0  0.55338  0.79782  0.11249  1.0000
  C   C2523     1.0  0.55845  0.80601  0.09891  1.0000
  C   C2524     1.0  0.54945  0.81142  0.08905  1.0000
  C   C2525     1.0  0.53592  0.80780  0.09238  1.0000
  C   C2526     1.0  0.53086  0.79968  0.10586  1.0000
  H   H4021     1.0  0.56007  0.79419  0.12030  1.0000
  H   H4022     1.0  0.56897  0.80880  0.09634  1.0000
  H   H4023     1.0  0.52913  0.81171  0.08466  1.0000
  H   H4024     1.0  0.64493  0.95963  0.27930  1.0000
  N   N251      1.0  0.53165  0.84035  0.12394  1.0000
  N   N252      1.0  0.53220  0.93293  0.08755  1.0000
  C   C2527     1.0  0.54084  0.83871  0.10970  1.0000
  H   H4025     1.0  0.67542  0.84978  0.29724  1.0000
  H   H4026     1.0  0.53639  0.83269  0.10466  1.0000
  H   H4027     1.0  0.62081  0.88500  0.21827  1.0000
  H   H4028     1.0  0.54340  0.75038  0.22784  1.0000
  H   H4029     1.0  0.54799  0.75731  0.08690  1.0000
  C   C2528     1.0  0.63478  0.96707  0.27648  1.0000
  H   H4030     1.0  0.54241  0.81976  0.13474  1.0000
  H   H4031     1.0  0.53306  0.91777  0.10746  1.0000
  H   H4032     1.0  0.55776  0.76814  0.10067  1.0000
  H   H4033     1.0  0.53109  0.85005  0.14088  1.0000
  H   H4034     1.0  0.61656  0.82075  0.25487  1.0000
  N   N253      1.0  0.56148  0.84726  0.17609  1.0000
  C   C2529     1.0  0.55218  0.84508  0.19069  1.0000
  C   C2530     1.0  0.55218  0.85233  0.16551  1.0000
  C   C2531     1.0  0.57161  0.83352  0.17377  1.0000
  C   C2532     1.0  0.56990  0.85815  0.17433  1.0000
  H   H4035     1.0  0.55881  0.84065  0.19898  1.0000
  H   H4036     1.0  0.54518  0.83739  0.19223  1.0000
  H   H4037     1.0  0.54484  0.85537  0.19302  1.0000
  H   H4038     1.0  0.55882  0.85385  0.15435  1.0000
  H   H4039     1.0  0.54532  0.84459  0.16679  1.0000
  H   H4040     1.0  0.54471  0.86286  0.16675  1.0000
  H   H4041     1.0  0.57893  0.83480  0.16294  1.0000
  H   H4042     1.0  0.56557  0.82514  0.17481  1.0000
  H   H4043     1.0  0.57867  0.82922  0.18172  1.0000
  H   H4044     1.0  0.57663  0.86051  0.16327  1.0000
  H   H4045     1.0  0.57745  0.85448  0.18177  1.0000
  H   H4046     1.0  0.56255  0.86848  0.17653  1.0000
  C   C2533     1.0  0.68868  0.87985  0.29058  1.0000
  H   H4047     1.0  0.56376  0.94129  0.17752  1.0000
  N   N254      1.0  0.63586  0.98229  0.27316  1.0000
  Fe  Fe513     1.0  0.53296  0.90061  0.15801  1.0000
  C   C2534     1.0  0.53777  0.84867  0.13011  1.0000
  H   H4048     1.0  0.60391  0.88319  0.25733  1.0000
  H   H4049     1.0  0.57771  0.96021  0.13331  1.0000
  H   H4050     1.0  0.51003  0.83433  0.27552  1.0000
  H   H4051     1.0  0.51822  0.85197  0.99665  1.0000
  N   N255      1.0  0.60372  0.89269  0.23514  1.0000
  S   S1024     1.0  0.51786  0.80493  0.22483  1.0000
  H   H4052     1.0  0.71362  0.96459  0.31325  1.0000
  H   H4053     1.0  0.52315  0.77767  0.07741  1.0000
  H   H4054     1.0  0.50593  0.87254  0.25591  1.0000
  H   H4055     1.0  0.61804  0.90093  0.24212  1.0000
  C   C2535     1.0  0.57128  0.79618  0.19364  1.0000
  H   H4056     1.0  0.55215  0.87546  0.08703  1.0000
  N   N256      1.0  0.68981  0.86440  0.29177  1.0000
  C   C2536     1.0  0.69852  0.85571  0.30243  1.0000
  H   H4057     1.0  0.61130  0.87172  0.23020  1.0000
  C   C2537     1.0  0.64797  0.98483  0.26066  1.0000
  C   C2538     1.0  0.69694  0.86073  0.27770  1.0000
  H   H4058     1.0  0.69949  0.84399  0.30374  1.0000
  H   H4059     1.0  0.69962  0.88256  0.28722  1.0000
  C   C2539     1.0  0.51173  0.88976  0.10426  1.0000
  H   H4060     1.0  0.63182  0.78147  0.26437  1.0000
  H   H4061     1.0  0.69342  0.85833  0.31315  1.0000
  H   H4062     1.0  0.51409  0.81029  0.03529  1.0000
  H   H4063     1.0  0.61965  0.98980  0.26040  1.0000
  H   H4064     1.0  0.51260  0.83957  0.18537  1.0000
  H   H4065     1.0  0.52891  0.91652  0.07920  1.0000
  H   H4066     1.0  0.70807  0.86302  0.27380  1.0000
  C   C2540     1.0  0.51202  0.84420  0.26727  1.0000
  H   H4067     1.0  0.50991  0.83618  0.21538  1.0000
  S   S1025     1.0  0.52011  0.82988  0.05685  1.0000
  C   C2541     1.0  0.54087  0.87943  0.09190  1.0000
  S   S1026     1.0  0.57168  0.75407  0.17492  1.0000
  Fe  Fe514     1.0  0.51392  0.85331  0.04665  1.0000
  H   H4068     1.0  0.62999  0.98321  0.29539  1.0000
  H   H4069     1.0  0.67480  0.93609  0.30178  1.0000
  H   H4070     1.0  0.54295  0.92575  0.06796  1.0000
  C   C2542     1.0  0.50670  0.79663  0.08143  1.0000
  H   H4071     1.0  0.51575  0.92246  0.10259  1.0000
  H   H4072     1.0  0.51145  0.77390  0.20335  1.0000
  C   C2543     1.0  0.64439  0.95898  0.31539  1.0000
  H   H4073     1.0  0.50548  0.81127  0.12722  1.0000
  H   H4074     1.0  0.52879  0.76399  0.12305  1.0000
  C   C2544     1.0  0.65922  0.95318  0.31076  1.0000
  S   S1027     1.0  0.51356  0.84058  0.08697  1.0000
  S   S1028     1.0  0.52311  0.95153  0.12851  1.0000
  H   H4075     1.0  0.52064  0.84073  0.25815  1.0000
  S   S1029     1.0  0.67274  0.96182  0.31070  1.0000
  H   H4076     1.0  0.55523  0.76202  0.11963  1.0000
  C   C2545     1.0  0.57655  0.96226  0.15953  1.0000
  H   H4077     1.0  0.51110  0.75565  0.21249  1.0000
  C   C2546     1.0  0.59459  0.79090  0.20042  1.0000
  H   H4078     1.0  0.66803  0.86782  0.28873  1.0000
  H   H4079     1.0  0.56351  0.93247  0.16415  1.0000
  C   C2547     1.0  0.55725  0.75839  0.10952  1.0000
  C   C2548     1.0  0.51715  0.76884  0.22942  1.0000
  H   H4080     1.0  0.63296  0.80700  0.25357  1.0000
  H   H4081     1.0  0.57677  0.97261  0.15142  1.0000
  H   H4082     1.0  0.62146  0.79414  0.24294  1.0000
  H   H4083     1.0  0.54755  0.96276  0.16611  1.0000
  C   C2549     1.0  0.54442  0.93878  0.08786  1.0000
  Fe  Fe515     1.0  0.54768  0.77682  0.14769  1.0000
  H   H4084     1.0  0.58815  0.94358  0.14165  1.0000
  C   C2550     1.0  0.58571  0.78837  0.19280  1.0000
  C   C2551     1.0  0.53659  0.75001  0.22076  1.0000
  H   H4085     1.0  0.60578  0.78495  0.19961  1.0000
  H   H4086     1.0  0.51657  0.85892  0.11531  1.0000
  H   H4087     1.0  0.53810  0.85961  0.12323  1.0000
  C   C2552     1.0  0.56925  0.93943  0.16661  1.0000
  H   H4088     1.0  0.59011  0.78061  0.18607  1.0000
  C   C2553     1.0  0.61554  0.88123  0.22968  1.0000
  H   H4089     1.0  0.52548  0.75957  0.19738  1.0000
  H   H4090     1.0  0.55291  0.93017  0.09260  1.0000
  S   S1030     1.0  0.55993  0.79480  0.18322  1.0000
  Fe  Fe516     1.0  0.54994  0.75187  0.17341  1.0000
  C   C2554     1.0  0.61097  0.79761  0.25037  1.0000
  C   C2555     1.0  0.50482  0.81056  0.03074  1.0000
  C   C2556     1.0  0.52293  0.89114  0.10968  1.0000
  C   C2557     1.0  0.51668  0.84806  0.12246  1.0000
  H   H4091     1.0  0.64624  0.98248  0.25105  1.0000
  H   H4092     1.0  0.52244  0.75654  0.11208  1.0000
  S   S1031     1.0  0.55594  0.75321  0.14993  1.0000
  H   H4093     1.0  0.69802  0.84912  0.27823  1.0000
  S   S1032     1.0  0.53980  0.77531  0.17117  1.0000
  H   H4094     1.0  0.53238  0.87239  0.07794  1.0000
  H   H4095     1.0  0.53095  0.77153  0.10415  1.0000
  S   S1033     1.0  0.52435  0.90998  0.13804  1.0000
  H   H4096     1.0  0.69050  0.86703  0.26948  1.0000
  H   H4097     1.0  0.59285  0.81434  0.26799  1.0000
  S   S1034     1.0  0.52806  0.86028  0.05658  1.0000
  S   S1035     1.0  0.50513  0.80465  0.19110  1.0000
  H   H4098     1.0  0.62562  0.96478  0.28575  1.0000
  H   H4099     1.0  0.54912  0.84323  0.13122  1.0000
  H   H4100     1.0  0.61464  0.77681  0.27379  1.0000
  H   H4101     1.0  0.55219  0.83275  0.11034  1.0000
  H   H4102     1.0  0.54151  0.80452  0.23654  1.0000
  C   C2558     1.0  0.50760  0.85079  0.00332  1.0000
  H   H4103     1.0  0.54462  0.77130  0.19972  1.0000
  H   H4104     1.0  0.52665  0.81948  0.12919  1.0000
  H   H4105     1.0  0.68328  0.88300  0.30102  1.0000
  C   C2559     1.0  0.53779  0.92150  0.07927  1.0000
  C   C2560     1.0  0.53632  0.77485  0.20896  1.0000
  C   C2561     1.0  0.62204  0.99178  0.26987  1.0000
  C   C2562     1.0  0.63376  0.95284  0.31386  1.0000
  H   H4106     1.0  0.50942  0.84956  0.13297  1.0000
  C   C2563     1.0  0.51842  0.76329  0.20706  1.0000
  H   H4107     1.0  0.51887  0.97961  0.13403  1.0000
  H   H4108     1.0  0.52114  0.93496  0.10905  1.0000
  S   S1036     1.0  0.52124  0.88744  0.17777  1.0000
  C   C2564     1.0  0.51564  0.86092  0.18241  1.0000
  H   H4109     1.0  0.65861  0.97799  0.26281  1.0000
  S   S1037     1.0  0.51547  0.85994  0.02286  1.0000
  C   C2565     1.0  0.51525  0.87454  0.17332  1.0000
  C   C2566     1.0  0.52520  0.92678  0.10232  1.0000
  C   C2567     1.0  0.53985  0.98543  0.12607  1.0000
  C   C2568     1.0  0.55444  0.98128  0.11916  1.0000
  H   H4110     1.0  0.54061  0.94711  0.09444  1.0000
  S   S1038     1.0  0.56738  0.99110  0.11773  1.0000
  H   H4111     1.0  0.68216  0.88675  0.28263  1.0000
  H   H4112     1.0  0.51655  0.85054  0.27188  1.0000
  H   H4113     1.0  0.54616  0.91264  0.08395  1.0000
  C   C2569     1.0  0.53134  0.76129  0.11239  1.0000
  H   H4114     1.0  0.56821  0.75097  0.10822  1.0000
  H   H4115     1.0  0.66948  0.86374  0.30707  1.0000
  C   C2570     1.0  0.51146  0.85030  0.17872  1.0000
  H   H4116     1.0  0.50982  0.88810  0.15370  1.0000
  H   H4117     1.0  0.50996  0.86284  0.24214  1.0000
  C   C2571     1.0  0.51042  0.87756  0.16064  1.0000
  H   H4118     1.0  0.50945  0.77924  0.22644  1.0000
  H   H4119     1.0  0.61263  0.99011  0.27904  1.0000
  H   H4120     1.0  0.52663  0.74679  0.16216  1.0000
  S   S1039     1.0  0.59678  0.74557  0.13705  1.0000
  H   H4121     1.0  0.51201  0.94050  0.08050  1.0000
  H   H4122     1.0  0.51046  0.76083  0.23574  1.0000
  C   C2572     1.0  0.52137  0.94459  0.08088  1.0000
  H   H4123     1.0  0.52628  0.94956  0.06972  1.0000
  H   H4124     1.0  0.50890  0.80339  0.02299  1.0000
  C   C2573     1.0  0.50561  0.86711  0.15726  1.0000
  Fe  Fe517     1.0  0.50814  0.86304  0.07431  1.0000
  C   C2574     1.0  0.50595  0.85352  0.16643  1.0000
  C   C2575     1.0  0.54828  0.74755  0.09578  1.0000
  H   H4125     1.0  0.51690  0.95328  0.08702  1.0000
  H   H4126     1.0  0.50656  0.79039  0.05459  1.0000
  H   H4127     1.0  0.64105  0.96835  0.31991  1.0000
  H   H4128     1.0  0.98506  0.76768  0.55863  1.0000
  Fe  Fe518     1.0  0.89976  0.91159  0.46623  1.0000
  S   S1040     1.0  0.89109  0.90223  0.48933  1.0000
  S   S1041     1.0  0.90851  0.93182  0.45962  1.0000
  Fe  Fe519     1.0  0.89576  0.88684  0.45624  1.0000
  S   S1042     1.0  0.88683  0.87567  0.47852  1.0000
  S   S1043     1.0  0.89736  0.87648  0.43832  1.0000
  Fe  Fe520     1.0  0.87418  0.89768  0.48109  1.0000
  S   S1044     1.0  0.85041  0.90101  0.49124  1.0000
  Fe  Fe521     1.0  0.90471  0.88130  0.48430  1.0000
  S   S1045     1.0  0.91726  0.86487  0.49968  1.0000
  S   S1046     1.0  0.88170  0.90862  0.45831  1.0000
  S   S1047     1.0  0.91478  0.89083  0.46172  1.0000
  Fe  Fe522     1.0  0.98917  0.81599  0.47457  1.0000
  C   C2576     1.0  0.56806  0.93677  0.33716  1.0000
  S   S1048     1.0  0.98025  0.83947  0.46641  1.0000
  Fe  Fe523     1.0  0.98928  0.78931  0.49848  1.0000
  H   H4129     1.0  0.82118  0.77636  0.56816  1.0000
  S   S1049     1.0  0.97912  0.77843  0.52067  1.0000
  C   C2577     1.0  0.85698  0.79122  0.47949  1.0000
  H   H4130     1.0  0.92360  0.89480  0.49008  1.0000
  H   H4131     1.0  0.53925  0.94362  0.64336  1.0000
  C   C2578     1.0  0.96042  0.76956  0.48841  1.0000
  S   S1050     1.0  0.91306  0.75505  0.53558  1.0000
  S   S1051     1.0  0.97610  0.79896  0.48156  1.0000
  Fe  Fe524     1.0  0.72184  0.92676  0.38123  1.0000
  S   S1052     1.0  0.69828  0.92659  0.38539  1.0000
  S   S1053     1.0  0.72717  0.94871  0.37407  1.0000
  Fe  Fe525     1.0  0.73089  0.89438  0.38622  1.0000
  S   S1054     1.0  0.70777  0.89155  0.39043  1.0000
  S   S1055     1.0  0.74946  0.87478  0.38848  1.0000
  Fe  Fe526     1.0  0.70512  0.91028  0.37177  1.0000
  H   H4132     1.0  0.71727  0.96732  0.47389  1.0000
  Fe  Fe527     1.0  0.70268  0.90809  0.40344  1.0000
  S   S1056     1.0  0.68523  0.90837  0.42335  1.0000
  S   S1057     1.0  0.72873  0.91175  0.36620  1.0000
  S   S1058     1.0  0.72573  0.90961  0.40076  1.0000
  H   H4133     1.0  0.71085  0.94927  0.59122  1.0000
  Fe  Fe528     1.0  0.60005  0.92245  0.38664  1.0000
  S   S1059     1.0  0.61312  0.90337  0.39913  1.0000
  S   S1060     1.0  0.61051  0.93077  0.36381  1.0000
  Fe  Fe529     1.0  0.57362  0.92399  0.41125  1.0000
  S   S1061     1.0  0.58424  0.90495  0.42610  1.0000
  S   S1062     1.0  0.55012  0.93493  0.41689  1.0000
  Fe  Fe530     1.0  0.60379  0.91497  0.41708  1.0000
  S   S1063     1.0  0.61949  0.91649  0.42884  1.0000
  Fe  Fe531     1.0  0.59255  0.89518  0.40683  1.0000
  S   S1064     1.0  0.59154  0.87330  0.40580  1.0000
  S   S1065     1.0  0.59244  0.93492  0.40391  1.0000
  S   S1066     1.0  0.58023  0.91327  0.39276  1.0000
  C   C2579     1.0  0.60441  0.95672  0.37113  1.0000
  C   C2580     1.0  0.84380  0.79804  0.53339  1.0000
  H   H4134     1.0  0.52454  0.95646  0.63639  1.0000
  H   H4135     1.0  0.96887  0.75282  0.55781  1.0000
  S   S1067     1.0  0.65652  0.95643  0.59972  1.0000
  H   H4136     1.0  0.82023  0.77669  0.59302  1.0000
  S   S1068     1.0  0.70932  0.92651  0.63521  1.0000
  C   C2581     1.0  0.77257  0.86161  0.64716  1.0000
  H   H4137     1.0  0.95702  0.82927  0.44181  1.0000
  H   H4138     1.0  0.99745  0.76299  0.54280  1.0000
  C   C2582     1.0  0.94967  0.75733  0.47754  1.0000
  H   H4139     1.0  0.85175  0.74818  0.58111  1.0000
  S   S1069     1.0  0.63591  0.96072  0.46407  1.0000
  Fe  Fe532     1.0  0.93556  0.74966  0.41096  1.0000
  S   S1070     1.0  0.91340  0.98904  0.52090  1.0000
  H   H4140     1.0  0.70137  0.98420  0.39693  1.0000
  Fe  Fe533     1.0  0.65198  0.97480  0.45304  1.0000
  S   S1071     1.0  0.67494  0.96720  0.44129  1.0000
  H   H4141     1.0  0.92836  0.75867  0.50107  1.0000
  H   H4142     1.0  0.73420  0.95404  0.32574  1.0000
  Fe  Fe534     1.0  0.70725  0.94686  0.64203  1.0000
  S   S1072     1.0  0.72915  0.95032  0.62909  1.0000
  H   H4143     1.0  0.73819  0.96986  0.63853  1.0000
  Fe  Fe535     1.0  0.73216  0.92882  0.62417  1.0000
  S   S1073     1.0  0.74274  0.92672  0.60143  1.0000
  Fe  Fe536     1.0  0.81753  0.85677  0.55655  1.0000
  S   S1074     1.0  0.79687  0.87390  0.55668  1.0000
  S   S1075     1.0  0.83985  0.86100  0.55276  1.0000
  Fe  Fe537     1.0  0.80283  0.83307  0.55908  1.0000
  S   S1076     1.0  0.78083  0.84793  0.55924  1.0000
  S   S1077     1.0  0.80546  0.80949  0.56064  1.0000
  Fe  Fe538     1.0  0.79278  0.86294  0.54177  1.0000
  S   S1078     1.0  0.78401  0.87609  0.52244  1.0000
  Fe  Fe539     1.0  0.78650  0.85766  0.57421  1.0000
  S   S1079     1.0  0.76829  0.86273  0.59317  1.0000
  S   S1080     1.0  0.81428  0.84720  0.54012  1.0000
  S   S1081     1.0  0.80765  0.84136  0.57560  1.0000
  Fe  Fe540     1.0  0.83167  0.84130  0.45119  1.0000
  S   S1082     1.0  0.81036  0.85751  0.45353  1.0000
  S   S1083     1.0  0.85099  0.83751  0.46092  1.0000
  Fe  Fe541     1.0  0.82010  0.82213  0.44024  1.0000
  S   S1084     1.0  0.79754  0.83624  0.44168  1.0000
  S   S1085     1.0  0.82774  0.79964  0.43661  1.0000
  Fe  Fe542     1.0  0.80932  0.85436  0.43231  1.0000
  S   S1086     1.0  0.79978  0.87456  0.41757  1.0000
  Fe  Fe543     1.0  0.79984  0.83866  0.46255  1.0000
  S   S1087     1.0  0.78189  0.83780  0.48231  1.0000
  S   S1088     1.0  0.83195  0.83998  0.42902  1.0000
  S   S1089     1.0  0.82100  0.82274  0.46214  1.0000
  H   H4144     1.0  0.92175  0.95274  0.46319  1.0000
  H   H4145     1.0  0.60678  0.89256  0.35474  1.0000
  S   S1090     1.0  0.92996  0.78882  0.43871  1.0000
  C   C2583     1.0  0.84537  0.79644  0.42579  1.0000
  C   C2584     1.0  0.84993  0.80700  0.41399  1.0000
  C   C2585     1.0  0.86397  0.80416  0.40528  1.0000
  C   C2586     1.0  0.87361  0.79094  0.40862  1.0000
  C   C2587     1.0  0.86915  0.78049  0.42058  1.0000
  C   C2588     1.0  0.85495  0.78315  0.42900  1.0000
  H   H4146     1.0  0.84247  0.81717  0.41129  1.0000
  H   H4147     1.0  0.86736  0.81221  0.39597  1.0000
  H   H4148     1.0  0.87648  0.77018  0.42306  1.0000
  H   H4149     1.0  0.85137  0.77486  0.43794  1.0000
  C   C2589     1.0  0.81864  0.80274  0.54670  1.0000
  C   C2590     1.0  0.83260  0.80572  0.54256  1.0000
  H   H4150     1.0  0.95871  0.84360  0.44853  1.0000
  C   C2591     1.0  0.81568  0.79278  0.54096  1.0000
  H   H4151     1.0  0.83491  0.81342  0.54699  1.0000
  H   H4152     1.0  0.84662  0.87429  0.48736  1.0000
  H   H4153     1.0  0.80491  0.79046  0.54413  1.0000
  C   C2592     1.0  0.78343  0.86535  0.51139  1.0000
  C   C2593     1.0  0.78609  0.85036  0.51593  1.0000
  C   C2594     1.0  0.78559  0.84191  0.50697  1.0000
  C   C2595     1.0  0.78280  0.84840  0.49333  1.0000
  C   C2596     1.0  0.78034  0.86339  0.48871  1.0000
  C   C2597     1.0  0.78047  0.87186  0.49781  1.0000
  H   H4154     1.0  0.78837  0.84525  0.52640  1.0000
  H   H4155     1.0  0.78744  0.83032  0.51059  1.0000
  H   H4156     1.0  0.77812  0.86844  0.47821  1.0000
  H   H4157     1.0  0.77837  0.88346  0.49428  1.0000
  H   H4158     1.0  0.85471  0.79996  0.53058  1.0000
  C   C2598     1.0  0.74967  0.90902  0.59891  1.0000
  C   C2599     1.0  0.74184  0.89828  0.60609  1.0000
  C   C2600     1.0  0.74755  0.88419  0.60397  1.0000
  C   C2601     1.0  0.76121  0.88070  0.59487  1.0000
  C   C2602     1.0  0.76895  0.89147  0.58754  1.0000
  C   C2603     1.0  0.76310  0.90564  0.58942  1.0000
  H   H4159     1.0  0.74135  0.87597  0.60936  1.0000
  H   H4160     1.0  0.77954  0.88888  0.58058  1.0000
  H   H4161     1.0  0.76917  0.91394  0.58379  1.0000
  H   H4162     1.0  0.98115  0.74870  0.54161  1.0000
  H   H4163     1.0  0.70311  0.93727  0.32967  1.0000
  H   H4164     1.0  0.56821  0.93995  0.32552  1.0000
  H   H4165     1.0  0.69650  0.96062  0.38468  1.0000
  H   H4166     1.0  0.72497  0.96381  0.33965  1.0000
  N   N257      1.0  0.69882  0.97722  0.46416  1.0000
  H   H4167     1.0  0.91002  0.76034  0.56352  1.0000
  H   H4168     1.0  0.56578  0.94682  0.34103  1.0000
  H   H4169     1.0  0.66029  0.90604  0.32996  1.0000
  H   H4170     1.0  0.77895  0.86666  0.65126  1.0000
  H   H4171     1.0  0.94601  0.86179  0.43087  1.0000
  H   H4172     1.0  0.93799  0.90455  0.48349  1.0000
  H   H4173     1.0  0.92894  0.92040  0.51551  1.0000
  C   C2604     1.0  0.66376  0.95948  0.61247  1.0000
  C   C2605     1.0  0.66847  0.94790  0.62311  1.0000
  C   C2606     1.0  0.67547  0.94994  0.63262  1.0000
  C   C2607     1.0  0.67747  0.96362  0.63169  1.0000
  C   C2608     1.0  0.67186  0.97537  0.62171  1.0000
  C   C2609     1.0  0.66523  0.97327  0.61192  1.0000
  H   H4174     1.0  0.66719  0.93725  0.62367  1.0000
  H   H4175     1.0  0.67937  0.94088  0.64060  1.0000
  H   H4176     1.0  0.68763  0.98139  0.41305  1.0000
  H   H4177     1.0  0.85080  0.75810  0.48343  1.0000
  H   H4178     1.0  0.85838  0.80080  0.47060  1.0000
  Fe  Fe544     1.0  0.89091  0.75404  0.54958  1.0000
  H   H4179     1.0  0.80632  0.88258  0.49135  1.0000
  H   H4180     1.0  0.60090  0.97606  0.37861  1.0000
  C   C2610     1.0  0.64007  0.95805  0.52620  1.0000
  H   H4181     1.0  0.86057  0.76016  0.56637  1.0000
  Fe  Fe545     1.0  0.56723  0.98419  0.65052  1.0000
  H   H4182     1.0  0.58599  0.85690  0.36607  1.0000
  C   C2611     1.0  0.61485  0.93355  0.43276  1.0000
  C   C2612     1.0  0.60042  0.94141  0.43440  1.0000
  C   C2613     1.0  0.59677  0.95489  0.43793  1.0000
  C   C2614     1.0  0.60756  0.96054  0.43977  1.0000
  C   C2615     1.0  0.62207  0.95288  0.43765  1.0000
  C   C2616     1.0  0.62567  0.93933  0.43430  1.0000
  H   H4183     1.0  0.59197  0.93695  0.43331  1.0000
  H   H4184     1.0  0.58554  0.96083  0.43947  1.0000
  H   H4185     1.0  0.63050  0.95741  0.43859  1.0000
  H   H4186     1.0  0.63684  0.93334  0.43283  1.0000
  C   C2617     1.0  0.53334  0.94006  0.37733  1.0000
  C   C2618     1.0  0.52390  0.93851  0.39083  1.0000
  C   C2619     1.0  0.52869  0.93812  0.40295  1.0000
  C   C2620     1.0  0.54305  0.93898  0.40161  1.0000
  C   C2621     1.0  0.55215  0.94158  0.38801  1.0000
  C   C2622     1.0  0.54723  0.94226  0.37588  1.0000
  C   C2623     1.0  0.59660  0.87480  0.35870  1.0000
  H   H4187     1.0  0.67322  0.98598  0.62113  1.0000
  H   H4188     1.0  0.56308  0.94285  0.38687  1.0000
  H   H4189     1.0  0.55431  0.94411  0.36545  1.0000
  C   C2624     1.0  0.59971  0.88431  0.37722  1.0000
  C   C2625     1.0  0.59336  0.87380  0.38774  1.0000
  C   C2626     1.0  0.58847  0.86386  0.38374  1.0000
  H   H4190     1.0  0.60348  0.89203  0.38022  1.0000
  H   H4191     1.0  0.58351  0.85574  0.39185  1.0000
  C   C2627     1.0  0.61390  0.94757  0.36245  1.0000
  C   C2628     1.0  0.68272  0.92434  0.42884  1.0000
  C   C2629     1.0  0.69434  0.93102  0.42623  1.0000
  C   C2630     1.0  0.69200  0.94396  0.43053  1.0000
  C   C2631     1.0  0.67794  0.95051  0.43688  1.0000
  C   C2632     1.0  0.66633  0.94396  0.43910  1.0000
  C   C2633     1.0  0.66877  0.93073  0.43545  1.0000
  H   H4192     1.0  0.70518  0.92608  0.42120  1.0000
  H   H4193     1.0  0.70107  0.94890  0.42884  1.0000
  H   H4194     1.0  0.65542  0.94910  0.44344  1.0000
  H   H4195     1.0  0.65983  0.92551  0.43752  1.0000
  C   C2634     1.0  0.76366  0.87494  0.39617  1.0000
  C   C2635     1.0  0.76533  0.88769  0.39832  1.0000
  C   C2636     1.0  0.77660  0.88744  0.40466  1.0000
  C   C2637     1.0  0.78611  0.87444  0.40917  1.0000
  C   C2638     1.0  0.78444  0.86167  0.40706  1.0000
  C   C2639     1.0  0.77335  0.86196  0.40045  1.0000
  H   H4196     1.0  0.75811  0.89778  0.39488  1.0000
  H   H4197     1.0  0.77790  0.89738  0.40611  1.0000
  H   H4198     1.0  0.79182  0.85161  0.41031  1.0000
  H   H4199     1.0  0.77221  0.85206  0.39874  1.0000
  S   S1091     1.0  0.66684  0.97739  0.34392  1.0000
  H   H4200     1.0  0.66570  0.86542  0.36278  1.0000
  H   H4201     1.0  0.83436  0.88403  0.46738  1.0000
  C   C2640     1.0  0.73108  0.96997  0.38421  1.0000
  C   C2641     1.0  0.72927  0.95579  0.38752  1.0000
  C   C2642     1.0  0.72880  0.94768  0.40153  1.0000
  C   C2643     1.0  0.73018  0.95371  0.41213  1.0000
  H   H4202     1.0  0.72744  0.93675  0.40421  1.0000
  H   H4203     1.0  0.72989  0.94734  0.42292  1.0000
  C   C2644     1.0  0.96020  0.78448  0.52279  1.0000
  C   C2645     1.0  0.95452  0.79782  0.51474  1.0000
  C   C2646     1.0  0.93969  0.80180  0.51447  1.0000
  C   C2647     1.0  0.93044  0.79255  0.52255  1.0000
  C   C2648     1.0  0.95081  0.77558  0.53154  1.0000
  H   H4204     1.0  0.96166  0.80499  0.50859  1.0000
  H   H4205     1.0  0.93552  0.81184  0.50767  1.0000
  H   H4206     1.0  0.95508  0.76536  0.53801  1.0000
  C   C2649     1.0  0.97481  0.77836  0.44920  1.0000
  C   C2650     1.0  0.96455  0.79077  0.45215  1.0000
  C   C2651     1.0  0.95083  0.79396  0.44880  1.0000
  C   C2652     1.0  0.94742  0.78492  0.44223  1.0000
  C   C2653     1.0  0.95779  0.77269  0.43898  1.0000
  C   C2654     1.0  0.97145  0.76942  0.44247  1.0000
  H   H4207     1.0  0.96715  0.79785  0.45707  1.0000
  H   H4208     1.0  0.94280  0.80334  0.45144  1.0000
  C   C2655     1.0  0.85362  0.75932  0.57740  1.0000
  H   H4209     1.0  0.95030  0.82955  0.46046  1.0000
  C   C2656     1.0  0.93524  0.85810  0.49117  1.0000
  C   C2657     1.0  0.94271  0.86681  0.47945  1.0000
  C   C2658     1.0  0.95667  0.86108  0.47212  1.0000
  C   C2659     1.0  0.96325  0.84660  0.47647  1.0000
  C   C2660     1.0  0.95597  0.83796  0.48841  1.0000
  C   C2661     1.0  0.94202  0.84373  0.49584  1.0000
  H   H4210     1.0  0.93780  0.87798  0.47596  1.0000
  H   H4211     1.0  0.96234  0.86784  0.46295  1.0000
  H   H4212     1.0  0.96111  0.82683  0.49189  1.0000
  H   H4213     1.0  0.93642  0.83700  0.50505  1.0000
  C   C2662     1.0  0.88449  0.86565  0.44415  1.0000
  C   C2663     1.0  0.87363  0.86787  0.43662  1.0000
  C   C2664     1.0  0.86310  0.85937  0.44168  1.0000
  C   C2665     1.0  0.86366  0.84853  0.45412  1.0000
  C   C2666     1.0  0.87467  0.84619  0.46145  1.0000
  C   C2667     1.0  0.88501  0.85476  0.45653  1.0000
  H   H4214     1.0  0.87320  0.87633  0.42705  1.0000
  H   H4215     1.0  0.85461  0.86121  0.43597  1.0000
  H   H4216     1.0  0.87513  0.83778  0.47106  1.0000
  H   H4217     1.0  0.89341  0.85291  0.46232  1.0000
  C   C2668     1.0  0.84755  0.89107  0.50887  1.0000
  C   C2669     1.0  0.83348  0.88933  0.51601  1.0000
  C   C2670     1.0  0.83117  0.88007  0.52945  1.0000
  C   C2671     1.0  0.84277  0.87318  0.53624  1.0000
  C   C2672     1.0  0.85674  0.87564  0.52950  1.0000
  C   C2673     1.0  0.85922  0.88430  0.51563  1.0000
  H   H4218     1.0  0.82434  0.89505  0.51111  1.0000
  H   H4219     1.0  0.82036  0.87839  0.53455  1.0000
  H   H4220     1.0  0.86564  0.87073  0.53489  1.0000
  H   H4221     1.0  0.87008  0.88581  0.51024  1.0000
  C   C2674     1.0  0.90452  0.94118  0.47329  1.0000
  C   C2675     1.0  0.89326  0.93873  0.48528  1.0000
  C   C2676     1.0  0.89096  0.94525  0.49672  1.0000
  C   C2677     1.0  0.89965  0.95457  0.49609  1.0000
  C   C2678     1.0  0.91055  0.95754  0.48386  1.0000
  C   C2679     1.0  0.91303  0.95079  0.47247  1.0000
  H   H4222     1.0  0.88621  0.93191  0.48571  1.0000
  H   H4223     1.0  0.88237  0.94310  0.50609  1.0000
  C   C2680     1.0  0.91446  0.75044  0.57033  1.0000
  H   H4224     1.0  0.91936  0.91402  0.48473  1.0000
  H   H4225     1.0  0.76744  0.96979  0.40857  1.0000
  N   N258      1.0  0.60181  0.93845  0.48472  1.0000
  C   C2681     1.0  0.58950  0.93126  0.49200  1.0000
  C   C2682     1.0  0.61052  0.93215  0.47234  1.0000
  C   C2683     1.0  0.61114  0.93642  0.49480  1.0000
  C   C2684     1.0  0.59604  0.95400  0.47970  1.0000
  H   H4226     1.0  0.58274  0.93572  0.50144  1.0000
  H   H4227     1.0  0.59344  0.91949  0.49584  1.0000
  H   H4228     1.0  0.58223  0.93269  0.48466  1.0000
  H   H4229     1.0  0.61987  0.93736  0.46655  1.0000
  H   H4230     1.0  0.61506  0.92043  0.47567  1.0000
  H   H4231     1.0  0.60384  0.93353  0.46447  1.0000
  H   H4232     1.0  0.62073  0.94142  0.48953  1.0000
  H   H4233     1.0  0.61542  0.92483  0.49910  1.0000
  H   H4234     1.0  0.60511  0.94150  0.50405  1.0000
  H   H4235     1.0  0.60500  0.95981  0.47433  1.0000
  H   H4236     1.0  0.58928  0.95913  0.48871  1.0000
  H   H4237     1.0  0.58923  0.95600  0.47178  1.0000
  N   N259      1.0  0.74553  0.88870  0.55654  1.0000
  C   C2685     1.0  0.73918  0.90169  0.54679  1.0000
  C   C2686     1.0  0.76028  0.88955  0.55680  1.0000
  C   C2687     1.0  0.74653  0.87575  0.55144  1.0000
  C   C2688     1.0  0.73626  0.88778  0.57116  1.0000
  H   H4238     1.0  0.72802  0.90144  0.54631  1.0000
  H   H4239     1.0  0.74602  0.90264  0.53569  1.0000
  H   H4240     1.0  0.73835  0.91165  0.55032  1.0000
  H   H4241     1.0  0.76530  0.87992  0.56411  1.0000
  H   H4242     1.0  0.76767  0.89015  0.54599  1.0000
  H   H4243     1.0  0.76002  0.89918  0.56058  1.0000
  H   H4244     1.0  0.75099  0.86575  0.55876  1.0000
  H   H4245     1.0  0.75388  0.87586  0.54062  1.0000
  H   H4246     1.0  0.73565  0.87491  0.55075  1.0000
  H   H4247     1.0  0.74077  0.87797  0.57872  1.0000
  H   H4248     1.0  0.72497  0.88729  0.57141  1.0000
  H   H4249     1.0  0.73557  0.89722  0.57548  1.0000
  H   H4250     1.0  0.73377  0.95752  0.58085  1.0000
  H   H4251     1.0  0.71035  0.95159  0.60853  1.0000
  H   H4252     1.0  0.93125  0.77649  0.49254  1.0000
  H   H4253     1.0  0.79012  0.96809  0.41624  1.0000
  H   H4254     1.0  0.90570  0.75429  0.46385  1.0000
  H   H4255     1.0  0.64039  0.96670  0.34710  1.0000
  H   H4256     1.0  0.71264  0.98217  0.64525  1.0000
  H   H4257     1.0  0.65768  0.95900  0.49149  1.0000
  H   H4258     1.0  0.87769  0.77092  0.46773  1.0000
  C   C2689     1.0  0.51268  0.98120  0.61491  1.0000
  H   H4259     1.0  0.70485  0.97495  0.32668  1.0000
  H   H4260     1.0  0.68417  0.98841  0.45015  1.0000
  N   N260      1.0  0.95066  0.75962  0.49123  1.0000
  C   C2690     1.0  0.74497  0.98792  0.64066  1.0000
  H   H4261     1.0  0.84750  0.79483  0.48794  1.0000
  H   H4262     1.0  0.83165  0.78827  0.47632  1.0000
  C   C2691     1.0  0.69604  0.98542  0.45001  1.0000
  N   N261      1.0  0.88839  0.82051  0.42542  1.0000
  C   C2692     1.0  0.89682  0.81056  0.41593  1.0000
  C   C2693     1.0  0.89354  0.83410  0.42022  1.0000
  C   C2694     1.0  0.89052  0.81385  0.44013  1.0000
  C   C2695     1.0  0.87272  0.82345  0.42539  1.0000
  H   H4263     1.0  0.89300  0.80034  0.41942  1.0000
  H   H4264     1.0  0.90868  0.80775  0.41590  1.0000
  H   H4265     1.0  0.89558  0.81515  0.40468  1.0000
  H   H4266     1.0  0.88768  0.84174  0.42733  1.0000
  H   H4267     1.0  0.90541  0.83219  0.41978  1.0000
  H   H4268     1.0  0.89175  0.83956  0.40927  1.0000
  H   H4269     1.0  0.90222  0.81162  0.44056  1.0000
  H   H4270     1.0  0.88707  0.80339  0.44419  1.0000
  H   H4271     1.0  0.88406  0.82094  0.44766  1.0000
  H   H4272     1.0  0.86603  0.83112  0.43225  1.0000
  H   H4273     1.0  0.86844  0.81342  0.42945  1.0000
  H   H4274     1.0  0.87073  0.82816  0.41440  1.0000
  N   N262      1.0  0.88756  0.83669  0.52572  1.0000
  C   C2696     1.0  0.88406  0.84954  0.51440  1.0000
  C   C2697     1.0  0.88038  0.84001  0.53993  1.0000
  C   C2698     1.0  0.90355  0.83246  0.52439  1.0000
  C   C2699     1.0  0.88225  0.82477  0.52416  1.0000
  H   H4275     1.0  0.88963  0.84750  0.50356  1.0000
  H   H4276     1.0  0.88767  0.85884  0.51543  1.0000
  H   H4277     1.0  0.87212  0.85292  0.51488  1.0000
  H   H4278     1.0  0.86829  0.84330  0.54130  1.0000
  H   H4279     1.0  0.88276  0.83051  0.54871  1.0000
  H   H4280     1.0  0.88412  0.84894  0.54154  1.0000
  H   H4281     1.0  0.90665  0.82278  0.53276  1.0000
  H   H4282     1.0  0.90794  0.84128  0.52535  1.0000
  H   H4283     1.0  0.90931  0.82974  0.51384  1.0000
  H   H4284     1.0  0.88473  0.81489  0.53255  1.0000
  H   H4285     1.0  0.88757  0.82184  0.51362  1.0000
  H   H4286     1.0  0.87023  0.82763  0.52507  1.0000
  N   N263      1.0  0.75452  0.86493  0.44858  1.0000
  C   C2700     1.0  0.75487  0.85955  0.43607  1.0000
  C   C2701     1.0  0.74060  0.87538  0.45184  1.0000
  C   C2702     1.0  0.76682  0.87208  0.44534  1.0000
  C   C2703     1.0  0.75579  0.85274  0.46105  1.0000
  H   H4287     1.0  0.76531  0.85178  0.43317  1.0000
  H   H4288     1.0  0.75380  0.86851  0.42651  1.0000
  H   H4289     1.0  0.74583  0.85398  0.43812  1.0000
  H   H4290     1.0  0.73995  0.87966  0.46124  1.0000
  H   H4291     1.0  0.73936  0.88471  0.44259  1.0000
  H   H4292     1.0  0.73107  0.87037  0.45426  1.0000
  H   H4293     1.0  0.76626  0.88135  0.43597  1.0000
  H   H4294     1.0  0.77749  0.86456  0.44266  1.0000
  H   H4295     1.0  0.76705  0.87613  0.45458  1.0000
  H   H4296     1.0  0.75585  0.85632  0.47066  1.0000
  H   H4297     1.0  0.76612  0.84459  0.45887  1.0000
  H   H4298     1.0  0.74664  0.84713  0.46392  1.0000
  N   N264      1.0  0.82735  0.86859  0.48633  1.0000
  C   C2704     1.0  0.82931  0.87449  0.47074  1.0000
  C   C2705     1.0  0.84160  0.86476  0.49036  1.0000
  C   C2706     1.0  0.82122  0.85561  0.49026  1.0000
  C   C2707     1.0  0.81726  0.87957  0.49395  1.0000
  H   H4299     1.0  0.81871  0.87787  0.46739  1.0000
  H   H4300     1.0  0.83651  0.86638  0.46462  1.0000
  H   H4301     1.0  0.84045  0.86059  0.50212  1.0000
  H   H4302     1.0  0.84943  0.85639  0.48487  1.0000
  H   H4303     1.0  0.81078  0.85797  0.48683  1.0000
  H   H4304     1.0  0.81897  0.85126  0.50205  1.0000
  H   H4305     1.0  0.82878  0.84689  0.48509  1.0000
  H   H4306     1.0  0.82149  0.88957  0.49102  1.0000
  H   H4307     1.0  0.81558  0.87560  0.50578  1.0000
  S   S1092     1.0  0.68831  0.96576  0.64186  1.0000
  H   H4308     1.0  0.97940  0.75986  0.44007  1.0000
  H   H4309     1.0  0.92840  0.86082  0.42961  1.0000
  H   H4310     1.0  0.59243  0.94433  0.33776  1.0000
  C   C2708     1.0  0.70152  0.95234  0.34889  1.0000
  C   C2709     1.0  0.82669  0.78555  0.53139  1.0000
  S   S1093     1.0  0.88082  0.77728  0.54179  1.0000
  S   S1094     1.0  0.63629  0.99289  0.44229  1.0000
  C   C2710     1.0  0.66454  0.96176  0.52210  1.0000
  H   H4311     1.0  0.97782  0.74830  0.57964  1.0000
  H   H4312     1.0  0.51297  0.93749  0.39202  1.0000
  C   C2711     1.0  0.84160  0.78467  0.46833  1.0000
  Fe  Fe546     1.0  0.61985  0.97953  0.45477  1.0000
  H   H4313     1.0  0.62684  0.86530  0.36806  1.0000
  C   C2712     1.0  0.63878  0.86191  0.36751  1.0000
  H   H4314     1.0  0.57627  0.90792  0.33924  1.0000
  S   S1095     1.0  0.85475  0.77721  0.51744  1.0000
  N   N265      1.0  0.53995  0.89287  0.40221  1.0000
  C   C2713     1.0  0.55056  0.88628  0.41149  1.0000
  C   C2714     1.0  0.54643  0.90267  0.38933  1.0000
  C   C2715     1.0  0.52655  0.90107  0.41012  1.0000
  C   C2716     1.0  0.53627  0.88147  0.39786  1.0000
  H   H4315     1.0  0.56071  0.87980  0.40594  1.0000
  H   H4316     1.0  0.54597  0.87902  0.42146  1.0000
  H   H4317     1.0  0.55384  0.89463  0.41469  1.0000
  H   H4318     1.0  0.53874  0.90784  0.38204  1.0000
  H   H4319     1.0  0.54919  0.91145  0.39228  1.0000
  H   H4320     1.0  0.55665  0.89685  0.38319  1.0000
  H   H4321     1.0  0.51861  0.90681  0.40319  1.0000
  H   H4322     1.0  0.52904  0.90923  0.41424  1.0000
  H   H4323     1.0  0.52089  0.89389  0.41944  1.0000
  H   H4324     1.0  0.52820  0.88610  0.39093  1.0000
  H   H4325     1.0  0.53125  0.87392  0.40731  1.0000
  H   H4326     1.0  0.54611  0.87507  0.39182  1.0000
  N   N266      1.0  0.64919  0.93193  0.38915  1.0000
  C   C2717     1.0  0.64832  0.92170  0.38128  1.0000
  C   C2718     1.0  0.65576  0.92391  0.40157  1.0000
  C   C2719     1.0  0.63436  0.94018  0.39421  1.0000
  C   C2720     1.0  0.65829  0.94195  0.37948  1.0000
  H   H4327     1.0  0.64305  0.92737  0.37207  1.0000
  H   H4328     1.0  0.64179  0.91380  0.38836  1.0000
  H   H4329     1.0  0.60342  0.96683  0.60501  1.0000
  H   H4330     1.0  0.65679  0.93125  0.40769  1.0000
  H   H4331     1.0  0.64899  0.91644  0.40922  1.0000
  H   H4332     1.0  0.66688  0.91734  0.39822  1.0000
  H   H4333     1.0  0.62930  0.94681  0.38513  1.0000
  H   H4334     1.0  0.63444  0.94755  0.40078  1.0000
  H   H4335     1.0  0.62698  0.93293  0.40092  1.0000
  H   H4336     1.0  0.65919  0.94982  0.38505  1.0000
  H   H4337     1.0  0.65359  0.94814  0.37002  1.0000
  Fe  Fe547     1.0  0.90697  0.77179  0.41062  1.0000
  C   C2721     1.0  0.91163  0.74436  0.48418  1.0000
  C   C2722     1.0  0.85261  0.76717  0.48675  1.0000
  H   H4338     1.0  0.77122  0.88042  0.62177  1.0000
  Fe  Fe548     1.0  0.90176  0.98359  0.50729  1.0000
  S   S1096     1.0  0.73297  0.97551  0.42234  1.0000
  H   H4339     1.0  0.69164  0.87001  0.34704  1.0000
  H   H4340     1.0  0.66144  0.98230  0.60390  1.0000
  H   H4341     1.0  0.66410  0.96958  0.39725  1.0000
  H   H4342     1.0  0.96062  0.75304  0.47125  1.0000
  H   H4343     1.0  0.63895  0.87531  0.39534  1.0000
  C   C2723     1.0  0.65125  0.95974  0.53139  1.0000
  C   C2724     1.0  0.63031  0.96402  0.35378  1.0000
  H   H4344     1.0  0.86929  0.78374  0.45396  1.0000
  H   H4345     1.0  0.63401  0.94439  0.34667  1.0000
  S   S1097     1.0  0.62984  0.89782  0.33074  1.0000
  C   C2725     1.0  0.72998  0.96515  0.58815  1.0000
  H   H4346     1.0  0.95528  0.76571  0.43382  1.0000
  Fe  Fe549     1.0  0.92617  0.77221  0.42941  1.0000
  C   C2726     1.0  0.58987  0.86452  0.36920  1.0000
  C   C2727     1.0  0.66881  0.90156  0.33594  1.0000
  H   H4347     1.0  0.59420  0.95415  0.37757  1.0000
  C   C2728     1.0  0.69087  0.89030  0.35152  1.0000
  H   H4348     1.0  0.73133  0.90088  0.61321  1.0000
  N   N267      1.0  0.92574  0.90572  0.50491  1.0000
  C   C2729     1.0  0.91064  0.90576  0.51331  1.0000
  C   C2730     1.0  0.93583  0.89318  0.51159  1.0000
  C   C2731     1.0  0.92969  0.91917  0.50456  1.0000
  C   C2732     1.0  0.92674  0.90472  0.49016  1.0000
  H   H4349     1.0  0.90731  0.89572  0.51386  1.0000
  H   H4350     1.0  0.90271  0.91500  0.50846  1.0000
  H   H4351     1.0  0.90942  0.90669  0.52446  1.0000
  H   H4352     1.0  0.94733  0.89281  0.50554  1.0000
  H   H4353     1.0  0.93532  0.89349  0.52279  1.0000
  H   H4354     1.0  0.93314  0.88287  0.51187  1.0000
  H   H4355     1.0  0.92226  0.92879  0.49953  1.0000
  H   H4356     1.0  0.94100  0.91958  0.49827  1.0000
  S   S1098     1.0  0.91240  0.79687  0.52053  1.0000
  C   C2733     1.0  0.93588  0.77970  0.53153  1.0000
  C   C2734     1.0  0.60157  0.88464  0.36274  1.0000
  H   H4357     1.0  0.69941  0.88590  0.35747  1.0000
  S   S1099     1.0  0.00073  0.80759  0.49275  1.0000
  N   N268      1.0  0.77776  0.98740  0.40519  1.0000
  H   H4358     1.0  0.69731  0.98367  0.60372  1.0000
  H   H4359     1.0  0.59433  0.98402  0.60925  1.0000
  C   C2735     1.0  0.60810  0.96924  0.37155  1.0000
  N   N269      1.0  0.99136  0.74498  0.55920  1.0000
  H   H4360     1.0  0.92866  0.77291  0.53840  1.0000
  H   H4361     1.0  0.83268  0.79330  0.57293  1.0000
  H   H4362     1.0  0.83950  0.77620  0.46433  1.0000
  H   H4363     1.0  0.62517  0.95255  0.61472  1.0000
  C   C2736     1.0  0.70727  0.95724  0.59814  1.0000
  C   C2737     1.0  0.69330  0.96386  0.46822  1.0000
  C   C2738     1.0  0.83073  0.76851  0.59246  1.0000
  C   C2739     1.0  0.65580  0.95943  0.50256  1.0000
  H   H4364     1.0  0.61864  0.98291  0.63233  1.0000
  H   H4365     1.0  0.61438  0.95320  0.63253  1.0000
  H   H4366     1.0  0.93475  0.75645  0.56759  1.0000
  H   H4367     1.0  0.57193  0.91701  0.36120  1.0000
  C   C2740     1.0  0.67336  0.91057  0.34172  1.0000
  C   C2741     1.0  0.70898  0.97739  0.57797  1.0000
  H   H4368     1.0  0.92591  0.82782  0.45845  1.0000
  C   C2742     1.0  0.67228  0.96913  0.40326  1.0000
  S   S1100     1.0  0.89700  0.96173  0.51102  1.0000
  H   H4369     1.0  0.60185  0.97671  0.63876  1.0000
  C   C2743     1.0  0.97886  0.74522  0.55350  1.0000
  H   H4370     1.0  0.60472  0.92776  0.33502  1.0000
  H   H4371     1.0  0.94267  0.74958  0.47931  1.0000
  H   H4372     1.0  0.84281  0.79399  0.45911  1.0000
  C   C2744     1.0  0.92984  0.85392  0.45717  1.0000
  S   S1101     1.0  0.88356  0.74604  0.53448  1.0000
  H   H4373     1.0  0.71919  0.98343  0.46031  1.0000
  C   C2745     1.0  0.60044  0.97306  0.61350  1.0000
  C   C2746     1.0  0.71368  0.93858  0.33079  1.0000
  H   H4374     1.0  0.77068  0.88968  0.63514  1.0000
  Fe  Fe550     1.0  0.99474  0.78670  0.46779  1.0000
  H   H4375     1.0  0.62681  0.97504  0.59634  1.0000
  H   H4376     1.0  0.84305  0.77033  0.49533  1.0000
  C   C2747     1.0  0.70461  0.99216  0.64742  1.0000
  H   H4377     1.0  0.52150  0.93647  0.41344  1.0000
  H   H4378     1.0  0.71264  0.97462  0.61156  1.0000
  C   C2748     1.0  0.86756  0.77481  0.46349  1.0000
  H   H4379     1.0  0.59129  0.91531  0.35812  1.0000
  H   H4380     1.0  0.90256  0.98372  0.46370  1.0000
  S   S1102     1.0  0.51303  0.90456  0.36747  1.0000
  H   H4381     1.0  0.94487  0.76756  0.47074  1.0000
  H   H4382     1.0  0.86550  0.97727  0.46901  1.0000
  H   H4383     1.0  0.97157  0.76532  0.48244  1.0000
  S   S1103     1.0  0.74185  0.91652  0.64314  1.0000
  C   C2749     1.0  0.62117  0.97277  0.36305  1.0000
  H   H4384     1.0  0.64955  0.95944  0.54257  1.0000
  C   C2750     1.0  0.95136  0.83644  0.44944  1.0000
  C   C2751     1.0  0.63556  0.86900  0.38968  1.0000
  H   H4385     1.0  0.94434  0.84774  0.42371  1.0000
  C   C2752     1.0  0.62317  0.98096  0.60515  1.0000
  N   N270      1.0  0.68298  0.97793  0.39458  1.0000
  N   N271      1.0  0.64360  0.87048  0.37457  1.0000
  H   H4386     1.0  0.59281  0.96783  0.62280  1.0000
  H   H4387     1.0  0.86520  0.99127  0.48646  1.0000
  S   S1104     1.0  0.93019  0.77395  0.40578  1.0000
  H   H4388     1.0  0.93626  0.86192  0.45619  1.0000
  Fe  Fe551     1.0  0.90248  0.77763  0.52643  1.0000
  S   S1105     1.0  0.59863  0.87536  0.34060  1.0000
  C   C2753     1.0  0.76431  0.88414  0.63158  1.0000
  C   C2754     1.0  0.52702  0.98197  0.61394  1.0000
  C   C2755     1.0  0.58101  0.92265  0.35562  1.0000
  H   H4389     1.0  0.86229  0.76301  0.49171  1.0000
  C   C2756     1.0  0.93904  0.85419  0.43204  1.0000
  C   C2757     1.0  0.69334  0.97743  0.40310  1.0000
  H   H4390     1.0  0.91878  0.86007  0.45563  1.0000
  S   S1106     1.0  0.68975  0.91682  0.35651  1.0000
  S   S1107     1.0  0.66961  0.87510  0.33111  1.0000
  H   H4391     1.0  0.69090  0.95047  0.34866  1.0000
  C   C2758     1.0  0.84085  0.78783  0.52795  1.0000
  N   N272      1.0  0.61352  0.97373  0.61770  1.0000
  Fe  Fe552     1.0  0.50922  0.92796  0.36738  1.0000
  Fe  Fe553     1.0  0.90502  0.74892  0.51986  1.0000
  H   H4392     1.0  0.77631  0.97604  0.39030  1.0000
  C   C2759     1.0  0.73166  0.96799  0.40886  1.0000
  H   H4393     1.0  0.91681  0.84107  0.44546  1.0000
  C   C2760     1.0  0.62668  0.95140  0.35348  1.0000
  S   S1108     1.0  0.64842  0.98435  0.47192  1.0000
  H   H4394     1.0  0.69515  0.96039  0.60026  1.0000
  S   S1109     1.0  0.90260  0.77154  0.43392  1.0000
  H   H4395     1.0  0.72069  0.96700  0.45526  1.0000
  N   N273      1.0  0.93700  0.84486  0.44657  1.0000
  H   H4396     1.0  0.92864  0.84737  0.46834  1.0000
  H   H4397     1.0  0.69557  0.95716  0.47867  1.0000
  S   S1110     1.0  0.89654  0.77163  0.50909  1.0000
  S   S1111     1.0  0.99157  0.77338  0.45443  1.0000
  H   H4398     1.0  0.77998  0.85723  0.63789  1.0000
  C   C2761     1.0  0.70936  0.97985  0.60120  1.0000
  C   C2762     1.0  0.83178  0.76837  0.56806  1.0000
  C   C2763     1.0  0.95654  0.74569  0.50013  1.0000
  C   C2764     1.0  0.92771  0.83498  0.44760  1.0000
  H   H4399     1.0  0.93276  0.82801  0.43969  1.0000
  H   H4400     1.0  0.67738  0.96225  0.50068  1.0000
  Fe  Fe554     1.0  0.87565  0.76944  0.52514  1.0000
  H   H4401     1.0  0.66193  0.85389  0.38011  1.0000
  H   H4402     1.0  0.73168  0.97620  0.37336  1.0000
  H   H4403     1.0  0.82434  0.77773  0.52716  1.0000
  C   C2765     1.0  0.73208  0.97613  0.39487  1.0000
  S   S1112     1.0  0.67779  0.96609  0.52791  1.0000
  H   H4404     1.0  0.73533  0.97443  0.58300  1.0000
  H   H4405     1.0  0.71188  0.97019  0.57036  1.0000
  H   H4406     1.0  0.66834  0.92195  0.34003  1.0000
  H   H4407     1.0  0.69693  0.98144  0.58010  1.0000
  H   H4408     1.0  0.65938  0.91558  0.37696  1.0000
  C   C2766     1.0  0.87695  0.97837  0.46401  1.0000
  Fe  Fe555     1.0  0.63093  0.97181  0.48196  1.0000
  H   H4409     1.0  0.63315  0.98168  0.60793  1.0000
  C   C2767     1.0  0.58486  0.91429  0.33405  1.0000
  C   C2768     1.0  0.65941  0.86519  0.37399  1.0000
  H   H4410     1.0  0.91740  0.96462  0.48338  1.0000
  H   H4411     1.0  0.69838  0.95720  0.46003  1.0000
  H   H4412     1.0  0.66951  0.93604  0.37536  1.0000
  H   H4413     1.0  0.54024  0.96221  0.63685  1.0000
  H   H4414     1.0  0.76623  0.98228  0.42716  1.0000
  N   N274      1.0  0.85470  0.77946  0.47451  1.0000
  H   H4415     1.0  0.86625  0.76581  0.45966  1.0000
  H   H4416     1.0  0.61758  0.99209  0.60081  1.0000
  H   H4417     1.0  0.82937  0.75745  0.57116  1.0000
  S   S1113     1.0  0.52865  0.93801  0.36236  1.0000
  H   H4418     1.0  0.74139  0.87251  0.63475  1.0000
  H   H4419     1.0  0.83820  0.76983  0.55680  1.0000
  H   H4420     1.0  0.64436  0.86312  0.35597  1.0000
  H   H4421     1.0  0.84982  0.78640  0.56197  1.0000
  C   C2769     1.0  0.64214  0.95850  0.51166  1.0000
  H   H4422     1.0  0.75480  0.89240  0.62838  1.0000
  S   S1114     1.0  0.62724  0.95957  0.50469  1.0000
  C   C2770     1.0  0.74461  0.97326  0.64360  1.0000
  H   H4423     1.0  0.64653  0.88723  0.35561  1.0000
  H   H4424     1.0  0.62891  0.89021  0.36731  1.0000
  H   H4425     1.0  0.86018  0.76055  0.58431  1.0000
  H   H4426     1.0  0.64112  0.85026  0.37266  1.0000
  H   H4427     1.0  0.62964  0.95697  0.53335  1.0000
  H   H4428     1.0  0.62359  0.87285  0.39058  1.0000
  H   H4429     1.0  0.57926  0.93205  0.36040  1.0000
  H   H4430     1.0  0.64442  0.98878  0.50479  1.0000
  C   C2771     1.0  0.92843  0.74828  0.57272  1.0000
  H   H4431     1.0  0.68383  0.97320  0.37454  1.0000
  H   H4432     1.0  0.71759  0.92915  0.33900  1.0000
  Fe  Fe556     1.0  0.65917  0.97303  0.57921  1.0000
  H   H4433     1.0  0.88419  0.96876  0.46927  1.0000
  C   C2772     1.0  0.62141  0.95900  0.62311  1.0000
  H   H4434     1.0  0.69320  0.98033  0.48573  1.0000
  C   C2773     1.0  0.68645  0.88133  0.34556  1.0000
  H   H4435     1.0  0.91305  0.75421  0.48569  1.0000
  S   S1115     1.0  0.91258  0.74775  0.41363  1.0000
  Fe  Fe557     1.0  0.66542  0.98083  0.32116  1.0000
  H   H4436     1.0  0.95617  0.78022  0.48189  1.0000
  S   S1116     1.0  0.89138  0.78780  0.39806  1.0000
  C   C2774     1.0  0.68438  0.90499  0.34955  1.0000
  N   N275      1.0  0.58197  0.92713  0.34002  1.0000
  Fe  Fe558     1.0  0.73693  0.93794  0.64891  1.0000
  C   C2775     1.0  0.75345  0.99235  0.64713  1.0000
  C   C2776     1.0  0.87670  0.99173  0.48091  1.0000
  H   H4437     1.0  0.66367  0.87190  0.37846  1.0000
  H   H4438     1.0  0.69946  0.96276  0.35206  1.0000
  N   N276      1.0  0.71391  0.96989  0.59138  1.0000
  C   C2777     1.0  0.60904  0.98195  0.62907  1.0000
  H   H4439     1.0  0.63133  0.95914  0.62641  1.0000
  S   S1117     1.0  0.64739  0.97381  0.56274  1.0000
  H   H4440     1.0  0.59496  0.93855  0.32149  1.0000
  C   C2778     1.0  0.64072  0.88579  0.36706  1.0000
  N   N277      1.0  0.83977  0.77023  0.57774  1.0000
  H   H4441     1.0  0.86675  0.78768  0.48428  1.0000
  C   C2779     1.0  0.67536  0.88689  0.33783  1.0000
  H   H4442     1.0  0.53606  0.97458  0.60886  1.0000
  H   H4443     1.0  0.64438  0.89259  0.37194  1.0000
  H   H4444     1.0  0.63740  0.85758  0.39565  1.0000
  H   H4445     1.0  0.73999  0.88536  0.65276  1.0000
  H   H4446     1.0  0.58536  0.91727  0.32233  1.0000
  S   S1118     1.0  0.50949  0.96744  0.60903  1.0000
  C   C2780     1.0  0.66699  0.96108  0.50778  1.0000
  S   S1119     1.0  0.68072  0.97345  0.56370  1.0000
  S   S1120     1.0  0.93374  0.74816  0.43433  1.0000
  H   H4447     1.0  0.79886  0.97450  0.39800  1.0000
  C   C2781     1.0  0.84292  0.78478  0.57300  1.0000
  C   C2782     1.0  0.93599  0.76588  0.49886  1.0000
  H   H4448     1.0  0.55865  0.93150  0.34261  1.0000
  H   H4449     1.0  0.84883  0.78664  0.58013  1.0000
  H   H4450     1.0  0.70591  0.94372  0.35742  1.0000
  S   S1121     1.0  0.60263  0.97665  0.44565  1.0000
  C   C2783     1.0  0.99464  0.75948  0.55469  1.0000
  Fe  Fe559     1.0  0.66835  0.97645  0.54692  1.0000
  H   H4451     1.0  0.82805  0.75768  0.59635  1.0000
  H   H4452     1.0  0.73411  0.95942  0.59801  1.0000
  Fe  Fe560     1.0  0.65001  0.88359  0.32084  1.0000
  N   N278      1.0  0.71189  0.95228  0.33493  1.0000
  Fe  Fe561     1.0  0.91045  0.74778  0.43656  1.0000
  H   H4453     1.0  0.66623  0.97291  0.41326  1.0000
  C   C2784     1.0  0.71469  0.97356  0.46341  1.0000
  C   C2785     1.0  0.72611  0.95375  0.33612  1.0000
  H   H4454     1.0  0.96154  0.77140  0.49853  1.0000
  C   C2786     1.0  0.69109  0.97218  0.38174  1.0000
  H   H4455     1.0  0.83647  0.76978  0.60007  1.0000
  H   H4456     1.0  0.70150  0.97904  0.44162  1.0000
  C   C2787     1.0  0.59400  0.93480  0.33325  1.0000
  H   H4457     1.0  0.73326  0.98713  0.39220  1.0000
  H   H4458     1.0  0.93630  0.76763  0.50929  1.0000
  Fe  Fe562     1.0  0.61772  0.88412  0.32610  1.0000
  H   H4459     1.0  0.59546  0.90699  0.33562  1.0000
  H   H4460     1.0  0.69988  0.97796  0.37537  1.0000
  H   H4461     1.0  0.68129  0.96626  0.46915  1.0000
  C   C2788     1.0  0.53274  0.95484  0.64285  1.0000
  H   H4462     1.0  0.75818  0.86097  0.62788  1.0000
  C   C2789     1.0  0.79181  0.97797  0.40787  1.0000
  H   H4463     1.0  0.52449  0.98036  0.65098  1.0000
  H   H4464     1.0  0.63051  0.99013  0.53568  1.0000
  H   H4465     1.0  0.69962  0.96627  0.40627  1.0000
  H   H4466     1.0  0.74800  0.85562  0.64584  1.0000
  H   H4467     1.0  0.79798  0.98359  0.41157  1.0000
  H   H4468     1.0  0.67776  0.95763  0.40650  1.0000
  C   C2790     1.0  0.90745  0.74441  0.47182  1.0000
  H   H4469     1.0  0.73080  0.94464  0.34418  1.0000
  H   H4470     1.0  0.69535  0.96375  0.32304  1.0000
  H   H4471     1.0  0.62206  0.98557  0.52418  1.0000
  C   C2791     1.0  0.76990  0.97954  0.40034  1.0000
  S   S1122     1.0  0.62607  0.98801  0.36421  1.0000
  H   H4472     1.0  0.87917  0.97790  0.45256  1.0000
  C   C2792     1.0  0.75146  0.86496  0.63762  1.0000
  S   S1123     1.0  0.61321  0.98937  0.47393  1.0000
  C   C2793     1.0  0.67523  0.99300  0.39026  1.0000
  N   N279      1.0  0.75960  0.87209  0.64298  1.0000
  N   N280      1.0  0.87946  0.99182  0.46555  1.0000
  H   H4473     1.0  0.50907  0.97496  0.64939  1.0000
  H   H4474     1.0  0.67923  0.98899  0.47572  1.0000
  C   C2794     1.0  0.69125  0.98610  0.47489  1.0000
  H   H4475     1.0  0.88388  0.98236  0.48654  1.0000
  C   C2795     1.0  0.70619  0.96443  0.32399  1.0000
  H   H4476     1.0  0.71391  0.98691  0.57244  1.0000
  Fe  Fe563     1.0  0.64498  0.99231  0.34631  1.0000
  H   H4477     1.0  0.71414  0.98954  0.59645  1.0000
  H   H4478     1.0  0.75924  0.98633  0.39823  1.0000
  C   C2796     1.0  0.75269  0.96308  0.65302  1.0000
  C   C2797     1.0  0.76882  0.99173  0.41855  1.0000
  H   H4479     1.0  0.95739  0.74705  0.51055  1.0000
  C   C2798     1.0  0.52968  0.99192  0.62000  1.0000
  H   H4480     1.0  0.54075  0.99225  0.61948  1.0000
  H   H4481     1.0  0.89726  0.99300  0.44709  1.0000
  C   C2799     1.0  0.89473  0.99292  0.45870  1.0000
  H   H4482     1.0  0.69501  0.99290  0.64313  1.0000
  H   H4483     1.0  0.69047  0.90707  0.65345  1.0000
  H   H4484     1.0  0.72162  0.93800  0.32041  1.0000
  C   C2800     1.0  0.51885  0.98121  0.86275  1.0000
  C   C2801     1.0  0.50722  0.88146  0.90671  1.0000
  S   S1124     1.0  0.52100  0.81960  0.94316  1.0000
  Fe  Fe564     1.0  0.51836  0.92282  0.83059  1.0000
  H   H4485     1.0  0.59564  0.96836  0.72141  1.0000
  S   S1125     1.0  0.53387  0.91312  0.81265  1.0000
  C   C2802     1.0  0.67565  0.93581  0.67404  1.0000
  H   H4486     1.0  0.50960  0.92540  0.88633  1.0000
  H   H4487     1.0  0.54627  0.92005  0.89370  1.0000
  H   H4488     1.0  0.53573  0.87187  0.85292  1.0000
  S   S1126     1.0  0.51654  0.89846  0.88087  1.0000
  N   N281      1.0  0.55176  0.81699  0.87633  1.0000
  H   H4489     1.0  0.62553  0.80104  0.77414  1.0000
  S   S1127     1.0  0.52615  0.92720  0.84767  1.0000
  Fe  Fe565     1.0  0.54781  0.83442  0.82426  1.0000
  S   S1128     1.0  0.53747  0.83918  0.80557  1.0000
  S   S1129     1.0  0.54052  0.84735  0.84104  1.0000
  Fe  Fe566     1.0  0.57091  0.80931  0.81535  1.0000
  S   S1130     1.0  0.56287  0.81186  0.79564  1.0000
  S   S1131     1.0  0.59175  0.79368  0.81939  1.0000
  Fe  Fe567     1.0  0.56062  0.83556  0.79295  1.0000
  S   S1132     1.0  0.56718  0.84932  0.77105  1.0000
  Fe  Fe568     1.0  0.54055  0.81521  0.80992  1.0000
  S   S1133     1.0  0.52460  0.80301  0.80937  1.0000
  S   S1134     1.0  0.57068  0.83271  0.81139  1.0000
  S   S1135     1.0  0.54875  0.81075  0.82995  1.0000
  C   C2803     1.0  0.68526  0.90299  0.66436  1.0000
  Fe  Fe569     1.0  0.60345  0.92572  0.72181  1.0000
  S   S1136     1.0  0.61075  0.92306  0.74189  1.0000
  S   S1137     1.0  0.58131  0.93946  0.71997  1.0000
  Fe  Fe570     1.0  0.63223  0.90832  0.70805  1.0000
  S   S1138     1.0  0.64192  0.90406  0.72712  1.0000
  S   S1139     1.0  0.64394  0.90234  0.68684  1.0000
  Fe  Fe571     1.0  0.61988  0.90010  0.73997  1.0000
  S   S1140     1.0  0.61627  0.88355  0.76069  1.0000
  Fe  Fe572     1.0  0.63180  0.92735  0.72732  1.0000
  S   S1141     1.0  0.64431  0.94284  0.72834  1.0000
  S   S1142     1.0  0.61090  0.90247  0.72083  1.0000
  S   S1143     1.0  0.62374  0.93195  0.70730  1.0000
  C   C2804     1.0  0.60257  0.76753  0.83511  1.0000
  H   H4490     1.0  0.51114  0.97488  0.66670  1.0000
  S   S1144     1.0  0.75239  0.94467  0.65730  1.0000
  H   H4491     1.0  0.62898  0.83221  0.77009  1.0000
  H   H4492     1.0  0.66831  0.93214  0.66974  1.0000
  H   H4493     1.0  0.61248  0.76787  0.82689  1.0000
  H   H4494     1.0  0.53355  0.89768  0.84173  1.0000
  H   H4495     1.0  0.68886  0.93557  0.69444  1.0000
  H   H4496     1.0  0.60560  0.81813  0.80486  1.0000
  N   N282      1.0  0.70045  0.99217  0.66286  1.0000
  H   H4497     1.0  0.54991  0.83509  0.88507  1.0000
  H   H4498     1.0  0.61925  0.79791  0.79325  1.0000
  Fe  Fe573     1.0  0.71865  0.91582  0.65468  1.0000
  C   C2805     1.0  0.66313  0.89913  0.68225  1.0000
  C   C2806     1.0  0.67011  0.90405  0.66807  1.0000
  H   H4499     1.0  0.61556  0.97920  0.69310  1.0000
  C   C2807     1.0  0.69359  0.89659  0.67474  1.0000
  C   C2808     1.0  0.68673  0.89094  0.68877  1.0000
  C   C2809     1.0  0.67149  0.89237  0.69257  1.0000
  H   H4500     1.0  0.51756  0.87405  0.90425  1.0000
  C   C2810     1.0  0.61582  0.98583  0.73716  1.0000
  H   H4501     1.0  0.69313  0.88586  0.69682  1.0000
  H   H4502     1.0  0.66619  0.88837  0.70350  1.0000
  H   H4503     1.0  0.64930  0.95218  0.69834  1.0000
  C   C2811     1.0  0.69491  0.97909  0.67088  1.0000
  C   C2812     1.0  0.63926  0.97152  0.72765  1.0000
  C   C2813     1.0  0.63326  0.95931  0.73180  1.0000
  C   C2814     1.0  0.61854  0.96038  0.73861  1.0000
  C   C2815     1.0  0.60988  0.97358  0.74147  1.0000
  Fe  Fe574     1.0  0.54315  0.76211  0.90283  1.0000
  H   H4504     1.0  0.65068  0.97072  0.72249  1.0000
  H   H4505     1.0  0.61389  0.95099  0.74199  1.0000
  H   H4506     1.0  0.59855  0.97431  0.74694  1.0000
  C   C2816     1.0  0.58057  0.85907  0.76835  1.0000
  C   C2817     1.0  0.58506  0.86058  0.77987  1.0000
  C   C2818     1.0  0.59625  0.86786  0.77739  1.0000
  C   C2819     1.0  0.60269  0.87403  0.76340  1.0000
  C   C2820     1.0  0.59810  0.87265  0.75189  1.0000
  C   C2821     1.0  0.58707  0.86517  0.75437  1.0000
  H   H4507     1.0  0.57981  0.85630  0.79069  1.0000
  H   H4508     1.0  0.59970  0.86898  0.78635  1.0000
  H   H4509     1.0  0.60316  0.87716  0.74106  1.0000
  H   H4510     1.0  0.58365  0.86402  0.74540  1.0000
  C   C2822     1.0  0.66526  0.92524  0.69832  1.0000
  S   S1145     1.0  0.54608  0.74563  0.89023  1.0000
  C   C2823     1.0  0.63051  0.98482  0.73019  1.0000
  C   C2824     1.0  0.59128  0.97243  0.71150  1.0000
  C   C2825     1.0  0.51905  0.92108  0.90989  1.0000
  C   C2826     1.0  0.52595  0.94395  0.89869  1.0000
  H   H4511     1.0  0.54103  0.93047  0.87729  1.0000
  H   H4512     1.0  0.52364  0.99146  0.87680  1.0000
  H   H4513     1.0  0.50704  0.94934  0.65874  1.0000
  C   C2827     1.0  0.51026  0.81273  0.80081  1.0000
  H   H4514     1.0  0.67858  0.94560  0.66631  1.0000
  Fe  Fe575     1.0  0.50819  0.94699  0.84653  1.0000
  C   C2828     1.0  0.59038  0.77892  0.83409  1.0000
  C   C2829     1.0  0.57758  0.77836  0.84479  1.0000
  C   C2830     1.0  0.57701  0.76643  0.85645  1.0000
  C   C2831     1.0  0.61020  0.82555  0.79500  1.0000
  H   H4515     1.0  0.56813  0.78705  0.84407  1.0000
  H   H4516     1.0  0.56709  0.76599  0.86465  1.0000
  H   H4517     1.0  0.59456  0.80962  0.78998  1.0000
  H   H4518     1.0  0.62043  0.82719  0.79649  1.0000
  S   S1146     1.0  0.52759  0.78324  0.89821  1.0000
  H   H4519     1.0  0.63405  0.80696  0.78462  1.0000
  C   C2832     1.0  0.57859  0.95468  0.67299  1.0000
  C   C2833     1.0  0.56921  0.96229  0.68315  1.0000
  C   C2834     1.0  0.56982  0.95735  0.69762  1.0000
  C   C2835     1.0  0.58016  0.94505  0.70193  1.0000
  C   C2836     1.0  0.58976  0.93758  0.69176  1.0000
  C   C2837     1.0  0.58882  0.94227  0.67733  1.0000
  H   H4520     1.0  0.55315  0.79582  0.88992  1.0000
  H   H4521     1.0  0.56237  0.96316  0.70545  1.0000
  H   H4522     1.0  0.59778  0.92806  0.69502  1.0000
  H   H4523     1.0  0.59614  0.93635  0.66953  1.0000
  C   C2838     1.0  0.53849  0.89469  0.82016  1.0000
  C   C2839     1.0  0.54281  0.88460  0.81156  1.0000
  C   C2840     1.0  0.54425  0.86988  0.81793  1.0000
  C   C2841     1.0  0.54132  0.86530  0.83287  1.0000
  C   C2842     1.0  0.53785  0.87534  0.84138  1.0000
  C   C2843     1.0  0.53648  0.89000  0.83503  1.0000
  H   H4524     1.0  0.54428  0.88817  0.80007  1.0000
  H   H4525     1.0  0.54709  0.86218  0.81126  1.0000
  H   H4526     1.0  0.74635  0.86888  0.66443  1.0000
  Fe  Fe576     1.0  0.50893  0.91611  0.86299  1.0000
  H   H4527     1.0  0.52955  0.82381  0.88723  1.0000
  C   C2844     1.0  0.59900  0.81768  0.78071  1.0000
  H   H4528     1.0  0.50926  0.77194  0.92608  1.0000
  C   C2845     1.0  0.65494  0.94973  0.68766  1.0000
  C   C2846     1.0  0.52245  0.80934  0.93092  1.0000
  C   C2847     1.0  0.53349  0.79688  0.93025  1.0000
  C   C2848     1.0  0.52548  0.79307  0.91098  1.0000
  H   H4529     1.0  0.53197  0.95724  0.67640  1.0000
  H   H4530     1.0  0.50573  0.78659  0.84802  1.0000
  H   H4531     1.0  0.54088  0.79354  0.93744  1.0000
  H   H4532     1.0  0.52741  0.91779  0.91646  1.0000
  C   C2849     1.0  0.76119  0.96760  0.65936  1.0000
  H   H4533     1.0  0.56759  0.80423  0.88871  1.0000
  H   H4534     1.0  0.54475  0.96228  0.66002  1.0000
  C   C2850     1.0  0.51293  0.81364  0.92161  1.0000
  C   C2851     1.0  0.55967  0.81138  0.86334  1.0000
  C   C2852     1.0  0.67851  0.94377  0.69367  1.0000
  H   H4535     1.0  0.75561  0.88345  0.65971  1.0000
  H   H4536     1.0  0.50630  0.76197  0.91505  1.0000
  C   C2853     1.0  0.60192  0.75554  0.84656  1.0000
  H   H4537     1.0  0.50858  0.78175  0.82434  1.0000
  H   H4538     1.0  0.65720  0.92146  0.69516  1.0000
  H   H4539     1.0  0.68582  0.92726  0.67424  1.0000
  H   H4540     1.0  0.66062  0.92667  0.70943  1.0000
  H   H4541     1.0  0.64719  0.94605  0.68389  1.0000
  H   H4542     1.0  0.59674  0.96452  0.70458  1.0000
  H   H4543     1.0  0.52910  0.95168  0.88845  1.0000
  H   H4544     1.0  0.50454  0.82336  0.92193  1.0000
  H   H4545     1.0  0.51668  0.85754  0.82620  1.0000
  H   H4546     1.0  0.68136  0.95382  0.68642  1.0000
  H   H4547     1.0  0.61078  0.84061  0.76780  1.0000
  H   H4548     1.0  0.54338  0.77896  0.92004  1.0000
  H   H4549     1.0  0.62095  0.82600  0.75939  1.0000
  C   C2854     1.0  0.51214  0.93499  0.88788  1.0000
  H   H4550     1.0  0.60230  0.83611  0.79428  1.0000
  C   C2855     1.0  0.61868  0.83007  0.76930  1.0000
  C   C2856     1.0  0.53487  0.78861  0.92043  1.0000
  H   H4551     1.0  0.51560  0.94164  0.87705  1.0000
  H   H4552     1.0  0.67339  0.94600  0.70456  1.0000
  C   C2857     1.0  0.62343  0.80581  0.78357  1.0000
  C   C2858     1.0  0.51455  0.80559  0.91154  1.0000
  H   H4553     1.0  0.65709  0.95994  0.68015  1.0000
  C   C2859     1.0  0.50473  0.85878  0.82762  1.0000
  S   S1147     1.0  0.51289  0.96834  0.84496  1.0000
  H   H4554     1.0  0.55711  0.81929  0.85350  1.0000
  C   C2860     1.0  0.76159  0.98216  0.65641  1.0000
  H   H4555     1.0  0.76944  0.85235  0.65575  1.0000
  H   H4556     1.0  0.51585  0.94978  0.90500  1.0000
  H   H4557     1.0  0.54343  0.94386  0.66670  1.0000
  H   H4558     1.0  0.67525  0.91652  0.69865  1.0000
  H   H4559     1.0  0.59055  0.82786  0.78018  1.0000
  H   H4560     1.0  0.57947  0.97228  0.71468  1.0000
  H   H4561     1.0  0.54965  0.81002  0.89912  1.0000
  C   C2861     1.0  0.51003  0.97298  0.86136  1.0000
  N   N283      1.0  0.61284  0.81979  0.78213  1.0000
  N   N284      1.0  0.66858  0.93866  0.68843  1.0000
  H   H4562     1.0  0.51111  0.86815  0.84742  1.0000
  H   H4563     1.0  0.60040  0.81384  0.77085  1.0000
  H   H4564     1.0  0.51278  0.88382  0.82318  1.0000
  H   H4565     1.0  0.50860  0.92627  0.91627  1.0000
  H   H4566     1.0  0.51033  0.75027  0.94584  1.0000
  C   C2862     1.0  0.50460  0.82741  0.80048  1.0000
  S   S1148     1.0  0.57761  0.96071  0.65490  1.0000
  N   N285      1.0  0.56793  0.91139  0.76885  1.0000
  C   C2863     1.0  0.57227  0.90037  0.78125  1.0000
  C   C2864     1.0  0.55194  0.91416  0.77057  1.0000
  C   C2865     1.0  0.57534  0.90621  0.75554  1.0000
  C   C2866     1.0  0.57215  0.92483  0.76805  1.0000
  H   H4567     1.0  0.58428  0.89801  0.78033  1.0000
  H   H4568     1.0  0.56930  0.89006  0.78212  1.0000
  H   H4569     1.0  0.56677  0.90389  0.79150  1.0000
  H   H4570     1.0  0.54826  0.92248  0.76144  1.0000
  H   H4571     1.0  0.54842  0.90421  0.77119  1.0000
  H   H4572     1.0  0.54601  0.91798  0.78059  1.0000
  H   H4573     1.0  0.57249  0.91434  0.74591  1.0000
  H   H4574     1.0  0.57235  0.89611  0.75571  1.0000
  H   H4575     1.0  0.58742  0.90387  0.75402  1.0000
  H   H4576     1.0  0.56943  0.93326  0.75855  1.0000
  H   H4577     1.0  0.58411  0.92299  0.76713  1.0000
  H   H4578     1.0  0.56649  0.92924  0.77778  1.0000
  N   N286      1.0  0.52364  0.93086  0.89609  1.0000
  H   H4579     1.0  0.72208  0.98245  0.66651  1.0000
  C   C2867     1.0  0.51562  0.94772  0.66474  1.0000
  H   H4580     1.0  0.53250  0.82768  0.86806  1.0000
  H   H4581     1.0  0.53249  0.80961  0.87817  1.0000
  C   C2868     1.0  0.53690  0.95513  0.66549  1.0000
  H   H4582     1.0  0.66371  0.90911  0.66001  1.0000
  H   H4583     1.0  0.56133  0.97188  0.67993  1.0000
  S   S1149     1.0  0.56695  0.75999  0.90095  1.0000
  H   H4584     1.0  0.57169  0.80897  0.86220  1.0000
  C   C2869     1.0  0.55573  0.80631  0.88908  1.0000
  C   C2870     1.0  0.55572  0.83061  0.87540  1.0000
  H   H4585     1.0  0.56764  0.82906  0.87439  1.0000
  S   S1150     1.0  0.71244  0.89612  0.67049  1.0000
  H   H4586     1.0  0.55664  0.80127  0.86360  1.0000
  C   C2871     1.0  0.53587  0.81965  0.87750  1.0000
  H   H4587     1.0  0.55277  0.83895  0.86594  1.0000
  H   H4588     1.0  0.61132  0.74669  0.84708  1.0000
  C   C2872     1.0  0.58917  0.75494  0.85725  1.0000
  N   N287      1.0  0.59368  0.98700  0.70409  1.0000
  H   H4589     1.0  0.50966  0.83320  0.80470  1.0000
  H   H4590     1.0  0.70341  0.96917  0.66923  1.0000
  S   S1151     1.0  0.71472  0.93606  0.66235  1.0000
  C   C2873     1.0  0.50597  0.98062  0.88742  1.0000
  H   H4591     1.0  0.59307  0.98417  0.68365  1.0000
  H   H4592     1.0  0.69157  0.97875  0.68257  1.0000
  C   C2874     1.0  0.58791  0.99178  0.69093  1.0000
  N   N288      1.0  0.52563  0.95757  0.65730  1.0000
  H   H4593     1.0  0.53470  0.94133  0.90471  1.0000
  H   H4594     1.0  0.68533  0.97862  0.66722  1.0000
  H   H4595     1.0  0.61414  0.98311  0.71001  1.0000
  C   C2875     1.0  0.75003  0.87766  0.65552  1.0000
  C   C2876     1.0  0.53732  0.92342  0.88782  1.0000
  H   H4596     1.0  0.61002  0.74841  0.90178  1.0000
  H   H4597     1.0  0.59788  0.74341  0.89448  1.0000
  H   H4598     1.0  0.53585  0.91357  0.88559  1.0000
  C   C2877     1.0  0.51675  0.98513  0.87573  1.0000
  H   H4599     1.0  0.76816  0.98552  0.66144  1.0000
  H   H4600     1.0  0.51731  0.91107  0.90821  1.0000
  H   H4601     1.0  0.52151  0.93625  0.66589  1.0000
  C   C2878     1.0  0.51722  0.97260  0.65606  1.0000
  S   S1152     1.0  0.54009  0.74702  0.92430  1.0000
  C   C2879     1.0  0.71333  0.99226  0.66780  1.0000
  H   H4602     1.0  0.50985  0.94956  0.67562  1.0000
  H   H4603     1.0  0.50801  0.79398  0.79551  1.0000
  H   H4604     1.0  0.50739  0.80910  0.90413  1.0000
  H   H4605     1.0  0.76746  0.95980  0.66662  1.0000
  C   C2880     1.0  0.60947  0.98670  0.70031  1.0000
  H   H4606     1.0  0.52748  0.98434  0.85386  1.0000
  H   H4607     1.0  0.71047  0.99271  0.67930  1.0000
  H   H4608     1.0  0.57591  0.99256  0.69340  1.0000
