data_image0
_chemical_formula_structural       H2SHC2NH2CNC2SHC3HCFeHCH2CH2FeH2CSH2FeCH9FeS4H3FeSHFeS2FeSFeHS2H2C7H2CHC6H4CFeH3S2HCHC3H2C3H4SHCSHFeNSCFeH2CSFeCHSHCNHCNC4H13CH2SCH2SHCHFeH2CHCHCFeSHCH3C2H3SH4C2SHNHCH2C2FeHS2CFeH2FeHCFeH2FeSH2FeH3C2HCHSCH3FeHSC2HNCS2HCHSH2SHC2SCH4FeC2H4C4HNCSC2HFeH2CFeCSHCSCHCH2FeS2FeSCFeHCSHC3H4CHS2C4SFeCSH5CH3C4HNHCHCH4C2SC4HC2HCFeHC3H2CH3SH3SNHFeHS2H4CSH2C2HSFeCSH4C2NFeC2H2FeHSHCHFeH2SCSHCH2CH3SCH5C2H2FeSH2SFeS3H2CHFeS2FeSCFeSFeSHSH3SHCHCFeHCHFeS2FeS2FeSFeS3C6H3SCHC2H6FeCH2C6H5CH2SCH3C2HCH2CSH5CH2CFeCH2C6H4C6H5CNHC2FeH11NCH3NHNHC2FeH2SCHCHNSHC3H5CS2HC2H2CHC2H2C2H7CSH2NC4HCH2FeHCH3SNCNH2CSHCSNHSHCH7CSH2SHC2HCHSH2FeNH2CHC2H2C3SHFeHCH5C2HCH7SHC2H3CH3CH4C3HCHSCH3NHCHCHNH3C2HCH2FeSHSHC4HCH3SH3SH2CHFeS2FeHFeHS2H4CHFeSHSFeS2N2HC4H7SHC6H5C2HSC4SH3CSH4CHCHC3HCHCFeH2CFeC2SC2H3SC2NC2H2CH2C2HSHCHCH5CHCHCHSHCH2CHNCHC2H2C2HCH5CNC3SCH3FeH2S2CFeH2CNH2SH2FeH4SH2CHCHFeH3SCHSCHSCFeSH2SH2NSH2SC2H2FeHFeSCNSFeS2FeCHSHSH5CH3SC2HFeS3CHCS2C3FeCSH5C2SH4FeC3H2FeCHNH2C6H4C2H6C2H2SH2SH4S2HCFeC2H2SC4HCNHC2SHCH5C3HSNCH8SCH3C2NC4H13C3H3CH2CHCSH3FeCHCHSFeCFeHC4H6SHCHFe2H2C2FeHC6H3CSCNHSC2HCH5SH3C2H4SCH3CH2CSFeCHSHCHSH2CSHCHCNHFeCS2HC2HS2HCFeCH3CH5C3H4CFeSHC2HCHFeHCH3C2H3SC2H3SH3SCH4FeCNHNC2SCHSNSHC2H3FeS2HSFeCHC2H3FeC3HCSC2HCHCH5NHCHC2H2S2CSFeHFeCHCHSFeS2H2NHFeS2FeS2FeSFeS3FeS2FeS2FeSFeS3C2HC6H4C2NC2SH3C4H3C6H6C6H4C6H3CHFeCH3SHCFe2NC4SCH10FeHCHNC4H3SH5FeH9CSHS2C2SH3SC3HFeCNH3NC2H2C2H4CSH2SHNC4H12CH6SFeHC2HCH2CH2SH2CH2C6H2NCFeHSCH2CHCH5C2H6C2SCH3CH5CH7C2FeCH2CH4FeCS2HSHS2H3CH2SC4HSFeHSCSCH2SH2CFeSCNHFeCHS2H2CHFeSFe2C2HC5H3CHC3HCHSH2CSH2NH2SFeHSHCFeS2FeS2FeHFeS3FeS2FeS2FeSHS2FeSCH3NHFeH5SC2SCFeSFeSHSFeSFeCSFeS2HC6H4C6HC4Fe2CH5C2HCH3SCH2CHCHNHCH5C6H4C6H3CH3C2H2CH2CHC6H5C2H3FeCFeH6CH2C2H2CH4C2H2NC3H4SCH5CNC3H7SH3NHC2H2CHSHSH2NSCHSCHCSH7SHCH3C2HCFeNCNHSH4CHFeCH4SCFeHCHCNH6C3HCHCSH9CH4C2HC2H2C2HSHCHSCH2SH3SH2SH3NH2NHC2HCSCHC4H3CHC2HSH3FeCH2SFeSH3FeSCHS2FeSFeS2CS2CHNH7CHFeSCHC2H3C6H4CFeNC4H3CSCHNHCH4CHFeHCSCH3CHC2HC2H3SHNH3CH2CS2HSH2FeSHCHFeCH4C2HCSCH3CNH2C3HFe2SH2SHCHSFeSHCH7C2SHFeSC2SFeSCFeS2H4CH3CHSHCSC2HFeSC2SHFeS2FeS2FeSFeS2H2CNCHSH2C4H2FeC6H8CHNH2CHCH2CH2CH3CHFeCHC6H4CHSC3H3NC4H12FeH4SCHNCH3NS2HC2HFeC2HC2H2CH3C2HC2HCN2C3H3SHFeCHCSHFeHC2SH2CHCH2SCHSHC2HS2H3SH2NH2SC2H3CHFeCSHCH4CH2C3HC2H2C3HCH2CH3CNSH3CHNSHFeCH4SCH2CH6FeHS2HS2CH3C2SC2H2FeSHCS2HSFeCSHSH6CH3NH2SHCHCHCH2FeHCHC2HCH2NFeHC2HNHC2HCHFeC6H4C3NH6CH3CH2CH2FeCHCH3CH2CS4H2CHFeH2CH2CNH4C3HCH7C2HSCH11FeS2FeSCHS2FeCFe2S2FeS2FeS2FeSFeS3H2S2C2H2CHFeS2H7CH2CSFeS2CSH2SH2C2H6FeH4FeH5S2H2C6H4C6H4C6H4C3HC2H3SC2SCHCH2CHC6H4SC5H3NC2H5NH2CH3CNH6FeHNC4H11NH2FeHCHCHCH2NC4H6CHCFe2HNC3H11CHC5HCH2SHC3SHNHCHCSC2HSCSHFeHFeSH2C2HCNSFe2S2Fe2S3H2FeHFeS2FeSFeS3H7CH2C2HC3HFeC5H2SC6H2C4FeS2H3NHC7H6CHSH2CHC4HNC3HSNC3H5CHSH5NC4H12CSHCSHC3HNH2S2H9SH3C2SH4CHCHFeHCH5CH2SH2SH2CHCH2SCHC2H2CH3FeCHCH2FeSFeHSHFeSFeS3CSHFeS2FeSFeS3FeS2FeSFeSHS2C2NH3CNSC6H4C3H2C6H4C6H6CHC2HC6H4CH3CHC3FeH2C2SH3NC4H18SC3SHSH2CH2CHCNC2H7CNFe2HFeH2CH5SH3CHCHCH7N2H2CHSCHC3H3CHCSHCSCHSH2C2HC2H2CH2CH2CHSHC2SCH3SH3SCH4Fe2H2SH3FeCH2NH6CHCHC4FeH2C2S2CSHN2SHSCH2SFeSFeHFeS2FeS2FeSFeS3C2HC6H5SCHCHFeCH3C5H2SHCH2CH3CHC6H7CH2CH7C2HCH2C3NH7SH2CH3C4FeCSH10SCHSH2CHFeH2FeSH2FeCHC2H2CHC2HSH3NC4H6CHCH2FeCHC2H3SC2SC5HC3H2SHFeHCNCH5CN2CSCSC2SCH3CH3NHCSH5CH3NHCHCH2CH2CH9SHCHCHFeCHFeH4CHC2NH2SCSCH7NFeCH3CHCFeNCH2CHNH4CHFeCH5CSHC5H3SCSHCHC2HCH2CSH3CHCHCH7CHCH5CH2FeS2FeS2FeSFeS3FeS2FeS2Fe2S3HC2HCH5C2H3CH7CHC2H4NCHNHCNH2CH4CHC3H3CHNH2CH3CHSHNH4C7HC2H4CH2CNH2CH2C6H4C6H4C6H2CSHC4H2SC2H4CH4CNC4H13CH3C2HC2H2NCH6CH8CSH10CNH2NCHCHSCHFeHFeCSFeHNHS2FeSHCSHFeSFeS2H2CNCSCFeCH3C3H4SH3C2NH4C6H4SH2SHCHCSCHC2HFeC4H3C3HCH2SH5CHSFeHCFeCNSCH2SHCHFeCHNC4H12CSH2CH3CH2CH2FeHCHSCSH2SH3CHCSFeH2FeS2FeS2FeSFeS4HCSCHNFeH3CFeSFeS2FeSFeS5FeSFeSC4HCHC2HCHC4NH6SH2CH4SH2C6H6FeNHCHFeNSC6H4C2HC3HNH2C4HFeSCSHCSCH3CH2SHNC4S2H10C2H2SH2NC2H7C2H3CHCHC3FeCHCHSH4SHC3NH2CHC3FeHC2H2C2SH3C2H2CH4CHCHFeH2CH2CH8CHNSCH2CH3CHC2H4CFeS2FeSFeSFeS3HNHCH6C2HSH2NH2FeCH4C3H2CHNHC2HC2H2CH3CH2CSHC5H3C4HC2Fe2H4FeHS3HC3H3S2C2H7SC2HCSH6C2SH2CHCH6CH2CH2CH4C
_chemical_formula_sum              "H2304 S576 C1440 N144 Fe288"
_cell_length_a       71.5632
_cell_length_b       72.206
_cell_length_c       72.8021
_cell_angle_alpha    77.7722
_cell_angle_beta     77.8754
_cell_angle_gamma    77.9288

_space_group_name_H-M_alt    "P 1"
_space_group_IT_number       1

loop_
  _space_group_symop_operation_xyz
  'x, y, z'

loop_
  _atom_site_type_symbol
  _atom_site_label
  _atom_site_symmetry_multiplicity
  _atom_site_fract_x
  _atom_site_fract_y
  _atom_site_fract_z
  _atom_site_occupancy
  H   H1        1.0  0.43711  0.21165  0.22535  1.0000
  H   H2        1.0  0.47230  0.00758  0.27068  1.0000
  S   S1        1.0  0.46197  0.20685  0.29872  1.0000
  H   H3        1.0  0.45727  0.20135  0.20909  1.0000
  C   C1        1.0  0.47137  0.14315  0.26891  1.0000
  C   C2        1.0  0.46506  0.13695  0.25467  1.0000
  N   N1        1.0  0.44720  0.02834  0.26428  1.0000
  H   H4        1.0  0.43296  0.02321  0.29360  1.0000
  H   H5        1.0  0.42039  0.04390  0.25588  1.0000
  C   C3        1.0  0.47847  0.12948  0.28377  1.0000
  N   N2        1.0  0.46482  0.21762  0.22717  1.0000
  C   C4        1.0  0.44188  0.03327  0.28361  1.0000
  C   C5        1.0  0.45270  0.20488  0.22370  1.0000
  S   S2        1.0  0.46956  0.16819  0.26730  1.0000
  H   H6        1.0  0.46085  0.11284  0.24397  1.0000
  C   C6        1.0  0.45814  0.22194  0.24669  1.0000
  C   C7        1.0  0.45863  0.00867  0.26524  1.0000
  C   C8        1.0  0.47280  0.10360  0.26983  1.0000
  H   H7        1.0  0.42025  0.01891  0.26592  1.0000
  C   C9        1.0  0.48529  0.20786  0.22517  1.0000
  Fe  Fe1       1.0  0.48162  0.18252  0.28584  1.0000
  H   H8        1.0  0.43370  0.04821  0.28347  1.0000
  C   C10       1.0  0.46581  0.11735  0.25510  1.0000
  H   H9        1.0  0.45382  0.19101  0.23400  1.0000
  H   H10       1.0  0.48437  0.09911  0.29581  1.0000
  C   C11       1.0  0.45890  0.04221  0.25163  1.0000
  H   H11       1.0  0.46269  0.00425  0.25099  1.0000
  H   H12       1.0  0.46313  0.03908  0.23686  1.0000
  Fe  Fe2       1.0  0.48461  0.05663  0.29259  1.0000
  H   H13       1.0  0.43284  0.02564  0.24209  1.0000
  H   H14       1.0  0.45500  0.03233  0.28981  1.0000
  C   C12       1.0  0.42937  0.02924  0.25669  1.0000
  S   S3        1.0  0.47302  0.07916  0.26947  1.0000
  H   H15       1.0  0.47250  0.04191  0.25691  1.0000
  H   H16       1.0  0.45046  0.99787  0.27510  1.0000
  Fe  Fe3       1.0  0.48599  0.22378  0.28556  1.0000
  C   C13       1.0  0.47918  0.10964  0.28424  1.0000
  H   H17       1.0  0.45950  0.14738  0.24321  1.0000
  H   H18       1.0  0.45089  0.05728  0.25088  1.0000
  H   H19       1.0  0.44293  0.22978  0.24861  1.0000
  H   H20       1.0  0.45874  0.20856  0.25756  1.0000
  H   H21       1.0  0.48303  0.13421  0.29499  1.0000
  H   H22       1.0  0.46734  0.23098  0.25006  1.0000
  H   H23       1.0  0.48709  0.19417  0.23562  1.0000
  H   H24       1.0  0.49079  0.20426  0.21066  1.0000
  H   H25       1.0  0.46855  0.23319  0.19831  1.0000
  Fe  Fe4       1.0  0.40272  0.03076  0.56386  1.0000
  S   S4        1.0  0.37432  0.04541  0.55518  1.0000
  S   S5        1.0  0.42886  0.01700  0.54552  1.0000
  S   S6        1.0  0.40521  0.05344  0.57954  1.0000
  S   S7        1.0  0.38941  0.01220  0.58991  1.0000
  H   H26       1.0  0.36760  0.14408  0.51511  1.0000
  H   H27       1.0  0.43079  0.19898  0.33649  1.0000
  H   H28       1.0  0.33922  0.16111  0.50003  1.0000
  Fe  Fe5       1.0  0.39742  0.02287  0.44989  1.0000
  S   S8        1.0  0.36762  0.01559  0.45608  1.0000
  H   H29       1.0  0.49036  0.03620  0.41303  1.0000
  Fe  Fe6       1.0  0.38875  0.05446  0.41641  1.0000
  S   S9        1.0  0.35845  0.04918  0.41909  1.0000
  S   S10       1.0  0.39964  0.07996  0.39706  1.0000
  Fe  Fe7       1.0  0.35777  0.04782  0.45031  1.0000
  S   S11       1.0  0.33321  0.06384  0.46892  1.0000
  Fe  Fe8       1.0  0.37141  0.01755  0.42438  1.0000
  H   H30       1.0  0.45391  0.10091  0.62409  1.0000
  S   S12       1.0  0.38740  0.05463  0.44737  1.0000
  S   S13       1.0  0.40197  0.02334  0.41849  1.0000
  H   H31       1.0  0.46271  0.98972  0.63920  1.0000
  H   H32       1.0  0.37720  0.21928  0.48071  1.0000
  C   C14       1.0  0.36455  0.11514  0.57463  1.0000
  C   C15       1.0  0.32840  0.08929  0.46440  1.0000
  C   C16       1.0  0.34208  0.10056  0.45357  1.0000
  C   C17       1.0  0.33732  0.12090  0.45072  1.0000
  C   C18       1.0  0.31876  0.12988  0.45831  1.0000
  C   C19       1.0  0.30536  0.11851  0.46917  1.0000
  C   C20       1.0  0.31022  0.09842  0.47242  1.0000
  H   H33       1.0  0.35621  0.09361  0.44738  1.0000
  H   H34       1.0  0.34770  0.12963  0.44231  1.0000
  C   C21       1.0  0.37617  0.21352  0.49580  1.0000
  H   H35       1.0  0.29958  0.08990  0.48079  1.0000
  C   C22       1.0  0.42370  0.07447  0.38579  1.0000
  C   C23       1.0  0.43058  0.05716  0.37894  1.0000
  C   C24       1.0  0.44998  0.05304  0.36998  1.0000
  C   C25       1.0  0.46257  0.06595  0.36846  1.0000
  C   C26       1.0  0.45573  0.08310  0.37558  1.0000
  C   C27       1.0  0.43623  0.08751  0.38396  1.0000
  H   H36       1.0  0.42086  0.04714  0.38023  1.0000
  H   H37       1.0  0.45529  0.03968  0.36461  1.0000
  H   H38       1.0  0.46548  0.09305  0.37448  1.0000
  H   H39       1.0  0.43097  0.10086  0.38932  1.0000
  C   C28       1.0  0.39288  0.06461  0.63650  1.0000
  Fe  Fe9       1.0  0.34590  0.19081  0.60304  1.0000
  H   H40       1.0  0.44894  0.98779  0.48857  1.0000
  H   H41       1.0  0.36487  0.04223  0.51585  1.0000
  H   H42       1.0  0.44969  0.10739  0.57297  1.0000
  S   S14       1.0  0.46448  0.19470  0.35482  1.0000
  S   S15       1.0  0.39953  0.02655  0.63303  1.0000
  H   H43       1.0  0.41982  0.10619  0.62121  1.0000
  C   C29       1.0  0.41266  0.19692  0.39102  1.0000
  H   H44       1.0  0.33130  0.11205  0.49947  1.0000
  C   C30       1.0  0.37566  0.21792  0.52820  1.0000
  C   C31       1.0  0.36684  0.13115  0.50945  1.0000
  C   C32       1.0  0.42593  0.01399  0.52306  1.0000
  H   H45       1.0  0.45603  0.06310  0.60944  1.0000
  H   H46       1.0  0.43785  0.08707  0.57586  1.0000
  C   C33       1.0  0.42270  0.00861  0.48687  1.0000
  C   C34       1.0  0.40879  0.02193  0.49610  1.0000
  C   C35       1.0  0.41035  0.02455  0.51431  1.0000
  H   H47       1.0  0.47152  0.01051  0.41541  1.0000
  H   H48       1.0  0.43201  0.04097  0.44334  1.0000
  H   H49       1.0  0.39703  0.03028  0.48914  1.0000
  H   H50       1.0  0.39988  0.03503  0.52134  1.0000
  S   S16       1.0  0.36014  0.21867  0.43952  1.0000
  H   H51       1.0  0.32350  0.03775  0.53627  1.0000
  C   C36       1.0  0.42585  0.19846  0.35165  1.0000
  S   S17       1.0  0.42162  0.00495  0.46412  1.0000
  H   H52       1.0  0.38393  0.06729  0.62562  1.0000
  Fe  Fe10      1.0  0.35701  0.22304  0.61690  1.0000
  N   N3        1.0  0.46166  0.03516  0.42935  1.0000
  S   S18       1.0  0.36829  0.99340  0.41025  1.0000
  C   C37       1.0  0.36005  0.00652  0.51525  1.0000
  Fe  Fe11      1.0  0.47932  0.01690  0.31486  1.0000
  H   H53       1.0  0.31878  0.03601  0.50397  1.0000
  H   H54       1.0  0.37121  0.00671  0.52378  1.0000
  C   C38       1.0  0.45789  0.10025  0.60856  1.0000
  S   S19       1.0  0.37525  0.23328  0.54414  1.0000
  Fe  Fe12      1.0  0.36087  0.22360  0.57430  1.0000
  C   C39       1.0  0.37700  0.22528  0.50861  1.0000
  H   H55       1.0  0.48246  0.01494  0.44430  1.0000
  S   S20       1.0  0.46489  0.04677  0.31950  1.0000
  H   H56       1.0  0.47119  0.03552  0.45539  1.0000
  C   C40       1.0  0.32545  0.22583  0.52546  1.0000
  N   N4        1.0  0.34485  0.02388  0.51560  1.0000
  H   H57       1.0  0.45955  0.11503  0.60086  1.0000
  C   C41       1.0  0.43985  0.00089  0.51363  1.0000
  N   N5        1.0  0.38131  0.13919  0.39195  1.0000
  C   C42       1.0  0.38248  0.12579  0.41025  1.0000
  C   C43       1.0  0.38417  0.12810  0.37638  1.0000
  C   C44       1.0  0.39657  0.15117  0.38807  1.0000
  C   C45       1.0  0.36204  0.15171  0.39309  1.0000
  H   H58       1.0  0.38019  0.13368  0.42233  1.0000
  H   H59       1.0  0.39690  0.11626  0.40991  1.0000
  H   H60       1.0  0.37140  0.11622  0.41345  1.0000
  H   H61       1.0  0.37333  0.11833  0.37920  1.0000
  H   H62       1.0  0.38288  0.13774  0.36243  1.0000
  H   H63       1.0  0.39877  0.11886  0.37481  1.0000
  H   H64       1.0  0.39608  0.16147  0.37437  1.0000
  H   H65       1.0  0.41133  0.14225  0.38711  1.0000
  H   H66       1.0  0.39478  0.15984  0.39948  1.0000
  H   H67       1.0  0.36071  0.16214  0.37957  1.0000
  H   H68       1.0  0.35945  0.16043  0.40456  1.0000
  H   H69       1.0  0.35012  0.14316  0.39612  1.0000
  H   H70       1.0  0.47162  0.05379  0.40360  1.0000
  C   C46       1.0  0.35687  0.12278  0.60655  1.0000
  H   H71       1.0  0.43822  0.07253  0.62788  1.0000
  H   H72       1.0  0.37311  0.11832  0.51916  1.0000
  S   S21       1.0  0.31096  0.15507  0.45415  1.0000
  C   C47       1.0  0.44341  0.04865  0.43389  1.0000
  H   H73       1.0  0.44699  0.01244  0.42809  1.0000
  H   H74       1.0  0.33468  0.14301  0.53324  1.0000
  S   S22       1.0  0.32957  0.21061  0.62313  1.0000
  H   H75       1.0  0.34114  0.98992  0.44632  1.0000
  C   C48       1.0  0.33512  0.02488  0.53546  1.0000
  H   H76       1.0  0.40769  0.19623  0.40622  1.0000
  Fe  Fe13      1.0  0.47784  0.19608  0.32343  1.0000
  H   H77       1.0  0.33708  0.02236  0.48904  1.0000
  H   H78       1.0  0.39558  0.20198  0.34976  1.0000
  C   C49       1.0  0.43932  0.19598  0.36376  1.0000
  H   H79       1.0  0.32325  0.01014  0.50987  1.0000
  C   C50       1.0  0.39921  0.19941  0.37891  1.0000
  H   H80       1.0  0.36775  0.00539  0.50045  1.0000
  C   C51       1.0  0.44197  0.07299  0.61221  1.0000
  Fe  Fe14      1.0  0.32742  0.22143  0.44556  1.0000
  S   S23       1.0  0.34688  0.15914  0.61472  1.0000
  H   H81       1.0  0.45263  0.02798  0.40574  1.0000
  C   C52       1.0  0.43263  0.19524  0.38345  1.0000
  H   H82       1.0  0.37187  0.99738  0.56221  1.0000
  H   H83       1.0  0.45793  0.01670  0.45674  1.0000
  H   H84       1.0  0.33581  0.22198  0.53565  1.0000
  C   C53       1.0  0.45808  0.02088  0.41920  1.0000
  C   C54       1.0  0.33035  0.02300  0.50417  1.0000
  H   H85       1.0  0.41242  0.09967  0.60170  1.0000
  H   H86       1.0  0.36117  0.04098  0.49251  1.0000
  H   H87       1.0  0.38741  0.16032  0.62056  1.0000
  S   S24       1.0  0.37404  0.20061  0.38769  1.0000
  H   H88       1.0  0.36446  0.13961  0.55176  1.0000
  H   H89       1.0  0.35455  0.11804  0.62186  1.0000
  H   H90       1.0  0.46305  0.08341  0.57781  1.0000
  H   H91       1.0  0.34811  0.14848  0.48041  1.0000
  C   C55       1.0  0.43817  0.99811  0.49566  1.0000
  C   C56       1.0  0.33913  0.14764  0.49494  1.0000
  S   S25       1.0  0.32775  0.19551  0.46889  1.0000
  H   H92       1.0  0.37288  0.17168  0.52725  1.0000
  N   N6        1.0  0.44317  0.09280  0.60194  1.0000
  H   H93       1.0  0.37290  0.19283  0.54998  1.0000
  C   C57       1.0  0.37386  0.19863  0.53490  1.0000
  H   H94       1.0  0.44294  0.19338  0.39292  1.0000
  H   H95       1.0  0.42423  0.12018  0.59773  1.0000
  C   C58       1.0  0.37377  0.18669  0.52201  1.0000
  C   C59       1.0  0.35424  0.14252  0.59899  1.0000
  Fe  Fe15      1.0  0.32980  0.17799  0.44640  1.0000
  H   H96       1.0  0.32830  0.01198  0.54211  1.0000
  S   S26       1.0  0.37511  0.17871  0.48658  1.0000
  S   S27       1.0  0.36216  0.17221  0.44019  1.0000
  C   C60       1.0  0.34323  0.99185  0.57562  1.0000
  Fe  Fe16      1.0  0.37560  0.06700  0.57289  1.0000
  H   H97       1.0  0.43753  0.05619  0.42075  1.0000
  H   H98       1.0  0.34554  0.02574  0.54450  1.0000
  Fe  Fe17      1.0  0.36108  0.02881  0.58277  1.0000
  H   H99       1.0  0.43064  0.06702  0.60801  1.0000
  C   C61       1.0  0.36208  0.10911  0.59441  1.0000
  Fe  Fe18      1.0  0.36002  0.19143  0.46139  1.0000
  H   H100      1.0  0.29098  0.12529  0.47500  1.0000
  H   H101      1.0  0.31382  0.21701  0.53126  1.0000
  Fe  Fe19      1.0  0.38916  0.03621  0.60496  1.0000
  S   S28       1.0  0.33660  0.01264  0.58596  1.0000
  H   H102      1.0  0.37983  0.13948  0.63609  1.0000
  H   H103      1.0  0.47244  0.09095  0.60641  1.0000
  Fe  Fe20      1.0  0.32091  0.23146  0.59752  1.0000
  H   H104      1.0  0.36377  0.09394  0.60038  1.0000
  H   H105      1.0  0.31911  0.12976  0.52675  1.0000
  H   H106      1.0  0.37643  0.13193  0.49523  1.0000
  C   C62       1.0  0.34630  0.11294  0.50083  1.0000
  C   C63       1.0  0.37480  0.19412  0.50246  1.0000
  H   H107      1.0  0.44553  0.05980  0.44134  1.0000
  C   C64       1.0  0.47650  0.04594  0.41708  1.0000
  H   H108      1.0  0.35380  0.99316  0.52122  1.0000
  S   S29       1.0  0.35952  0.05173  0.59995  1.0000
  C   C65       1.0  0.42408  0.10527  0.60578  1.0000
  H   H109      1.0  0.40173  0.98651  0.35065  1.0000
  H   H110      1.0  0.35536  0.16377  0.57327  1.0000
  H   H111      1.0  0.38917  0.09453  0.63872  1.0000
  Fe  Fe21      1.0  0.35933  0.19969  0.41877  1.0000
  H   H112      1.0  0.34279  0.05455  0.50759  1.0000
  S   S30       1.0  0.46115  0.99388  0.31846  1.0000
  C   C66       1.0  0.33446  0.13011  0.52723  1.0000
  C   C67       1.0  0.36233  0.13488  0.56704  1.0000
  H   H113      1.0  0.33971  0.11726  0.53752  1.0000
  N   N7        1.0  0.34668  0.13045  0.50811  1.0000
  C   C68       1.0  0.40590  0.20018  0.35921  1.0000
  S   S31       1.0  0.37364  0.20234  0.59775  1.0000
  S   S32       1.0  0.36996  0.09830  0.55914  1.0000
  H   H114      1.0  0.33342  0.22138  0.51177  1.0000
  C   C69       1.0  0.35725  0.14857  0.57919  1.0000
  H   H115      1.0  0.35183  0.09970  0.51050  1.0000
  S   S33       1.0  0.33452  0.21017  0.57792  1.0000
  H   H116      1.0  0.32398  0.14759  0.49337  1.0000
  H   H117      1.0  0.35542  0.11275  0.48644  1.0000
  S   S34       1.0  0.32653  0.20419  0.42348  1.0000
  H   H118      1.0  0.45192  0.99276  0.52033  1.0000
  C   C70       1.0  0.46866  0.02516  0.44720  1.0000
  C   C71       1.0  0.35384  0.04117  0.50757  1.0000
  S   S35       1.0  0.48717  0.06017  0.35894  1.0000
  C   C72       1.0  0.44869  0.09266  0.58122  1.0000
  H   H119      1.0  0.42352  0.99032  0.62709  1.0000
  H   H120      1.0  0.44936  0.22859  0.33106  1.0000
  H   H121      1.0  0.47967  0.05678  0.42429  1.0000
  H   H122      1.0  0.40477  0.14236  0.63229  1.0000
  Fe  Fe22      1.0  0.48997  0.04606  0.33371  1.0000
  C   C73       1.0  0.40281  0.23330  0.63053  1.0000
  C   C74       1.0  0.36155  0.98775  0.56448  1.0000
  H   H123      1.0  0.44344  0.23333  0.36487  1.0000
  H   H124      1.0  0.47601  0.23279  0.34583  1.0000
  H   H125      1.0  0.39585  0.18582  0.63407  1.0000
  H   H126      1.0  0.36196  0.18100  0.63944  1.0000
  C   C75       1.0  0.38956  0.15021  0.63411  1.0000
  C   C76       1.0  0.40162  0.04581  0.64311  1.0000
  C   C77       1.0  0.46526  0.15210  0.71638  1.0000
  C   C78       1.0  0.45261  0.00509  0.69974  1.0000
  H   H127      1.0  0.45390  0.14251  0.76480  1.0000
  N   N8        1.0  0.38513  0.16050  0.65045  1.0000
  C   C79       1.0  0.38821  0.14651  0.66804  1.0000
  S   S36       1.0  0.47697  0.09343  0.72482  1.0000
  C   C80       1.0  0.46366  0.12108  0.74677  1.0000
  C   C81       1.0  0.39519  0.22240  0.66459  1.0000
  H   H128      1.0  0.42581  0.05504  0.67479  1.0000
  Fe  Fe23      1.0  0.45974  0.22990  0.68131  1.0000
  H   H129      1.0  0.41757  0.22155  0.68074  1.0000
  H   H130      1.0  0.42569  0.99492  0.71232  1.0000
  C   C82       1.0  0.44870  0.99204  0.64920  1.0000
  Fe  Fe24      1.0  0.46216  0.20417  0.71959  1.0000
  C   C83       1.0  0.38975  0.22661  0.64650  1.0000
  S   S37       1.0  0.45281  0.17889  0.74076  1.0000
  H   H131      1.0  0.38487  0.15369  0.68073  1.0000
  C   C84       1.0  0.45854  0.13995  0.75028  1.0000
  S   S38       1.0  0.47890  0.20194  0.69030  1.0000
  C   C85       1.0  0.45943  0.15554  0.73519  1.0000
  H   H132      1.0  0.37888  0.13530  0.67083  1.0000
  C   C86       1.0  0.41351  0.22493  0.66675  1.0000
  H   H133      1.0  0.38516  0.21715  0.67700  1.0000
  H   H134      1.0  0.46294  0.10919  0.75863  1.0000
  Fe  Fe25      1.0  0.47216  0.08495  0.69838  1.0000
  S   S39       1.0  0.46342  0.10533  0.67263  1.0000
  S   S40       1.0  0.41551  0.09579  0.66345  1.0000
  Fe  Fe26      1.0  0.47547  0.04910  0.68126  1.0000
  S   S41       1.0  0.46694  0.06652  0.65400  1.0000
  C   C87       1.0  0.41643  0.05776  0.66429  1.0000
  Fe  Fe27      1.0  0.44448  0.08426  0.67266  1.0000
  H   H135      1.0  0.46562  0.16407  0.70463  1.0000
  C   C88       1.0  0.39581  0.07999  0.64394  1.0000
  S   S42       1.0  0.45116  0.06510  0.70006  1.0000
  H   H136      1.0  0.41940  0.02787  0.66285  1.0000
  C   C89       1.0  0.46939  0.11751  0.72809  1.0000
  C   C90       1.0  0.36471  0.17041  0.65252  1.0000
  C   C91       1.0  0.47240  0.99987  0.69292  1.0000
  H   H137      1.0  0.44627  0.02012  0.69943  1.0000
  H   H138      1.0  0.35449  0.16009  0.65490  1.0000
  H   H139      1.0  0.45213  0.99294  0.66318  1.0000
  H   H140      1.0  0.36087  0.17854  0.66457  1.0000
  C   C92       1.0  0.47014  0.13304  0.71281  1.0000
  H   H141      1.0  0.47463  0.13038  0.69833  1.0000
  S   S43       1.0  0.44137  0.23086  0.71024  1.0000
  S   S44       1.0  0.48217  0.22025  0.72750  1.0000
  C   C93       1.0  0.40812  0.07659  0.65739  1.0000
  C   C94       1.0  0.42634  0.23224  0.65088  1.0000
  C   C95       1.0  0.44099  0.99080  0.70705  1.0000
  C   C96       1.0  0.41292  0.04237  0.65740  1.0000
  S   S45       1.0  0.36634  0.22374  0.64467  1.0000
  Fe  Fe28      1.0  0.48647  0.08613  0.65608  1.0000
  C   C97       1.0  0.39801  0.17488  0.64711  1.0000
  S   S46       1.0  0.48754  0.01724  0.68355  1.0000
  H   H142      1.0  0.41358  0.16805  0.64536  1.0000
  H   H143      1.0  0.40352  0.13881  0.66699  1.0000
  H   H144      1.0  0.39501  0.18289  0.65921  1.0000
  H   H145      1.0  0.41027  0.99385  0.66076  1.0000
  H   H146      1.0  0.44048  0.00631  0.64365  1.0000
  C   C98       1.0  0.38117  0.44334  0.07160  1.0000
  H   H147      1.0  0.39803  0.47394  0.03208  1.0000
  H   H148      1.0  0.39669  0.47306  0.07479  1.0000
  H   H149      1.0  0.40520  0.42152  0.18442  1.0000
  C   C99       1.0  0.48595  0.26331  0.24763  1.0000
  C   C100      1.0  0.41006  0.43755  0.04811  1.0000
  C   C101      1.0  0.30135  0.46948  0.22899  1.0000
  C   C102      1.0  0.40672  0.46175  0.06750  1.0000
  H   H150      1.0  0.46632  0.29044  0.24698  1.0000
  N   N9        1.0  0.28651  0.46504  0.15869  1.0000
  H   H151      1.0  0.41714  0.42612  0.05856  1.0000
  C   C103      1.0  0.30937  0.47759  0.21044  1.0000
  H   H152      1.0  0.33125  0.45573  0.07270  1.0000
  C   C104      1.0  0.45799  0.41396  0.97845  1.0000
  H   H153      1.0  0.30724  0.44205  0.17083  1.0000
  H   H154      1.0  0.44781  0.24334  0.21404  1.0000
  H   H155      1.0  0.45327  0.43332  0.14513  1.0000
  H   H156      1.0  0.47167  0.24590  0.21579  1.0000
  C   C105      1.0  0.47751  0.28145  0.23870  1.0000
  C   C106      1.0  0.43066  0.43983  0.98366  1.0000
  S   S47       1.0  0.44177  0.36668  0.15501  1.0000
  C   C107      1.0  0.43526  0.39201  0.15045  1.0000
  C   C108      1.0  0.41598  0.40028  0.14871  1.0000
  C   C109      1.0  0.14034  0.48375  0.29896  1.0000
  C   C110      1.0  0.44871  0.40403  0.14900  1.0000
  H   H157      1.0  0.40553  0.39106  0.14976  1.0000
  C   C111      1.0  0.40688  0.42872  0.21818  1.0000
  C   C112      1.0  0.44282  0.42414  0.14605  1.0000
  H   H158      1.0  0.37659  0.47855  0.04965  1.0000
  C   C113      1.0  0.33345  0.47051  0.06999  1.0000
  Fe  Fe29      1.0  0.38501  0.47189  0.14301  1.0000
  H   H159      1.0  0.38553  0.46400  0.22037  1.0000
  C   C114      1.0  0.41367  0.45409  0.19150  1.0000
  C   C115      1.0  0.27204  0.46392  0.17651  1.0000
  C   C116      1.0  0.38703  0.46701  0.04308  1.0000
  H   H160      1.0  0.38080  0.42450  0.19752  1.0000
  H   H161      1.0  0.30978  0.45737  0.23687  1.0000
  C   C117      1.0  0.30611  0.45724  0.16328  1.0000
  H   H162      1.0  0.44046  0.41726  0.00587  1.0000
  H   H163      1.0  0.30992  0.46564  0.17270  1.0000
  H   H164      1.0  0.37003  0.44772  0.21922  1.0000
  S   S48       1.0  0.41648  0.45766  0.14183  1.0000
  H   H165      1.0  0.40776  0.46536  0.18016  1.0000
  H   H166      1.0  0.41133  0.43608  0.22812  1.0000
  H   H167      1.0  0.28296  0.43827  0.15250  1.0000
  S   S49       1.0  0.35809  0.46836  0.99726  1.0000
  N   N10       1.0  0.39878  0.44272  0.20264  1.0000
  H   H168      1.0  0.31736  0.45760  0.15012  1.0000
  Fe  Fe30      1.0  0.34764  0.47676  0.12779  1.0000
  H   H169      1.0  0.27496  0.47220  0.18659  1.0000
  S   S50       1.0  0.48244  0.32433  0.14157  1.0000
  S   S51       1.0  0.48724  0.34039  0.17924  1.0000
  H   H170      1.0  0.42630  0.44486  0.18414  1.0000
  H   H171      1.0  0.47633  0.30178  0.21223  1.0000
  H   H172      1.0  0.42174  0.44388  0.03752  1.0000
  H   H173      1.0  0.41992  0.41880  0.21241  1.0000
  C   C118      1.0  0.28244  0.47695  0.23746  1.0000
  S   S52       1.0  0.41185  0.45103  0.99956  1.0000
  H   H174      1.0  0.27638  0.47061  0.25175  1.0000
  H   H175      1.0  0.38794  0.44232  0.17743  1.0000
  C   C119      1.0  0.39289  0.43228  0.19000  1.0000
  C   C120      1.0  0.28233  0.45370  0.14580  1.0000
  H   H176      1.0  0.37098  0.45401  0.07955  1.0000
  S   S53       1.0  0.48065  0.34802  0.02607  1.0000
  Fe  Fe31      1.0  0.34605  0.47863  0.16957  1.0000
  C   C121      1.0  0.38168  0.45575  0.21083  1.0000
  S   S54       1.0  0.33401  0.46529  0.10832  1.0000
  H   H177      1.0  0.37893  0.46048  0.03533  1.0000
  H   H178      1.0  0.39530  0.42653  0.14413  1.0000
  H   H179      1.0  0.29309  0.45436  0.13222  1.0000
  H   H180      1.0  0.46674  0.34802  0.06601  1.0000
  C   C122      1.0  0.41015  0.42039  0.14555  1.0000
  C   C123      1.0  0.47752  0.29742  0.04978  1.0000
  N   N11       1.0  0.39624  0.45241  0.05757  1.0000
  Fe  Fe32      1.0  0.47329  0.35217  0.15318  1.0000
  C   C124      1.0  0.44282  0.42316  0.99079  1.0000
  C   C125      1.0  0.42352  0.43239  0.14442  1.0000
  H   H181      1.0  0.33321  0.47456  0.03975  1.0000
  H   H182      1.0  0.37241  0.43685  0.06451  1.0000
  Fe  Fe33      1.0  0.38883  0.47284  0.98639  1.0000
  H   H183      1.0  0.46358  0.39781  0.15036  1.0000
  S   S55       1.0  0.36000  0.45601  0.15163  1.0000
  H   H184      1.0  0.38764  0.43179  0.08237  1.0000
  C   C126      1.0  0.33516  0.47895  0.08511  1.0000
  H   H185      1.0  0.46942  0.29056  0.06342  1.0000
  Fe  Fe34      1.0  0.22475  0.47134  0.30758  1.0000
  H   H186      1.0  0.39608  0.41973  0.22667  1.0000
  H   H187      1.0  0.41381  0.45116  0.07858  1.0000
  S   S56       1.0  0.21805  0.46772  0.27964  1.0000
  C   C127      1.0  0.33464  0.48111  0.05133  1.0000
  S   S57       1.0  0.33306  0.46763  0.20015  1.0000
  H   H188      1.0  0.37513  0.46637  0.19945  1.0000
  C   C128      1.0  0.48241  0.34631  0.06365  1.0000
  H   H189      1.0  0.41824  0.46872  0.05732  1.0000
  H   H190      1.0  0.40269  0.43051  0.04011  1.0000
  C   C129      1.0  0.49298  0.34685  0.04502  1.0000
  H   H191      1.0  0.25706  0.46988  0.17366  1.0000
  H   H192      1.0  0.48371  0.34283  0.09364  1.0000
  H   H193      1.0  0.47563  0.31297  0.05040  1.0000
  S   S58       1.0  0.47765  0.25512  0.27216  1.0000
  C   C130      1.0  0.48318  0.28792  0.21901  1.0000
  H   H194      1.0  0.27221  0.44881  0.18412  1.0000
  H   H195      1.0  0.26766  0.45918  0.14197  1.0000
  H   H196      1.0  0.46721  0.40104  0.98409  1.0000
  H   H197      1.0  0.47035  0.29641  0.03794  1.0000
  H   H198      1.0  0.41916  0.46151  0.20067  1.0000
  C   C131      1.0  0.46312  0.23577  0.21319  1.0000
  C   C132      1.0  0.49199  0.34332  0.07932  1.0000
  H   H199      1.0  0.49266  0.26040  0.06083  1.0000
  H   H200      1.0  0.49328  0.26521  0.03547  1.0000
  Fe  Fe35      1.0  0.03596  0.38128  0.59219  1.0000
  S   S59       1.0  0.05353  0.39786  0.56754  1.0000
  H   H201      1.0  0.12908  0.36047  0.48381  1.0000
  H   H202      1.0  0.25085  0.36178  0.37247  1.0000
  S   S60       1.0  0.09233  0.37303  0.58428  1.0000
  Fe  Fe36      1.0  0.07273  0.36938  0.56551  1.0000
  S   S61       1.0  0.08384  0.36042  0.53704  1.0000
  S   S62       1.0  0.05400  0.35248  0.58878  1.0000
  S   S63       1.0  0.17875  0.37604  0.55733  1.0000
  H   H203      1.0  0.18040  0.42493  0.36400  1.0000
  H   H204      1.0  0.12255  0.36592  0.53475  1.0000
  C   C133      1.0  0.30760  0.25191  0.54143  1.0000
  H   H205      1.0  0.18360  0.28649  0.43141  1.0000
  Fe  Fe37      1.0  0.02120  0.36707  0.47153  1.0000
  S   S64       1.0  0.02923  0.35629  0.44358  1.0000
  S   S65       1.0  0.01497  0.35006  0.50107  1.0000
  Fe  Fe38      1.0  0.02112  0.40883  0.45311  1.0000
  S   S66       1.0  0.02897  0.40171  0.42376  1.0000
  C   C134      1.0  0.01593  0.45731  0.44216  1.0000
  Fe  Fe39      1.0  0.00713  0.38184  0.43411  1.0000
  S   S67       1.0  0.01856  0.43777  0.46101  1.0000
  Fe  Fe40      1.0  0.05034  0.37716  0.43601  1.0000
  S   S68       1.0  0.08093  0.37494  0.41925  1.0000
  H   H206      1.0  0.03030  0.30220  0.62584  1.0000
  S   S69       1.0  0.04392  0.38587  0.46469  1.0000
  H   H207      1.0  0.07760  0.46507  0.40526  1.0000
  H   H208      1.0  0.29126  0.24303  0.51495  1.0000
  H   H209      1.0  0.29347  0.24863  0.41928  1.0000
  S   S70       1.0  0.99656  0.45973  0.33217  1.0000
  H   H210      1.0  0.14528  0.32717  0.52607  1.0000
  C   C135      1.0  0.25640  0.37337  0.62708  1.0000
  H   H211      1.0  0.22655  0.37041  0.38330  1.0000
  C   C136      1.0  0.13336  0.43920  0.57823  1.0000
  Fe  Fe41      1.0  0.22631  0.34565  0.60432  1.0000
  H   H212      1.0  0.01773  0.35532  0.62145  1.0000
  C   C137      1.0  0.06182  0.43071  0.38993  1.0000
  H   H213      1.0  0.03904  0.41306  0.49704  1.0000
  Fe  Fe42      1.0  0.20189  0.37201  0.41794  1.0000
  S   S71       1.0  0.19486  0.34355  0.41627  1.0000
  S   S72       1.0  0.19131  0.39633  0.39518  1.0000
  Fe  Fe43      1.0  0.21575  0.35606  0.45581  1.0000
  S   S73       1.0  0.20907  0.32675  0.45721  1.0000
  S   S74       1.0  0.23085  0.35880  0.47906  1.0000
  Fe  Fe44      1.0  0.22307  0.33027  0.42643  1.0000
  S   S75       1.0  0.24220  0.30581  0.41259  1.0000
  Fe  Fe45      1.0  0.18156  0.34258  0.44701  1.0000
  S   S76       1.0  0.15288  0.33264  0.45978  1.0000
  S   S77       1.0  0.23142  0.35886  0.42531  1.0000
  S   S78       1.0  0.18690  0.37168  0.44848  1.0000
  C   C138      1.0  0.28978  0.26429  0.44223  1.0000
  C   C139      1.0  0.27935  0.28051  0.44992  1.0000
  C   C140      1.0  0.26495  0.29341  0.44088  1.0000
  C   C141      1.0  0.26076  0.29021  0.42400  1.0000
  C   C142      1.0  0.27111  0.27396  0.41631  1.0000
  C   C143      1.0  0.28555  0.26104  0.42537  1.0000
  H   H214      1.0  0.28254  0.28321  0.46290  1.0000
  H   H215      1.0  0.25720  0.30589  0.44695  1.0000
  H   H216      1.0  0.26802  0.27133  0.40326  1.0000
  S   S79       1.0  0.99768  0.39100  0.46268  1.0000
  C   C144      1.0  0.13766  0.36516  0.52669  1.0000
  H   H217      1.0  0.09802  0.41553  0.39577  1.0000
  C   C145      1.0  0.22464  0.41126  0.37755  1.0000
  C   C146      1.0  0.16066  0.35469  0.50000  1.0000
  H   H218      1.0  0.23184  0.40180  0.38857  1.0000
  H   H219      1.0  0.14069  0.38011  0.52242  1.0000
  H   H220      1.0  0.17275  0.40476  0.58531  1.0000
  H   H221      1.0  0.05332  0.46438  0.40280  1.0000
  H   H222      1.0  0.01104  0.44097  0.42260  1.0000
  H   H223      1.0  0.16412  0.36927  0.49384  1.0000
  Fe  Fe46      1.0  0.19642  0.37870  0.61862  1.0000
  C   C147      1.0  0.23514  0.42291  0.36266  1.0000
  H   H224      1.0  0.13027  0.38204  0.49169  1.0000
  H   H225      1.0  0.16359  0.34665  0.48799  1.0000
  C   C148      1.0  0.10061  0.36371  0.43119  1.0000
  C   C149      1.0  0.11950  0.36628  0.42224  1.0000
  C   C150      1.0  0.13554  0.35715  0.43108  1.0000
  C   C151      1.0  0.13285  0.34499  0.44879  1.0000
  C   C152      1.0  0.11394  0.34250  0.45784  1.0000
  C   C153      1.0  0.09784  0.35199  0.44917  1.0000
  H   H226      1.0  0.12177  0.37533  0.40835  1.0000
  H   H227      1.0  0.15000  0.35929  0.42400  1.0000
  H   H228      1.0  0.11169  0.33316  0.47155  1.0000
  H   H229      1.0  0.08335  0.34986  0.45618  1.0000
  H   H230      1.0  0.25076  0.41724  0.59842  1.0000
  C   C154      1.0  0.01461  0.39091  0.36653  1.0000
  H   H231      1.0  0.08450  0.39884  0.62357  1.0000
  H   H232      1.0  0.13881  0.45151  0.58102  1.0000
  S   S80       1.0  0.00343  0.38926  0.59588  1.0000
  C   C155      1.0  0.01281  0.45486  0.42454  1.0000
  H   H233      1.0  0.20679  0.34134  0.37366  1.0000
  H   H234      1.0  0.14857  0.40601  0.61515  1.0000
  H   H235      1.0  0.22724  0.48207  0.38837  1.0000
  C   C156      1.0  0.00299  0.40993  0.33838  1.0000
  C   C157      1.0  0.08434  0.42894  0.61198  1.0000
  H   H236      1.0  0.18186  0.25494  0.45269  1.0000
  C   C158      1.0  0.26760  0.30993  0.60031  1.0000
  H   H237      1.0  0.01153  0.43932  0.50170  1.0000
  H   H238      1.0  0.05288  0.43440  0.42684  1.0000
  C   C159      1.0  0.08560  0.41266  0.62637  1.0000
  S   S81       1.0  0.30771  0.24857  0.45438  1.0000
  H   H239      1.0  0.14299  0.39044  0.58966  1.0000
  H   H240      1.0  0.29733  0.26670  0.50689  1.0000
  H   H241      1.0  0.00885  0.46869  0.39599  1.0000
  H   H242      1.0  0.12039  0.33649  0.52373  1.0000
  H   H243      1.0  0.20210  0.35481  0.35080  1.0000
  C   C160      1.0  0.03048  0.46036  0.64034  1.0000
  H   H244      1.0  0.23552  0.34096  0.33634  1.0000
  H   H245      1.0  0.00359  0.42890  0.36624  1.0000
  C   C161      1.0  0.12729  0.36711  0.49668  1.0000
  Fe  Fe47      1.0  0.07191  0.35844  0.60801  1.0000
  C   C162      1.0  0.00894  0.43284  0.51715  1.0000
  H   H246      1.0  0.25344  0.26693  0.63157  1.0000
  H   H247      1.0  0.11179  0.36807  0.50360  1.0000
  C   C163      1.0  0.19357  0.37147  0.53567  1.0000
  C   C164      1.0  0.21170  0.35954  0.53540  1.0000
  C   C165      1.0  0.22312  0.35581  0.51793  1.0000
  C   C166      1.0  0.21636  0.36377  0.50073  1.0000
  C   C167      1.0  0.19839  0.37596  0.50099  1.0000
  C   C168      1.0  0.18702  0.37983  0.51844  1.0000
  H   H248      1.0  0.21692  0.35316  0.54863  1.0000
  H   H249      1.0  0.23716  0.34659  0.51774  1.0000
  H   H250      1.0  0.19351  0.38271  0.48768  1.0000
  H   H251      1.0  0.17325  0.38947  0.51856  1.0000
  C   C169      1.0  0.06515  0.35513  0.52787  1.0000
  C   C170      1.0  0.04662  0.35492  0.53890  1.0000
  C   C171      1.0  0.03143  0.35192  0.53106  1.0000
  C   C172      1.0  0.03465  0.34971  0.51197  1.0000
  C   C173      1.0  0.05327  0.34941  0.50108  1.0000
  C   C174      1.0  0.06855  0.35201  0.50905  1.0000
  H   H252      1.0  0.04378  0.35756  0.55331  1.0000
  H   H253      1.0  0.01705  0.35217  0.53953  1.0000
  H   H254      1.0  0.05588  0.34735  0.48641  1.0000
  H   H255      1.0  0.08284  0.35206  0.50043  1.0000
  H   H256      1.0  0.18172  0.26592  0.47267  1.0000
  C   C175      1.0  0.20815  0.35513  0.36359  1.0000
  N   N12       1.0  0.31748  0.24664  0.52279  1.0000
  H   H257      1.0  0.27578  0.40040  0.62999  1.0000
  C   C176      1.0  0.29288  0.28139  0.60331  1.0000
  C   C177      1.0  0.13552  0.40475  0.58340  1.0000
  Fe  Fe48      1.0  0.07110  0.39986  0.58892  1.0000
  H   H258      1.0  0.10353  0.43661  0.40146  1.0000
  H   H259      1.0  0.07214  0.46550  0.38222  1.0000
  H   H260      1.0  0.09835  0.43722  0.37822  1.0000
  H   H261      1.0  0.13714  0.40490  0.56783  1.0000
  H   H262      1.0  0.01506  0.41834  0.33502  1.0000
  H   H263      1.0  0.01947  0.37793  0.35968  1.0000
  H   H264      1.0  0.45051  0.28340  0.34360  1.0000
  H   H265      1.0  0.37857  0.24016  0.50335  1.0000
  H   H266      1.0  0.07694  0.43530  0.42975  1.0000
  H   H267      1.0  0.25607  0.34410  0.34525  1.0000
  H   H268      1.0  0.14715  0.43152  0.61128  1.0000
  N   N13       1.0  0.99768  0.40348  0.35918  1.0000
  C   C178      1.0  0.16451  0.41856  0.57885  1.0000
  H   H269      1.0  0.16702  0.41864  0.56321  1.0000
  H   H270      1.0  0.22637  0.26263  0.46712  1.0000
  H   H271      1.0  0.00614  0.40927  0.49418  1.0000
  N   N14       1.0  0.26280  0.38891  0.61175  1.0000
  H   H272      1.0  0.17104  0.34735  0.50980  1.0000
  N   N15       1.0  0.20470  0.27128  0.44898  1.0000
  H   H273      1.0  0.20829  0.25764  0.42458  1.0000
  C   C179      1.0  0.01078  0.40367  0.54066  1.0000
  C   C180      1.0  0.19328  0.28931  0.44026  1.0000
  Fe  Fe49      1.0  0.01693  0.47869  0.33474  1.0000
  H   H274      1.0  0.25625  0.37696  0.58964  1.0000
  H   H275      1.0  0.12896  0.45876  0.34388  1.0000
  S   S82       1.0  0.08803  0.46643  0.34296  1.0000
  C   C181      1.0  0.23901  0.26280  0.63273  1.0000
  H   H276      1.0  0.30118  0.26746  0.54003  1.0000
  C   C182      1.0  0.03559  0.40666  0.51244  1.0000
  H   H277      1.0  0.02665  0.32446  0.60947  1.0000
  N   N16       1.0  0.01468  0.41168  0.52004  1.0000
  S   S83       1.0  0.20852  0.34932  0.63313  1.0000
  H   H278      1.0  0.03792  0.34900  0.63398  1.0000
  C   C183      1.0  0.14297  0.47280  0.31683  1.0000
  C   C184      1.0  0.10794  0.47389  0.32617  1.0000
  C   C185      1.0  0.23572  0.35888  0.37580  1.0000
  H   H279      1.0  0.18392  0.29740  0.45129  1.0000
  H   H280      1.0  0.25047  0.42229  0.36223  1.0000
  H   H281      1.0  0.13739  0.32880  0.50376  1.0000
  H   H282      1.0  0.23348  0.40134  0.60784  1.0000
  H   H283      1.0  0.19892  0.44555  0.33793  1.0000
  C   C186      1.0  0.47214  0.24861  0.34100  1.0000
  S   S84       1.0  0.21589  0.37605  0.59049  1.0000
  S   S85       1.0  0.23965  0.44931  0.32957  1.0000
  H   H284      1.0  0.11981  0.40574  0.58958  1.0000
  C   C187      1.0  0.11887  0.33840  0.62037  1.0000
  C   C188      1.0  0.13567  0.33616  0.51616  1.0000
  H   H285      1.0  0.32797  0.27344  0.51248  1.0000
  H   H286      1.0  0.23963  0.46961  0.36916  1.0000
  C   C189      1.0  0.22594  0.43529  0.34827  1.0000
  H   H287      1.0  0.14757  0.35720  0.53679  1.0000
  C   C190      1.0  0.03159  0.31767  0.62325  1.0000
  C   C191      1.0  0.06893  0.45913  0.39762  1.0000
  H   H288      1.0  0.24350  0.36875  0.62433  1.0000
  H   H289      1.0  0.28043  0.36906  0.59409  1.0000
  C   C192      1.0  0.19136  0.25872  0.46114  1.0000
  C   C193      1.0  0.28255  0.27147  0.59546  1.0000
  H   H290      1.0  0.13513  0.44028  0.56250  1.0000
  H   H291      1.0  0.23559  0.34505  0.38609  1.0000
  H   H292      1.0  0.11752  0.44105  0.58388  1.0000
  H   H293      1.0  0.06543  0.43610  0.37429  1.0000
  H   H294      1.0  0.31788  0.24898  0.55171  1.0000
  H   H295      1.0  0.30647  0.27420  0.60778  1.0000
  H   H296      1.0  0.01114  0.38580  0.38220  1.0000
  C   C194      1.0  0.19568  0.42443  0.36376  1.0000
  S   S86       1.0  0.25821  0.33370  0.60434  1.0000
  H   H297      1.0  0.04652  0.45776  0.63566  1.0000
  H   H298      1.0  0.02711  0.39863  0.36393  1.0000
  N   N17       1.0  0.07339  0.43788  0.40064  1.0000
  C   C195      1.0  0.22298  0.29565  0.63334  1.0000
  C   C196      1.0  0.06857  0.43010  0.42122  1.0000
  C   C197      1.0  0.12680  0.46771  0.33031  1.0000
  C   C198      1.0  0.09425  0.43154  0.39374  1.0000
  H   H299      1.0  0.06467  0.41468  0.39215  1.0000
  C   C199      1.0  0.30353  0.25109  0.50943  1.0000
  H   H300      1.0  0.01865  0.40982  0.54894  1.0000
  H   H301      1.0  0.20291  0.29903  0.43082  1.0000
  Fe  Fe50      1.0  0.19236  0.36387  0.58361  1.0000
  H   H302      1.0  0.02350  0.42557  0.63897  1.0000
  C   C200      1.0  0.01736  0.47557  0.44478  1.0000
  H   H303      1.0  0.31061  0.24718  0.49525  1.0000
  H   H304      1.0  0.24029  0.32811  0.35939  1.0000
  H   H305      1.0  0.17107  0.43031  0.58130  1.0000
  S   S87       1.0  0.34685  0.24583  0.59286  1.0000
  N   N18       1.0  0.14362  0.42057  0.58712  1.0000
  C   C201      1.0  0.22962  0.37653  0.34489  1.0000
  N   N19       1.0  0.22853  0.35818  0.35840  1.0000
  H   H306      1.0  0.21999  0.38880  0.35096  1.0000
  H   H307      1.0  0.43100  0.28024  0.33316  1.0000
  C   C202      1.0  0.00340  0.40360  0.50978  1.0000
  S   S88       1.0  0.18865  0.40776  0.62795  1.0000
  H   H308      1.0  0.08595  0.45914  0.60436  1.0000
  C   C203      1.0  0.28543  0.30057  0.60567  1.0000
  S   S89       1.0  0.08053  0.42747  0.58935  1.0000
  N   N20       1.0  0.14031  0.35578  0.50990  1.0000
  H   H309      1.0  0.19869  0.36689  0.37071  1.0000
  S   S90       1.0  0.17220  0.36838  0.61091  1.0000
  H   H310      1.0  0.22496  0.37627  0.33131  1.0000
  C   C204      1.0  0.20614  0.43613  0.34896  1.0000
  H   H311      1.0  0.24460  0.37989  0.34135  1.0000
  H   H312      1.0  0.42394  0.25240  0.35926  1.0000
  H   H313      1.0  0.01392  0.35216  0.58326  1.0000
  H   H314      1.0  0.99507  0.40675  0.54678  1.0000
  H   H315      1.0  0.04731  0.31842  0.62141  1.0000
  H   H316      1.0  0.26793  0.36035  0.62813  1.0000
  H   H317      1.0  0.47650  0.25579  0.35114  1.0000
  C   C205      1.0  0.43983  0.24903  0.35940  1.0000
  S   S91       1.0  0.29049  0.24697  0.59353  1.0000
  H   H318      1.0  0.24000  0.24749  0.63991  1.0000
  H   H319      1.0  0.23691  0.30054  0.63266  1.0000
  S   S92       1.0  0.08011  0.33515  0.63237  1.0000
  H   H320      1.0  0.04600  0.43548  0.39449  1.0000
  C   C206      1.0  0.33344  0.25768  0.51480  1.0000
  C   C207      1.0  0.44671  0.27540  0.33379  1.0000
  H   H321      1.0  0.23668  0.26352  0.61793  1.0000
  C   C208      1.0  0.13851  0.33426  0.62233  1.0000
  H   H322      1.0  0.14911  0.34051  0.61123  1.0000
  S   S93       1.0  0.20450  0.33313  0.59470  1.0000
  H   H323      1.0  0.02379  0.46040  0.62784  1.0000
  H   H324      1.0  0.25699  0.27348  0.58343  1.0000
  Fe  Fe51      1.0  0.18599  0.33878  0.62258  1.0000
  N   N21       1.0  0.45121  0.25438  0.34022  1.0000
  H   H325      1.0  0.45461  0.24804  0.31199  1.0000
  H   H326      1.0  0.29344  0.30808  0.61189  1.0000
  C   C209      1.0  0.20489  0.41185  0.37800  1.0000
  H   H327      1.0  0.24397  0.30729  0.58755  1.0000
  C   C210      1.0  0.10496  0.33001  0.63437  1.0000
  C   C211      1.0  0.26494  0.28098  0.58972  1.0000
  H   H328      1.0  0.29196  0.38275  0.61741  1.0000
  H   H329      1.0  0.07186  0.41410  0.42405  1.0000
  C   C212      1.0  0.27960  0.39495  0.61621  1.0000
  C   C213      1.0  0.25747  0.30011  0.59215  1.0000
  C   C214      1.0  0.08657  0.44658  0.61553  1.0000
  S   S94       1.0  0.05185  0.38574  0.61396  1.0000
  H   H330      1.0  0.11463  0.34792  0.60791  1.0000
  Fe  Fe52      1.0  0.05786  0.48180  0.33872  1.0000
  H   H331      1.0  0.21071  0.47925  0.35349  1.0000
  C   C215      1.0  0.24063  0.34213  0.34941  1.0000
  H   H332      1.0  0.12550  0.42142  0.61465  1.0000
  H   H333      1.0  0.04028  0.39083  0.51358  1.0000
  H   H334      1.0  0.01735  0.43943  0.52450  1.0000
  H   H335      1.0  0.29573  0.24357  0.54820  1.0000
  H   H336      1.0  0.22050  0.29742  0.61845  1.0000
  C   C216      1.0  0.14108  0.41987  0.60794  1.0000
  C   C217      1.0  0.99841  0.35502  0.58803  1.0000
  H   H337      1.0  0.20827  0.28306  0.47258  1.0000
  C   C218      1.0  0.01158  0.47058  0.40944  1.0000
  H   H338      1.0  0.04469  0.41181  0.52031  1.0000
  H   H339      1.0  0.22699  0.28561  0.45207  1.0000
  H   H340      1.0  0.25245  0.37803  0.64122  1.0000
  H   H341      1.0  0.01541  0.38779  0.54346  1.0000
  H   H342      1.0  0.00766  0.39757  0.33062  1.0000
  H   H343      1.0  0.19950  0.24504  0.46806  1.0000
  H   H344      1.0  0.24259  0.41171  0.62369  1.0000
  S   S95       1.0  0.03337  0.46972  0.35920  1.0000
  H   H345      1.0  0.34420  0.25475  0.52457  1.0000
  C   C219      1.0  0.21709  0.26131  0.43378  1.0000
  C   C220      1.0  0.08945  0.44811  0.63356  1.0000
  H   H346      1.0  0.21113  0.30557  0.64072  1.0000
  H   H347      1.0  0.22730  0.27045  0.42433  1.0000
  H   H348      1.0  0.27349  0.39303  0.58145  1.0000
  C   C221      1.0  0.26852  0.38177  0.59342  1.0000
  H   H349      1.0  0.01965  0.47758  0.45841  1.0000
  H   H350      1.0  0.45497  0.27979  0.31924  1.0000
  H   H351      1.0  0.44283  0.25665  0.36996  1.0000
  C   C222      1.0  0.44618  0.24445  0.32661  1.0000
  H   H352      1.0  0.00739  0.38766  0.51164  1.0000
  H   H353      1.0  0.34139  0.25387  0.50085  1.0000
  H   H354      1.0  0.43049  0.24837  0.32565  1.0000
  H   H355      1.0  0.28481  0.40669  0.60493  1.0000
  C   C223      1.0  0.21708  0.27580  0.46075  1.0000
  C   C224      1.0  0.24674  0.40551  0.61033  1.0000
  C   C225      1.0  0.42097  0.23630  0.63277  1.0000
  H   H356      1.0  0.22610  0.24775  0.43983  1.0000
  C   C226      1.0  0.14438  0.32178  0.63840  1.0000
  H   H357      1.0  0.48118  0.25229  0.32673  1.0000
  S   S96       1.0  0.16888  0.31694  0.64140  1.0000
  C   C227      1.0  0.02248  0.34768  0.63509  1.0000
  H   H358      1.0  0.18690  0.44317  0.64048  1.0000
  H   H359      1.0  0.15746  0.46772  0.32000  1.0000
  H   H360      1.0  0.09154  0.46170  0.63604  1.0000
  N   N22       1.0  0.02010  0.32729  0.63906  1.0000
  H   H361      1.0  0.20108  0.27161  0.62921  1.0000
  C   C228      1.0  0.99937  0.32620  0.64084  1.0000
  H   H362      1.0  0.43084  0.24192  0.62041  1.0000
  C   C229      1.0  0.23626  0.48387  0.37388  1.0000
  H   H363      1.0  0.39876  0.23660  0.61653  1.0000
  N   N23       1.0  0.22331  0.27550  0.64318  1.0000
  H   H364      1.0  0.12491  0.42783  0.71671  1.0000
  H   H365      1.0  0.41377  0.44885  0.88562  1.0000
  H   H366      1.0  0.39324  0.48349  0.90479  1.0000
  C   C230      1.0  0.25599  0.46876  0.77155  1.0000
  C   C231      1.0  0.40098  0.36234  0.88668  1.0000
  H   H367      1.0  0.02589  0.41493  0.66325  1.0000
  C   C232      1.0  0.38618  0.38698  0.86338  1.0000
  H   H368      1.0  0.41962  0.34713  0.85634  1.0000
  H   H369      1.0  0.45068  0.30936  0.74170  1.0000
  Fe  Fe53      1.0  0.07853  0.46456  0.67631  1.0000
  S   S97       1.0  0.09133  0.43446  0.67133  1.0000
  H   H370      1.0  0.35717  0.48304  0.88913  1.0000
  S   S98       1.0  0.05651  0.47050  0.70227  1.0000
  H   H371      1.0  0.28462  0.40071  0.74092  1.0000
  C   C233      1.0  0.12652  0.44108  0.70589  1.0000
  C   C234      1.0  0.30087  0.42611  0.71267  1.0000
  C   C235      1.0  0.13056  0.31308  0.65225  1.0000
  C   C236      1.0  0.20640  0.43732  0.66074  1.0000
  H   H372      1.0  0.37644  0.35707  0.85336  1.0000
  C   C237      1.0  0.27874  0.46990  0.79194  1.0000
  H   H373      1.0  0.21590  0.38464  0.65192  1.0000
  H   H374      1.0  0.11475  0.44354  0.69733  1.0000
  H   H375      1.0  0.37270  0.39054  0.87372  1.0000
  S   S99       1.0  0.49123  0.32197  0.82934  1.0000
  H   H376      1.0  0.41050  0.47358  0.87394  1.0000
  H   H377      1.0  0.40870  0.36490  0.83860  1.0000
  H   H378      1.0  0.40783  0.34696  0.89029  1.0000
  S   S100      1.0  0.16525  0.46897  0.74862  1.0000
  H   H379      1.0  0.28243  0.41397  0.75977  1.0000
  H   H380      1.0  0.08902  0.40170  0.65568  1.0000
  C   C238      1.0  0.26254  0.46334  0.78918  1.0000
  H   H381      1.0  0.47543  0.38973  0.91207  1.0000
  Fe  Fe54      1.0  0.45008  0.35889  0.80782  1.0000
  S   S101      1.0  0.44514  0.33095  0.82703  1.0000
  S   S102      1.0  0.42365  0.37864  0.79777  1.0000
  Fe  Fe55      1.0  0.46420  0.33831  0.84448  1.0000
  H   H382      1.0  0.30602  0.40528  0.74728  1.0000
  Fe  Fe56      1.0  0.47257  0.31756  0.80974  1.0000
  H   H383      1.0  0.36916  0.47537  0.86714  1.0000
  S   S103      1.0  0.46791  0.36678  0.82590  1.0000
  S   S104      1.0  0.47606  0.34486  0.78895  1.0000
  H   H384      1.0  0.45167  0.44423  0.93673  1.0000
  H   H385      1.0  0.39628  0.39660  0.86384  1.0000
  H   H386      1.0  0.32593  0.45159  0.92232  1.0000
  H   H387      1.0  0.99795  0.43939  0.67543  1.0000
  C   C239      1.0  0.40569  0.27102  0.67790  1.0000
  H   H388      1.0  0.38745  0.33869  0.87055  1.0000
  Fe  Fe57      1.0  0.22215  0.45702  0.69742  1.0000
  S   S105      1.0  0.23289  0.42949  0.68525  1.0000
  H   H389      1.0  0.43965  0.28023  0.65746  1.0000
  S   S106      1.0  0.21963  0.45321  0.72926  1.0000
  Fe  Fe58      1.0  0.35075  0.46683  0.83146  1.0000
  S   S107      1.0  0.32133  0.46330  0.84874  1.0000
  S   S108      1.0  0.37817  0.44761  0.84008  1.0000
  N   N24       1.0  0.38452  0.46419  0.89061  1.0000
  N   N25       1.0  0.41620  0.28550  0.68075  1.0000
  H   H390      1.0  0.16305  0.42122  0.67403  1.0000
  C   C240      1.0  0.46121  0.42153  0.95894  1.0000
  C   C241      1.0  0.43383  0.44738  0.96412  1.0000
  C   C242      1.0  0.11093  0.31720  0.65025  1.0000
  C   C243      1.0  0.44913  0.43826  0.95178  1.0000
  H   H391      1.0  0.01312  0.46700  0.70989  1.0000
  H   H392      1.0  0.24362  0.46348  0.76952  1.0000
  H   H393      1.0  0.21523  0.28330  0.67103  1.0000
  H   H394      1.0  0.22702  0.25875  0.67074  1.0000
  H   H395      1.0  0.29461  0.41596  0.70711  1.0000
  H   H396      1.0  0.31409  0.46938  0.89268  1.0000
  H   H397      1.0  0.47138  0.34368  0.93590  1.0000
  S   S109      1.0  0.45355  0.27528  0.72606  1.0000
  H   H398      1.0  0.16041  0.42272  0.71647  1.0000
  C   C244      1.0  0.41172  0.39863  0.80870  1.0000
  C   C245      1.0  0.39332  0.40803  0.80482  1.0000
  C   C246      1.0  0.38306  0.42343  0.81394  1.0000
  C   C247      1.0  0.39117  0.42955  0.82700  1.0000
  C   C248      1.0  0.40970  0.42039  0.83064  1.0000
  C   C249      1.0  0.41993  0.40499  0.82155  1.0000
  H   H399      1.0  0.38691  0.40325  0.79483  1.0000
  H   H400      1.0  0.36879  0.43039  0.81103  1.0000
  H   H401      1.0  0.41615  0.42516  0.84059  1.0000
  H   H402      1.0  0.43420  0.39811  0.82439  1.0000
  H   H403      1.0  0.47188  0.24891  0.75600  1.0000
  C   C250      1.0  0.47174  0.28510  0.77979  1.0000
  C   C251      1.0  0.46298  0.30054  0.76750  1.0000
  H   H404      1.0  0.37264  0.47298  0.91775  1.0000
  S   S110      1.0  0.48016  0.24786  0.68558  1.0000
  C   C252      1.0  0.99819  0.47083  0.70780  1.0000
  C   C253      1.0  0.41243  0.36237  0.85314  1.0000
  C   C254      1.0  0.45752  0.29734  0.75107  1.0000
  C   C255      1.0  0.46088  0.27874  0.74671  1.0000
  S   S111      1.0  0.34077  0.46354  0.95060  1.0000
  H   H405      1.0  0.38984  0.27450  0.68318  1.0000
  H   H406      1.0  0.29686  0.45798  0.72852  1.0000
  H   H407      1.0  0.04276  0.31832  0.65596  1.0000
  C   C256      1.0  0.22678  0.27376  0.66283  1.0000
  S   S112      1.0  0.45306  0.34120  0.87548  1.0000
  H   H408      1.0  0.24095  0.27788  0.66280  1.0000
  H   H409      1.0  0.48130  0.25448  0.78518  1.0000
  H   H410      1.0  0.02557  0.30225  0.66051  1.0000
  H   H411      1.0  0.04624  0.42293  0.64673  1.0000
  C   C257      1.0  0.40851  0.30467  0.67064  1.0000
  H   H412      1.0  0.19229  0.27908  0.65182  1.0000
  C   C258      1.0  0.20044  0.41333  0.64455  1.0000
  H   H413      1.0  0.26078  0.44152  0.74353  1.0000
  C   C259      1.0  0.21976  0.42347  0.67002  1.0000
  C   C260      1.0  0.22321  0.40447  0.66671  1.0000
  C   C261      1.0  0.19687  0.43228  0.64796  1.0000
  H   H414      1.0  0.02926  0.43539  0.68564  1.0000
  C   C262      1.0  0.14209  0.47716  0.74239  1.0000
  H   H415      1.0  0.23337  0.39366  0.67401  1.0000
  C   C263      1.0  0.10715  0.48112  0.75260  1.0000
  Fe  Fe59      1.0  0.19193  0.47443  0.72721  1.0000
  H   H416      1.0  0.15937  0.44818  0.71343  1.0000
  H   H417      1.0  0.09477  0.47943  0.76388  1.0000
  C   C264      1.0  0.47831  0.39260  0.89614  1.0000
  Fe  Fe60      1.0  0.35436  0.47923  0.96662  1.0000
  C   C265      1.0  0.38103  0.35424  0.86755  1.0000
  C   C266      1.0  0.02710  0.31769  0.65701  1.0000
  S   S113      1.0  0.19360  0.47701  0.69574  1.0000
  C   C267      1.0  0.46924  0.33548  0.89190  1.0000
  C   C268      1.0  0.33116  0.47680  0.93047  1.0000
  H   H418      1.0  0.47062  0.38311  0.89127  1.0000
  H   H419      1.0  0.31402  0.43859  0.73869  1.0000
  H   H420      1.0  0.44965  0.35182  0.91186  1.0000
  S   S114      1.0  0.28717  0.46195  0.81387  1.0000
  C   C269      1.0  0.40363  0.46048  0.87825  1.0000
  C   C270      1.0  0.37591  0.44647  0.89584  1.0000
  N   N26       1.0  0.39512  0.36651  0.86771  1.0000
  C   C271      1.0  0.47590  0.33810  0.92269  1.0000
  C   C272      1.0  0.46963  0.26331  0.75901  1.0000
  H   H421      1.0  0.12385  0.45330  0.71375  1.0000
  H   H422      1.0  0.42167  0.29644  0.70410  1.0000
  C   C273      1.0  0.32521  0.46702  0.91861  1.0000
  H   H423      1.0  0.01890  0.32466  0.66925  1.0000
  H   H424      1.0  0.42474  0.46040  0.95858  1.0000
  C   C274      1.0  0.48728  0.32362  0.88843  1.0000
  C   C275      1.0  0.43703  0.28034  0.67308  1.0000
  H   H425      1.0  0.25512  0.45391  0.80071  1.0000
  S   S115      1.0  0.48033  0.41017  0.94345  1.0000
  H   H426      1.0  0.38537  0.43440  0.90353  1.0000
  C   C276      1.0  0.41369  0.28586  0.70137  1.0000
  H   H427      1.0  0.46034  0.31493  0.77067  1.0000
  C   C277      1.0  0.08989  0.43207  0.64820  1.0000
  H   H428      1.0  0.39640  0.45874  0.91648  1.0000
  H   H429      1.0  0.38231  0.39072  0.84882  1.0000
  H   H430      1.0  0.99817  0.46440  0.66622  1.0000
  H   H431      1.0  0.38837  0.36539  0.89814  1.0000
  H   H432      1.0  0.36777  0.35685  0.87845  1.0000
  C   C278      1.0  0.12592  0.47491  0.75673  1.0000
  H   H433      1.0  0.41200  0.37104  0.88705  1.0000
  C   C279      1.0  0.47495  0.26649  0.77550  1.0000
  H   H434      1.0  0.26820  0.45110  0.71887  1.0000
  C   C280      1.0  0.03022  0.42640  0.65119  1.0000
  H   H435      1.0  0.42341  0.37142  0.85261  1.0000
  S   S116      1.0  0.23930  0.48092  0.69208  1.0000
  H   H436      1.0  0.13498  0.30333  0.66466  1.0000
  C   C281      1.0  0.46362  0.34271  0.90905  1.0000
  H   H437      1.0  0.17588  0.43467  0.69682  1.0000
  H   H438      1.0  0.39816  0.28963  0.70777  1.0000
  C   C282      1.0  0.03378  0.44604  0.67283  1.0000
  H   H439      1.0  0.02997  0.46046  0.67708  1.0000
  N   N27       1.0  0.14590  0.43932  0.69365  1.0000
  C   C283      1.0  0.14866  0.42294  0.68355  1.0000
  H   H440      1.0  0.12792  0.46842  0.77118  1.0000
  C   C284      1.0  0.14732  0.45720  0.67952  1.0000
  C   C285      1.0  0.16105  0.43607  0.70559  1.0000
  H   H441      1.0  0.13731  0.42491  0.67454  1.0000
  H   H442      1.0  0.14776  0.40917  0.69375  1.0000
  C   C286      1.0  0.31852  0.47705  0.90184  1.0000
  C   C287      1.0  0.21341  0.39936  0.65417  1.0000
  H   H443      1.0  0.41952  0.27163  0.70941  1.0000
  C   C288      1.0  0.38685  0.47012  0.90813  1.0000
  H   H444      1.0  0.14474  0.46996  0.68662  1.0000
  H   H445      1.0  0.13644  0.45981  0.66993  1.0000
  H   H446      1.0  0.16193  0.45655  0.67037  1.0000
  H   H447      1.0  0.44572  0.29035  0.67569  1.0000
  H   H448      1.0  0.41019  0.30477  0.65505  1.0000
  C   C289      1.0  0.08838  0.41424  0.64447  1.0000
  N   N28       1.0  0.28986  0.42978  0.73151  1.0000
  C   C290      1.0  0.29833  0.44369  0.73810  1.0000
  C   C291      1.0  0.26940  0.43774  0.72980  1.0000
  C   C292      1.0  0.29080  0.41160  0.74546  1.0000
  S   S117      1.0  0.47941  0.35798  0.97148  1.0000
  C   C293      1.0  0.26582  0.48058  0.75653  1.0000
  H   H449      1.0  0.29098  0.44606  0.75269  1.0000
  H   H450      1.0  0.36162  0.44870  0.90544  1.0000
  H   H451      1.0  0.40781  0.26989  0.66253  1.0000
  Fe  Fe61      1.0  0.46311  0.24687  0.71536  1.0000
  H   H452      1.0  0.01376  0.35553  0.64652  1.0000
  H   H453      1.0  0.26230  0.42740  0.72545  1.0000
  S   S118      1.0  0.34051  0.47637  0.80305  1.0000
  S   S119      1.0  0.38565  0.48145  0.95555  1.0000
  C   C294      1.0  0.37161  0.47965  0.88016  1.0000
  Fe  Fe62      1.0  0.31070  0.47488  0.82065  1.0000
  H   H454      1.0  0.30056  0.43968  0.70195  1.0000
  H   H455      1.0  0.39281  0.30906  0.67612  1.0000
  C   C295      1.0  0.00305  0.44973  0.66258  1.0000
  N   N29       1.0  0.02437  0.44562  0.65673  1.0000
  H   H456      1.0  0.31635  0.41986  0.71339  1.0000
  H   H457      1.0  0.40225  0.45603  0.86489  1.0000
  S   S120      1.0  0.47914  0.28836  0.80047  1.0000
  H   H458      1.0  0.20416  0.25467  0.65083  1.0000
  H   H459      1.0  0.20382  0.45204  0.66303  1.0000
  Fe  Fe63      1.0  0.23428  0.47899  0.72388  1.0000
  H   H460      1.0  0.37349  0.44186  0.88297  1.0000
  H   H461      1.0  0.44294  0.26568  0.67993  1.0000
  H   H462      1.0  0.47166  0.40780  0.89151  1.0000
  H   H463      1.0  0.41104  0.25646  0.68561  1.0000
  S   S121      1.0  0.44860  0.23762  0.65324  1.0000
  H   H464      1.0  0.10034  0.31055  0.66111  1.0000
  H   H465      1.0  0.04987  0.44273  0.66905  1.0000
  C   C296      1.0  0.28822  0.48213  0.77704  1.0000
  H   H466      1.0  0.41632  0.31582  0.67241  1.0000
  C   C297      1.0  0.49370  0.32578  0.91950  1.0000
  H   H467      1.0  0.49171  0.31793  0.87528  1.0000
  Fe  Fe64      1.0  0.49331  0.34992  0.80930  1.0000
  H   H468      1.0  0.99542  0.44897  0.65100  1.0000
  H   H469      1.0  0.02625  0.47506  0.64404  1.0000
  H   H470      1.0  0.99701  0.31103  0.64356  1.0000
  S   S122      1.0  0.09728  0.48491  0.67847  1.0000
  C   C298      1.0  0.20442  0.26990  0.64381  1.0000
  H   H471      1.0  0.19952  0.71912  0.25291  1.0000
  S   S123      1.0  0.37522  0.60917  0.00388  1.0000
  C   C299      1.0  0.32547  0.61287  0.28723  1.0000
  H   H472      1.0  0.39751  0.67743  0.01043  1.0000
  S   S124      1.0  0.36867  0.65593  0.99780  1.0000
  C   C300      1.0  0.28840  0.65301  0.22748  1.0000
  Fe  Fe65      1.0  0.37958  0.63107  0.01947  1.0000
  S   S125      1.0  0.37006  0.62350  0.05131  1.0000
  H   H473      1.0  0.40744  0.68802  0.07067  1.0000
  H   H474      1.0  0.99654  0.58858  0.25541  1.0000
  S   S126      1.0  0.41097  0.62947  0.00631  1.0000
  H   H475      1.0  0.12012  0.57410  0.28482  1.0000
  H   H476      1.0  0.05269  0.60335  0.29969  1.0000
  N   N30       1.0  0.14386  0.55428  0.29575  1.0000
  S   S127      1.0  0.07583  0.64670  0.30171  1.0000
  H   H477      1.0  0.31277  0.56742  0.98467  1.0000
  H   H478      1.0  0.00990  0.57793  0.27440  1.0000
  S   S128      1.0  0.37380  0.49101  0.11758  1.0000
  C   C301      1.0  0.14469  0.66080  0.29013  1.0000
  C   C302      1.0  0.28567  0.48533  0.14909  1.0000
  H   H479      1.0  0.45222  0.67814  0.06434  1.0000
  H   H480      1.0  0.18696  0.70121  0.24952  1.0000
  Fe  Fe66      1.0  0.20820  0.65924  0.29765  1.0000
  H   H481      1.0  0.30444  0.49979  0.18622  1.0000
  Fe  Fe67      1.0  0.36891  0.66413  0.13940  1.0000
  S   S129      1.0  0.39782  0.64877  0.14624  1.0000
  C   C303      1.0  0.23553  0.55146  0.30998  1.0000
  N   N31       1.0  0.21785  0.69613  0.23965  1.0000
  S   S130      1.0  0.37570  0.63752  0.19026  1.0000
  Fe  Fe68      1.0  0.38201  0.62537  0.16327  1.0000
  S   S131      1.0  0.39455  0.59381  0.16409  1.0000
  S   S132      1.0  0.35365  0.63964  0.15444  1.0000
  Fe  Fe69      1.0  0.36715  0.63369  0.98083  1.0000
  C   C304      1.0  0.39208  0.54664  0.08097  1.0000
  H   H482      1.0  0.35961  0.57052  0.09264  1.0000
  S   S133      1.0  0.23730  0.64427  0.28508  1.0000
  H   H483      1.0  0.17108  0.56332  0.29398  1.0000
  S   S134      1.0  0.38305  0.50309  0.99170  1.0000
  H   H484      1.0  0.00622  0.68442  0.25644  1.0000
  H   H485      1.0  0.09083  0.49022  0.30521  1.0000
  H   H486      1.0  0.33038  0.62003  0.27236  1.0000
  H   H487      1.0  0.23108  0.66939  0.23005  1.0000
  H   H488      1.0  0.21869  0.66694  0.25433  1.0000
  C   C305      1.0  0.44438  0.69921  0.00200  1.0000
  H   H489      1.0  0.28926  0.60840  0.28456  1.0000
  H   H490      1.0  0.40993  0.65274  0.07774  1.0000
  H   H491      1.0  0.45766  0.70475  0.99970  1.0000
  S   S135      1.0  0.20246  0.51437  0.27329  1.0000
  C   C306      1.0  0.41747  0.65256  0.08972  1.0000
  C   C307      1.0  0.27138  0.49256  0.22737  1.0000
  H   H492      1.0  0.14189  0.52416  0.30385  1.0000
  Fe  Fe70      1.0  0.35859  0.51102  0.13801  1.0000
  S   S136      1.0  0.33139  0.49804  0.14641  1.0000
  S   S137      1.0  0.35474  0.54317  0.12777  1.0000
  S   S138      1.0  0.31802  0.64952  0.19723  1.0000
  C   C308      1.0  0.21691  0.70707  0.22017  1.0000
  H   H493      1.0  0.38977  0.70827  0.18098  1.0000
  C   C309      1.0  0.27943  0.50063  0.20881  1.0000
  S   S139      1.0  0.43579  0.71057  0.03706  1.0000
  S   S140      1.0  0.02530  0.67164  0.28814  1.0000
  C   C310      1.0  0.99813  0.67429  0.26642  1.0000
  C   C311      1.0  0.99747  0.58915  0.27035  1.0000
  C   C312      1.0  0.12758  0.55888  0.28503  1.0000
  Fe  Fe71      1.0  0.40564  0.60958  0.98895  1.0000
  C   C313      1.0  0.32612  0.55916  0.98998  1.0000
  S   S141      1.0  0.21977  0.68411  0.30246  1.0000
  H   H494      1.0  0.14685  0.65585  0.27669  1.0000
  H   H495      1.0  0.42363  0.69931  0.07854  1.0000
  H   H496      1.0  0.23576  0.71361  0.24619  1.0000
  H   H497      1.0  0.31233  0.65113  0.28099  1.0000
  H   H498      1.0  0.32821  0.67428  0.21943  1.0000
  C   C314      1.0  0.31441  0.67011  0.22635  1.0000
  C   C315      1.0  0.07195  0.57766  0.30952  1.0000
  S   S142      1.0  0.02634  0.54538  0.30303  1.0000
  H   H499      1.0  0.21676  0.72265  0.21951  1.0000
  H   H500      1.0  0.33233  0.54760  0.98140  1.0000
  H   H501      1.0  0.35439  0.55262  0.01077  1.0000
  H   H502      1.0  0.99917  0.64458  0.30929  1.0000
  Fe  Fe72      1.0  0.38940  0.66248  0.17244  1.0000
  C   C316      1.0  0.41063  0.68344  0.00806  1.0000
  C   C317      1.0  0.33795  0.49807  0.08152  1.0000
  C   C318      1.0  0.33156  0.58665  0.00068  1.0000
  H   H503      1.0  0.44902  0.68328  0.18515  1.0000
  H   H504      1.0  0.16479  0.56343  0.27139  1.0000
  Fe  Fe73      1.0  0.39995  0.65270  0.98332  1.0000
  C   C319      1.0  0.33847  0.50886  0.06299  1.0000
  H   H505      1.0  0.00105  0.60345  0.27036  1.0000
  N   N32       1.0  0.42874  0.66839  0.08544  1.0000
  H   H506      1.0  0.33919  0.50472  0.09311  1.0000
  H   H507      1.0  0.34009  0.52381  0.06038  1.0000
  C   C320      1.0  0.38387  0.57998  0.15335  1.0000
  C   C321      1.0  0.38807  0.55986  0.15788  1.0000
  C   C322      1.0  0.37920  0.54841  0.15012  1.0000
  C   C323      1.0  0.36615  0.55707  0.13770  1.0000
  C   C324      1.0  0.36208  0.57721  0.13300  1.0000
  C   C325      1.0  0.37093  0.58864  0.14080  1.0000
  H   H508      1.0  0.39816  0.55310  0.16752  1.0000
  H   H509      1.0  0.38256  0.53292  0.15369  1.0000
  H   H510      1.0  0.35199  0.58401  0.12338  1.0000
  H   H511      1.0  0.36785  0.60414  0.13700  1.0000
  C   C326      1.0  0.28640  0.67161  0.25221  1.0000
  C   C327      1.0  0.15258  0.53373  0.29655  1.0000
  H   H512      1.0  0.26463  0.65556  0.25104  1.0000
  H   H513      1.0  0.28208  0.64388  0.22138  1.0000
  H   H514      1.0  0.31836  0.59578  0.99569  1.0000
  H   H515      1.0  0.22964  0.70177  0.20973  1.0000
  H   H516      1.0  0.29624  0.62967  0.26889  1.0000
  H   H517      1.0  0.43635  0.66743  0.05543  1.0000
  C   C328      1.0  0.42281  0.68443  0.99024  1.0000
  C   C329      1.0  0.29835  0.49325  0.20039  1.0000
  H   H518      1.0  0.45347  0.65246  0.06960  1.0000
  H   H519      1.0  0.37340  0.66416  0.04489  1.0000
  S   S143      1.0  0.36763  0.67895  0.10893  1.0000
  H   H520      1.0  0.32169  0.55198  0.00495  1.0000
  H   H521      1.0  0.34173  0.59658  0.99994  1.0000
  S   S144      1.0  0.33705  0.51444  0.02489  1.0000
  H   H522      1.0  0.27113  0.49166  0.14527  1.0000
  H   H523      1.0  0.42784  0.66904  0.11501  1.0000
  H   H524      1.0  0.40511  0.69087  0.03608  1.0000
  H   H525      1.0  0.29655  0.48669  0.13563  1.0000
  S   S145      1.0  0.24741  0.50233  0.23702  1.0000
  S   S146      1.0  0.18358  0.66232  0.28179  1.0000
  H   H526      1.0  0.40461  0.68925  0.09545  1.0000
  C   C330      1.0  0.42626  0.72946  0.18684  1.0000
  Fe  Fe74      1.0  0.34804  0.65358  0.18042  1.0000
  C   C331      1.0  0.35790  0.56010  0.99576  1.0000
  C   C332      1.0  0.43855  0.66752  0.10164  1.0000
  H   H527      1.0  0.37161  0.68584  0.06789  1.0000
  H   H528      1.0  0.38749  0.54387  0.09677  1.0000
  S   S147      1.0  0.37213  0.49326  0.16270  1.0000
  C   C333      1.0  0.36972  0.63932  0.06680  1.0000
  C   C334      1.0  0.36728  0.63226  0.08648  1.0000
  C   C335      1.0  0.36676  0.64433  0.09939  1.0000
  C   C336      1.0  0.36810  0.66372  0.09280  1.0000
  H   H529      1.0  0.36568  0.61741  0.09182  1.0000
  C   C337      1.0  0.43169  0.69927  0.01946  1.0000
  N   N33       1.0  0.34033  0.57174  0.98881  1.0000
  H   H530      1.0  0.38683  0.56173  0.04487  1.0000
  C   C338      1.0  0.27847  0.65963  0.24432  1.0000
  C   C339      1.0  0.06218  0.54761  0.30905  1.0000
  S   S148      1.0  0.41542  0.67088  0.17999  1.0000
  H   H531      1.0  0.40613  0.65373  0.10268  1.0000
  C   C340      1.0  0.30436  0.67687  0.24313  1.0000
  H   H532      1.0  0.27098  0.51277  0.20097  1.0000
  H   H533      1.0  0.40937  0.56656  0.04833  1.0000
  H   H534      1.0  0.36507  0.63866  0.11447  1.0000
  H   H535      1.0  0.23705  0.68989  0.26009  1.0000
  H   H536      1.0  0.20490  0.67327  0.23555  1.0000
  C   C341      1.0  0.43745  0.69563  0.18493  1.0000
  C   C342      1.0  0.23566  0.69835  0.24563  1.0000
  C   C343      1.0  0.36519  0.57272  0.07702  1.0000
  H   H537      1.0  0.02834  0.58582  0.29502  1.0000
  S   S149      1.0  0.36114  0.67969  0.16447  1.0000
  N   N34       1.0  0.38654  0.56719  0.07291  1.0000
  C   C344      1.0  0.39556  0.57899  0.08171  1.0000
  H   H538      1.0  0.38929  0.58577  0.04549  1.0000
  H   H539      1.0  0.36044  0.58816  0.07125  1.0000
  H   H540      1.0  0.39046  0.57723  0.09743  1.0000
  H   H541      1.0  0.39194  0.59455  0.07572  1.0000
  H   H542      1.0  0.41164  0.57501  0.07915  1.0000
  H   H543      1.0  0.42688  0.63825  0.09231  1.0000
  H   H544      1.0  0.15803  0.53019  0.28199  1.0000
  H   H545      1.0  0.42748  0.72289  0.12696  1.0000
  S   S150      1.0  0.23974  0.49684  0.29453  1.0000
  C   C345      1.0  0.30639  0.65822  0.21842  1.0000
  H   H546      1.0  0.31055  0.68625  0.24907  1.0000
  H   H547      1.0  0.20121  0.69593  0.26793  1.0000
  H   H548      1.0  0.16508  0.52977  0.30434  1.0000
  C   C346      1.0  0.44337  0.66645  0.06798  1.0000
  C   C347      1.0  0.41555  0.68705  0.08242  1.0000
  N   N35       1.0  0.32593  0.59336  0.18833  1.0000
  C   C348      1.0  0.30970  0.59549  0.20449  1.0000
  C   C349      1.0  0.32058  0.60660  0.17103  1.0000
  C   C350      1.0  0.33012  0.57333  0.18485  1.0000
  C   C351      1.0  0.34336  0.59807  0.19293  1.0000
  H   H549      1.0  0.30623  0.61054  0.20732  1.0000
  H   H550      1.0  0.31329  0.58583  0.21783  1.0000
  H   H551      1.0  0.29629  0.59202  0.20155  1.0000
  H   H552      1.0  0.33251  0.60542  0.15854  1.0000
  H   H553      1.0  0.30745  0.60352  0.16715  1.0000
  H   H554      1.0  0.31744  0.62187  0.17313  1.0000
  H   H555      1.0  0.31743  0.56933  0.18098  1.0000
  H   H556      1.0  0.33405  0.56290  0.19765  1.0000
  H   H557      1.0  0.34253  0.57126  0.17293  1.0000
  H   H558      1.0  0.35561  0.59741  0.18077  1.0000
  H   H559      1.0  0.34834  0.58796  0.20544  1.0000
  H   H560      1.0  0.34066  0.61287  0.19616  1.0000
  H   H561      1.0  0.32463  0.59775  0.28675  1.0000
  C   C352      1.0  0.21820  0.67555  0.23980  1.0000
  C   C353      1.0  0.16047  0.66483  0.29628  1.0000
  C   C354      1.0  0.41897  0.69364  0.18267  1.0000
  H   H562      1.0  0.36487  0.54878  0.98698  1.0000
  H   H563      1.0  0.35787  0.56410  0.07065  1.0000
  H   H564      1.0  0.11933  0.49858  0.28114  1.0000
  C   C355      1.0  0.40409  0.70965  0.18256  1.0000
  H   H565      1.0  0.45544  0.71476  0.18854  1.0000
  H   H566      1.0  0.38512  0.53733  0.07505  1.0000
  C   C356      1.0  0.41499  0.69101  0.02260  1.0000
  H   H567      1.0  0.44852  0.65357  0.10447  1.0000
  C   C357      1.0  0.20065  0.70350  0.25302  1.0000
  S   S151      1.0  0.27424  0.68033  0.27328  1.0000
  H   H568      1.0  0.32743  0.58019  0.01593  1.0000
  H   H569      1.0  0.43647  0.72149  0.14842  1.0000
  H   H570      1.0  0.40807  0.54185  0.07790  1.0000
  Fe  Fe75      1.0  0.24919  0.66741  0.29250  1.0000
  C   C358      1.0  0.29183  0.62320  0.28407  1.0000
  H   H571      1.0  0.44725  0.67923  0.09884  1.0000
  C   C359      1.0  0.15870  0.56628  0.28610  1.0000
  H   H572      1.0  0.26310  0.56066  0.30663  1.0000
  S   S152      1.0  0.16020  0.48916  0.28099  1.0000
  Fe  Fe76      1.0  0.23098  0.49458  0.26725  1.0000
  C   C360      1.0  0.37053  0.67085  0.07309  1.0000
  Fe  Fe77      1.0  0.35202  0.49947  0.00017  1.0000
  H   H573      1.0  0.42672  0.54026  0.98585  1.0000
  C   C361      1.0  0.44113  0.71346  0.18688  1.0000
  C   C362      1.0  0.39331  0.57039  0.05201  1.0000
  C   C363      1.0  0.05522  0.58781  0.30260  1.0000
  C   C364      1.0  0.37157  0.65860  0.06006  1.0000
  H   H574      1.0  0.28866  0.49436  0.15843  1.0000
  H   H575      1.0  0.20357  0.70576  0.21530  1.0000
  H   H576      1.0  0.11648  0.54957  0.29155  1.0000
  H   H577      1.0  0.45326  0.71828  0.12687  1.0000
  H   H578      1.0  0.13265  0.55666  0.26999  1.0000
  H   H579      1.0  0.29423  0.65142  0.30201  1.0000
  S   S153      1.0  0.42339  0.58029  0.98739  1.0000
  H   H580      1.0  0.33690  0.61245  0.29565  1.0000
  C   C365      1.0  0.43980  0.69212  0.98730  1.0000
  H   H581      1.0  0.24897  0.69326  0.23572  1.0000
  Fe  Fe78      1.0  0.19006  0.48784  0.28752  1.0000
  Fe  Fe79      1.0  0.45791  0.73039  0.02767  1.0000
  H   H582      1.0  0.36896  0.56914  0.99508  1.0000
  H   H583      1.0  0.15256  0.58190  0.28507  1.0000
  C   C366      1.0  0.40769  0.72743  0.18484  1.0000
  C   C367      1.0  0.00476  0.66492  0.28331  1.0000
  Fe  Fe80      1.0  0.21012  0.51422  0.30149  1.0000
  H   H584      1.0  0.11400  0.65996  0.29648  1.0000
  C   C368      1.0  0.33688  0.50041  0.04785  1.0000
  C   C369      1.0  0.43915  0.72662  0.13274  1.0000
  C   C370      1.0  0.12146  0.49015  0.29495  1.0000
  C   C371      1.0  0.04485  0.55773  0.30331  1.0000
  C   C372      1.0  0.04161  0.57786  0.29958  1.0000
  C   C373      1.0  0.12608  0.66306  0.30136  1.0000
  H   H585      1.0  0.24188  0.53788  0.30539  1.0000
  H   H586      1.0  0.40391  0.72559  0.99106  1.0000
  H   H587      1.0  0.27764  0.63168  0.28946  1.0000
  C   C374      1.0  0.10529  0.48542  0.30857  1.0000
  S   S154      1.0  0.47957  0.73124  0.00053  1.0000
  C   C375      1.0  0.30823  0.64320  0.29572  1.0000
  N   N36       1.0  0.30653  0.62316  0.29562  1.0000
  H   H588      1.0  0.31931  0.64380  0.30415  1.0000
  S   S155      1.0  0.47921  0.73082  0.04617  1.0000
  C   C376      1.0  0.99416  0.65181  0.29616  1.0000
  C   C377      1.0  0.08201  0.64303  0.60677  1.0000
  H   H589      1.0  0.02838  0.58940  0.38743  1.0000
  C   C378      1.0  0.20786  0.49308  0.35893  1.0000
  H   H590      1.0  0.09156  0.65311  0.63694  1.0000
  H   H591      1.0  0.26001  0.71658  0.62276  1.0000
  H   H592      1.0  0.24253  0.48667  0.33600  1.0000
  H   H593      1.0  0.01491  0.65039  0.44397  1.0000
  H   H594      1.0  0.21288  0.60072  0.32553  1.0000
  S   S156      1.0  0.07601  0.62910  0.34733  1.0000
  H   H595      1.0  0.09311  0.69262  0.41226  1.0000
  H   H596      1.0  0.10618  0.69632  0.35957  1.0000
  H   H597      1.0  0.07785  0.67848  0.40676  1.0000
  C   C379      1.0  0.10468  0.66132  0.38104  1.0000
  C   C380      1.0  0.22184  0.69398  0.36639  1.0000
  H   H598      1.0  0.14595  0.70197  0.63192  1.0000
  H   H599      1.0  0.12999  0.57366  0.31525  1.0000
  H   H600      1.0  0.01721  0.50535  0.43187  1.0000
  H   H601      1.0  0.25246  0.50524  0.34163  1.0000
  S   S157      1.0  0.11406  0.70593  0.61288  1.0000
  C   C381      1.0  0.08523  0.67614  0.60409  1.0000
  H   H602      1.0  0.19117  0.71638  0.60277  1.0000
  H   H603      1.0  0.04728  0.68056  0.61887  1.0000
  H   H604      1.0  0.20210  0.69350  0.39321  1.0000
  C   C382      1.0  0.02120  0.65423  0.42909  1.0000
  H   H605      1.0  0.28624  0.62061  0.32202  1.0000
  H   H606      1.0  0.04387  0.53998  0.37544  1.0000
  C   C383      1.0  0.10559  0.55909  0.62293  1.0000
  S   S158      1.0  0.09358  0.52430  0.63415  1.0000
  Fe  Fe81      1.0  0.02258  0.49978  0.36448  1.0000
  C   C384      1.0  0.13886  0.67402  0.32463  1.0000
  H   H607      1.0  0.04478  0.65591  0.62096  1.0000
  S   S159      1.0  0.06196  0.71806  0.44852  1.0000
  H   H608      1.0  0.01162  0.56489  0.35515  1.0000
  C   C385      1.0  0.18051  0.70989  0.61455  1.0000
  H   H609      1.0  0.25023  0.48756  0.37512  1.0000
  S   S160      1.0  0.21830  0.72613  0.62314  1.0000
  H   H610      1.0  0.01306  0.71256  0.41138  1.0000
  H   H611      1.0  0.04368  0.66765  0.37579  1.0000
  C   C386      1.0  0.02251  0.58675  0.37538  1.0000
  S   S161      1.0  0.02598  0.63348  0.38085  1.0000
  H   H612      1.0  0.14310  0.58847  0.63970  1.0000
  C   C387      1.0  0.02809  0.64783  0.39676  1.0000
  H   H613      1.0  0.21627  0.71691  0.40423  1.0000
  C   C388      1.0  0.03023  0.67041  0.42307  1.0000
  N   N37       1.0  0.22614  0.49876  0.36028  1.0000
  H   H614      1.0  0.03555  0.55574  0.34389  1.0000
  Fe  Fe82      1.0  0.04138  0.71231  0.43198  1.0000
  C   C389      1.0  0.10633  0.57775  0.62509  1.0000
  S   S162      1.0  0.25458  0.59832  0.31708  1.0000
  S   S163      1.0  0.21062  0.67804  0.35879  1.0000
  H   H615      1.0  0.02182  0.60035  0.36474  1.0000
  C   C390      1.0  0.03826  0.67536  0.40378  1.0000
  C   C391      1.0  0.01997  0.64310  0.41598  1.0000
  H   H616      1.0  0.24362  0.69748  0.34116  1.0000
  S   S164      1.0  0.04808  0.51135  0.34596  1.0000
  S   S165      1.0  0.04585  0.66876  0.33449  1.0000
  H   H617      1.0  0.13665  0.67937  0.33784  1.0000
  C   C392      1.0  0.23765  0.70167  0.35491  1.0000
  Fe  Fe83      1.0  0.04402  0.63951  0.35187  1.0000
  C   C393      1.0  0.01598  0.49129  0.42977  1.0000
  H   H618      1.0  0.06511  0.53208  0.31120  1.0000
  H   H619      1.0  0.08857  0.54963  0.31767  1.0000
  H   H620      1.0  0.11526  0.58649  0.61431  1.0000
  C   C394      1.0  0.09422  0.54766  0.63695  1.0000
  H   H621      1.0  0.06431  0.56243  0.35345  1.0000
  H   H622      1.0  0.19967  0.50423  0.34907  1.0000
  H   H623      1.0  0.06125  0.57635  0.37201  1.0000
  H   H624      1.0  0.21213  0.51680  0.38102  1.0000
  H   H625      1.0  0.08443  0.67911  0.58861  1.0000
  C   C395      1.0  0.22175  0.51749  0.36683  1.0000
  C   C396      1.0  0.14958  0.71497  0.63531  1.0000
  C   C397      1.0  0.09317  0.67928  0.40686  1.0000
  H   H626      1.0  0.08228  0.69582  0.37306  1.0000
  H   H627      1.0  0.04085  0.55395  0.39392  1.0000
  H   H628      1.0  0.01264  0.71511  0.38644  1.0000
  H   H629      1.0  0.19181  0.57768  0.32529  1.0000
  C   C398      1.0  0.07610  0.65725  0.63505  1.0000
  Fe  Fe84      1.0  0.07152  0.61912  0.32175  1.0000
  S   S166      1.0  0.20905  0.64220  0.32706  1.0000
  H   H630      1.0  0.15701  0.71363  0.49067  1.0000
  C   C399      1.0  0.03737  0.66392  0.39064  1.0000
  C   C400      1.0  0.12308  0.66984  0.31855  1.0000
  H   H631      1.0  0.02641  0.58106  0.33935  1.0000
  C   C401      1.0  0.24570  0.71490  0.36123  1.0000
  H   H632      1.0  0.08095  0.64519  0.59141  1.0000
  Fe  Fe85      1.0  0.03079  0.51671  0.32240  1.0000
  H   H633      1.0  0.12629  0.69336  0.39360  1.0000
  C   C402      1.0  0.10052  0.69929  0.63555  1.0000
  H   H634      1.0  0.11437  0.66032  0.36702  1.0000
  H   H635      1.0  0.08980  0.66073  0.37905  1.0000
  H   H636      1.0  0.10948  0.64828  0.39129  1.0000
  C   C403      1.0  0.02667  0.56794  0.35062  1.0000
  C   C404      1.0  0.01335  0.48878  0.41201  1.0000
  H   H637      1.0  0.04505  0.68798  0.39897  1.0000
  H   H638      1.0  0.13175  0.66756  0.39857  1.0000
  H   H639      1.0  0.29902  0.59823  0.31578  1.0000
  S   S167      1.0  0.03015  0.68437  0.44013  1.0000
  C   C405      1.0  0.21929  0.58705  0.32118  1.0000
  C   C406      1.0  0.03489  0.55264  0.38140  1.0000
  H   H640      1.0  0.05503  0.58769  0.34923  1.0000
  H   H641      1.0  0.09755  0.63788  0.60809  1.0000
  H   H642      1.0  0.11388  0.55346  0.61046  1.0000
  S   S168      1.0  0.09974  0.67374  0.33247  1.0000
  H   H643      1.0  0.05156  0.67000  0.59782  1.0000
  H   H644      1.0  0.21426  0.52898  0.35661  1.0000
  H   H645      1.0  0.23521  0.52227  0.36797  1.0000
  S   S169      1.0  0.00422  0.50793  0.34178  1.0000
  C   C407      1.0  0.20736  0.57394  0.32105  1.0000
  H   H646      1.0  0.06978  0.67018  0.64173  1.0000
  H   H647      1.0  0.18800  0.70411  0.62705  1.0000
  H   H648      1.0  0.01278  0.63071  0.42079  1.0000
  H   H649      1.0  0.09867  0.66689  0.41745  1.0000
  Fe  Fe86      1.0  0.09831  0.73009  0.59395  1.0000
  C   C408      1.0  0.09751  0.69603  0.37422  1.0000
  N   N38       1.0  0.03469  0.57041  0.36690  1.0000
  H   H650      1.0  0.14979  0.71896  0.59728  1.0000
  N   N39       1.0  0.07422  0.66087  0.61472  1.0000
  C   C409      1.0  0.13659  0.55822  0.31535  1.0000
  C   C410      1.0  0.21425  0.69951  0.38421  1.0000
  S   S170      1.0  0.03900  0.62676  0.32818  1.0000
  C   C411      1.0  0.23793  0.72062  0.37896  1.0000
  H   H651      1.0  0.13487  0.68011  0.37432  1.0000
  S   S171      1.0  0.07687  0.72552  0.57765  1.0000
  N   N40       1.0  0.10519  0.67916  0.38768  1.0000
  S   S172      1.0  0.19573  0.48902  0.31624  1.0000
  H   H652      1.0  0.10084  0.67218  0.60547  1.0000
  C   C412      1.0  0.22222  0.71280  0.39047  1.0000
  C   C413      1.0  0.23942  0.58226  0.31616  1.0000
  H   H653      1.0  0.07950  0.68987  0.60955  1.0000
  H   H654      1.0  0.07407  0.63115  0.61453  1.0000
  H   H655      1.0  0.13176  0.72327  0.49691  1.0000
  Fe  Fe87      1.0  0.07784  0.65747  0.32789  1.0000
  S   S173      1.0  0.01264  0.50851  0.39318  1.0000
  S   S174      1.0  0.08741  0.58987  0.31624  1.0000
  H   H656      1.0  0.23127  0.51139  0.33067  1.0000
  S   S175      1.0  0.19982  0.53990  0.31635  1.0000
  Fe  Fe88      1.0  0.23933  0.62925  0.31495  1.0000
  C   C414      1.0  0.23263  0.70927  0.63811  1.0000
  H   H657      1.0  0.14972  0.72146  0.41358  1.0000
  C   C415      1.0  0.05469  0.57434  0.36015  1.0000
  C   C416      1.0  0.12543  0.68006  0.38859  1.0000
  H   H658      1.0  0.09773  0.70976  0.37879  1.0000
  H   H659      1.0  0.12519  0.54959  0.32297  1.0000
  H   H660      1.0  0.16965  0.67447  0.31848  1.0000
  Fe  Fe89      1.0  0.22258  0.66621  0.33137  1.0000
  C   C417      1.0  0.07565  0.55756  0.31234  1.0000
  C   C418      1.0  0.21540  0.55616  0.31541  1.0000
  C   C419      1.0  0.24754  0.56439  0.31063  1.0000
  H   H661      1.0  0.00737  0.58424  0.38093  1.0000
  C   C420      1.0  0.05353  0.66709  0.61300  1.0000
  S   S176      1.0  0.25304  0.65163  0.32193  1.0000
  C   C421      1.0  0.25279  0.70781  0.63503  1.0000
  C   C422      1.0  0.23868  0.50058  0.34133  1.0000
  H   H662      1.0  0.16281  0.59954  0.64161  1.0000
  C   C423      1.0  0.30060  0.61335  0.31537  1.0000
  H   H663      1.0  0.13563  0.72489  0.63865  1.0000
  C   C424      1.0  0.15756  0.67127  0.31366  1.0000
  H   H664      1.0  0.07462  0.71974  0.63071  1.0000
  H   H665      1.0  0.17694  0.69745  0.61002  1.0000
  H   H666      1.0  0.02002  0.54919  0.38677  1.0000
  H   H667      1.0  0.14852  0.55479  0.32384  1.0000
  H   H668      1.0  0.25788  0.72088  0.35226  1.0000
  N   N41       1.0  0.16294  0.72415  0.61927  1.0000
  H   H669      1.0  0.31124  0.61312  0.32460  1.0000
  C   C425      1.0  0.08130  0.70820  0.64062  1.0000
  H   H670      1.0  0.19819  0.49112  0.37305  1.0000
  C   C426      1.0  0.00470  0.72005  0.39989  1.0000
  C   C427      1.0  0.09560  0.58500  0.64121  1.0000
  H   H671      1.0  0.18730  0.72897  0.36498  1.0000
  H   H672      1.0  0.14209  0.72183  0.47249  1.0000
  S   S177      1.0  0.10909  0.72614  0.41255  1.0000
  S   S178      1.0  0.05727  0.72463  0.40367  1.0000
  C   C428      1.0  0.15331  0.73110  0.60240  1.0000
  S   S179      1.0  0.04248  0.48791  0.31343  1.0000
  Fe  Fe90      1.0  0.07630  0.73304  0.42047  1.0000
  H   H673      1.0  0.21814  0.72984  0.52377  1.0000
  Fe  Fe91      1.0  0.04345  0.65524  0.31016  1.0000
  C   C429      1.0  0.14496  0.72490  0.48590  1.0000
  H   H674      1.0  0.06852  0.64535  0.64334  1.0000
  C   C430      1.0  0.00050  0.56646  0.69365  1.0000
  H   H675      1.0  0.06806  0.56979  0.76300  1.0000
  S   S180      1.0  0.20586  0.53140  0.67823  1.0000
  Fe  Fe92      1.0  0.33516  0.50641  0.80961  1.0000
  S   S181      1.0  0.33970  0.53478  0.79036  1.0000
  S   S182      1.0  0.10082  0.62876  0.68594  1.0000
  H   H676      1.0  0.12672  0.56877  0.66796  1.0000
  H   H677      1.0  0.30257  0.62760  0.92367  1.0000
  N   N42       1.0  0.08737  0.54755  0.74942  1.0000
  H   H678      1.0  0.00802  0.52831  0.70272  1.0000
  Fe  Fe93      1.0  0.37076  0.60593  0.83382  1.0000
  S   S183      1.0  0.33868  0.61571  0.83942  1.0000
  S   S184      1.0  0.38193  0.57438  0.83521  1.0000
  Fe  Fe94      1.0  0.37942  0.64639  0.82994  1.0000
  S   S185      1.0  0.34775  0.65909  0.83598  1.0000
  S   S186      1.0  0.40400  0.66356  0.81958  1.0000
  Fe  Fe95      1.0  0.34574  0.63274  0.85886  1.0000
  S   S187      1.0  0.32634  0.62933  0.88760  1.0000
  Fe  Fe96      1.0  0.34401  0.64064  0.81603  1.0000
  S   S188      1.0  0.32841  0.65356  0.79092  1.0000
  S   S189      1.0  0.37768  0.62151  0.85447  1.0000
  S   S190      1.0  0.37583  0.62927  0.80877  1.0000
  Fe  Fe97      1.0  0.25382  0.64550  0.70176  1.0000
  S   S191      1.0  0.23538  0.65099  0.72982  1.0000
  S   S192      1.0  0.26830  0.66808  0.68018  1.0000
  Fe  Fe98      1.0  0.25132  0.60287  0.71096  1.0000
  S   S193      1.0  0.23242  0.60513  0.73934  1.0000
  S   S194      1.0  0.26296  0.57331  0.70397  1.0000
  Fe  Fe99      1.0  0.21679  0.63208  0.72362  1.0000
  S   S195      1.0  0.18430  0.64195  0.72664  1.0000
  Fe  Fe100     1.0  0.25290  0.62346  0.74288  1.0000
  S   S196      1.0  0.26480  0.61464  0.77080  1.0000
  S   S197      1.0  0.23424  0.62839  0.69472  1.0000
  S   S198      1.0  0.27276  0.61943  0.71531  1.0000
  C   C431      1.0  0.25445  0.68328  0.66373  1.0000
  C   C432      1.0  0.23432  0.68447  0.66656  1.0000
  H   H679      1.0  0.22710  0.67558  0.67875  1.0000
  C   C433      1.0  0.31129  0.64210  0.78518  1.0000
  C   C434      1.0  0.30388  0.64942  0.76816  1.0000
  C   C435      1.0  0.28979  0.64107  0.76344  1.0000
  C   C436      1.0  0.28280  0.62543  0.77585  1.0000
  C   C437      1.0  0.29038  0.61795  0.79276  1.0000
  C   C438      1.0  0.30464  0.62615  0.79737  1.0000
  H   H680      1.0  0.30893  0.66174  0.75864  1.0000
  H   H681      1.0  0.28407  0.64696  0.75038  1.0000
  H   H682      1.0  0.28490  0.60602  0.80249  1.0000
  H   H683      1.0  0.31015  0.62047  0.81053  1.0000
  C   C439      1.0  0.33172  0.63063  0.90984  1.0000
  C   C440      1.0  0.30292  0.56930  0.76668  1.0000
  N   N43       1.0  0.15133  0.58179  0.66744  1.0000
  C   C441      1.0  0.35008  0.63252  0.91252  1.0000
  C   C442      1.0  0.16553  0.56443  0.66348  1.0000
  S   S199      1.0  0.00930  0.50068  0.67960  1.0000
  H   H684      1.0  0.36176  0.63371  0.90043  1.0000
  H   H685      1.0  0.33334  0.71376  0.79122  1.0000
  H   H686      1.0  0.99724  0.53762  0.72418  1.0000
  C   C443      1.0  0.39185  0.69136  0.84260  1.0000
  C   C444      1.0  0.40653  0.68323  0.82920  1.0000
  C   C445      1.0  0.42336  0.69148  0.82247  1.0000
  C   C446      1.0  0.42553  0.70779  0.82901  1.0000
  H   H687      1.0  0.36132  0.71958  0.80348  1.0000
  H   H688      1.0  0.37884  0.68510  0.84792  1.0000
  H   H689      1.0  0.43478  0.68526  0.81209  1.0000
  C   C447      1.0  0.14009  0.60463  0.72538  1.0000
  C   C448      1.0  0.13531  0.62468  0.72224  1.0000
  C   C449      1.0  0.14910  0.63585  0.72254  1.0000
  C   C450      1.0  0.16793  0.62714  0.72553  1.0000
  C   C451      1.0  0.17292  0.60704  0.72821  1.0000
  C   C452      1.0  0.15894  0.59581  0.72837  1.0000
  H   H690      1.0  0.12085  0.63165  0.72000  1.0000
  H   H691      1.0  0.14512  0.65136  0.72054  1.0000
  H   H692      1.0  0.18739  0.60022  0.73057  1.0000
  H   H693      1.0  0.16276  0.58029  0.73078  1.0000
  H   H694      1.0  0.36380  0.70798  0.75541  1.0000
  H   H695      1.0  0.30306  0.55048  0.81610  1.0000
  C   C453      1.0  0.35381  0.54629  0.80002  1.0000
  C   C454      1.0  0.35039  0.56640  0.79814  1.0000
  C   C455      1.0  0.35941  0.57530  0.80849  1.0000
  C   C456      1.0  0.37213  0.56408  0.82041  1.0000
  C   C457      1.0  0.37650  0.54416  0.82122  1.0000
  C   C458      1.0  0.36749  0.53534  0.81092  1.0000
  H   H696      1.0  0.34035  0.57509  0.78920  1.0000
  H   H697      1.0  0.35633  0.59077  0.80744  1.0000
  H   H698      1.0  0.38674  0.53548  0.82997  1.0000
  H   H699      1.0  0.37131  0.52002  0.81127  1.0000
  C   C459      1.0  0.22194  0.54373  0.68424  1.0000
  C   C460      1.0  0.21667  0.56333  0.68548  1.0000
  C   C461      1.0  0.22923  0.57275  0.69130  1.0000
  C   C462      1.0  0.24722  0.56262  0.69554  1.0000
  C   C463      1.0  0.25256  0.54319  0.69393  1.0000
  C   C464      1.0  0.23991  0.53377  0.68850  1.0000
  H   H700      1.0  0.20277  0.57114  0.68232  1.0000
  H   H701      1.0  0.22498  0.58777  0.69256  1.0000
  H   H702      1.0  0.38389  0.71220  0.76428  1.0000
  C   C465      1.0  0.32996  0.49679  0.92574  1.0000
  H   H703      1.0  0.43019  0.72828  0.88602  1.0000
  Fe  Fe101     1.0  0.04110  0.49340  0.68188  1.0000
  C   C466      1.0  0.31705  0.49704  0.89727  1.0000
  H   H704      1.0  0.42515  0.69178  0.93045  1.0000
  H   H705      1.0  0.11833  0.49826  0.70513  1.0000
  H   H706      1.0  0.10496  0.66678  0.67631  1.0000
  S   S200      1.0  0.08196  0.58952  0.69984  1.0000
  H   H707      1.0  0.36734  0.63432  0.93316  1.0000
  C   C467      1.0  0.08398  0.57373  0.65502  1.0000
  Fe  Fe102     1.0  0.07396  0.49298  0.70255  1.0000
  Fe  Fe103     1.0  0.09659  0.60704  0.71258  1.0000
  N   N44       1.0  0.35799  0.56887  0.89582  1.0000
  C   C468      1.0  0.30073  0.57049  0.73379  1.0000
  C   C469      1.0  0.37889  0.56365  0.88827  1.0000
  C   C470      1.0  0.34981  0.55121  0.90458  1.0000
  C   C471      1.0  0.35548  0.58120  0.91028  1.0000
  S   S201      1.0  0.06841  0.62384  0.72555  1.0000
  C   C472      1.0  0.33206  0.56286  0.74375  1.0000
  H   H708      1.0  0.28957  0.49641  0.74774  1.0000
  H   H709      1.0  0.38709  0.55577  0.89984  1.0000
  H   H710      1.0  0.38137  0.55439  0.87725  1.0000
  H   H711      1.0  0.38546  0.57665  0.88133  1.0000
  H   H712      1.0  0.35734  0.54273  0.91641  1.0000
  H   H713      1.0  0.35135  0.54169  0.89397  1.0000
  H   H714      1.0  0.33413  0.55466  0.91066  1.0000
  H   H715      1.0  0.33987  0.58617  0.91571  1.0000
  H   H716      1.0  0.36212  0.59432  0.90422  1.0000
  H   H717      1.0  0.36245  0.57342  0.92265  1.0000
  Fe  Fe104     1.0  0.08423  0.61262  0.67406  1.0000
  H   H718      1.0  0.07446  0.54646  0.66368  1.0000
  C   C473      1.0  0.40221  0.57937  0.96042  1.0000
  H   H719      1.0  0.07509  0.57950  0.66711  1.0000
  N   N45       1.0  0.30022  0.56257  0.84133  1.0000
  C   C474      1.0  0.29704  0.58182  0.84659  1.0000
  C   C475      1.0  0.28484  0.55193  0.85265  1.0000
  C   C476      1.0  0.31937  0.55182  0.84523  1.0000
  C   C477      1.0  0.29963  0.56471  0.82081  1.0000
  H   H720      1.0  0.30849  0.59017  0.83836  1.0000
  H   H721      1.0  0.29726  0.58076  0.86203  1.0000
  H   H722      1.0  0.28281  0.59043  0.84363  1.0000
  S   S202      1.0  0.05510  0.62968  0.68325  1.0000
  H   H723      1.0  0.28509  0.54964  0.86823  1.0000
  H   H724      1.0  0.27015  0.55968  0.85028  1.0000
  H   H725      1.0  0.33963  0.56619  0.72876  1.0000
  H   H726      1.0  0.32003  0.54905  0.86073  1.0000
  H   H727      1.0  0.33127  0.55975  0.83755  1.0000
  Fe  Fe105     1.0  0.05402  0.60806  0.71040  1.0000
  H   H728      1.0  0.31041  0.57349  0.81195  1.0000
  H   H729      1.0  0.28508  0.57189  0.81749  1.0000
  H   H730      1.0  0.43854  0.71404  0.82371  1.0000
  H   H731      1.0  0.35219  0.57017  0.95943  1.0000
  H   H732      1.0  0.24429  0.51880  0.68736  1.0000
  H   H733      1.0  0.30216  0.55367  0.77052  1.0000
  H   H734      1.0  0.33160  0.54715  0.74715  1.0000
  H   H735      1.0  0.31111  0.57253  0.77667  1.0000
  H   H736      1.0  0.45504  0.68858  0.88244  1.0000
  C   C478      1.0  0.39388  0.70785  0.84891  1.0000
  S   S203      1.0  0.34516  0.50999  0.97059  1.0000
  H   H737      1.0  0.15609  0.71032  0.64852  1.0000
  S   S204      1.0  0.30467  0.50558  0.82494  1.0000
  S   S205      1.0  0.34780  0.49702  0.83636  1.0000
  C   C479      1.0  0.99414  0.53523  0.71059  1.0000
  C   C480      1.0  0.36797  0.71217  0.76766  1.0000
  S   S206      1.0  0.02838  0.59288  0.72341  1.0000
  H   H738      1.0  0.11232  0.55692  0.75412  1.0000
  H   H739      1.0  0.14778  0.60434  0.68373  1.0000
  H   H740      1.0  0.01498  0.63436  0.71898  1.0000
  S   S207      1.0  0.08044  0.49786  0.72984  1.0000
  C   C481      1.0  0.37297  0.67916  0.78365  1.0000
  C   C482      1.0  0.43307  0.68598  0.91741  1.0000
  C   C483      1.0  0.10898  0.68430  0.64845  1.0000
  H   H741      1.0  0.44884  0.68369  0.91790  1.0000
  Fe  Fe106     1.0  0.37679  0.51141  0.96191  1.0000
  C   C484      1.0  0.15837  0.59141  0.68004  1.0000
  N   N46       1.0  0.42829  0.69912  0.89983  1.0000
  H   H742      1.0  0.33446  0.50442  0.93485  1.0000
  H   H743      1.0  0.12385  0.67741  0.64470  1.0000
  H   H744      1.0  0.38233  0.71424  0.85906  1.0000
  N   N47       1.0  0.36278  0.69885  0.78560  1.0000
  C   C485      1.0  0.36866  0.70478  0.80148  1.0000
  C   C486      1.0  0.34159  0.69917  0.78960  1.0000
  H   H745      1.0  0.40262  0.68787  0.90018  1.0000
  H   H746      1.0  0.42905  0.67163  0.91858  1.0000
  C   C487      1.0  0.09816  0.67796  0.66623  1.0000
  C   C488      1.0  0.13249  0.57617  0.67698  1.0000
  H   H747      1.0  0.39958  0.59486  0.95829  1.0000
  H   H748      1.0  0.16090  0.55694  0.65377  1.0000
  H   H749      1.0  0.37777  0.49315  0.87556  1.0000
  H   H750      1.0  0.13368  0.56642  0.69090  1.0000
  C   C489      1.0  0.08344  0.55502  0.65298  1.0000
  S   S208      1.0  0.20624  0.49974  0.72512  1.0000
  H   H751      1.0  0.43511  0.67678  0.88284  1.0000
  H   H752      1.0  0.36856  0.67384  0.77219  1.0000
  S   S209      1.0  0.30868  0.50988  0.87640  1.0000
  H   H753      1.0  0.20787  0.69844  0.65627  1.0000
  N   N48       1.0  0.22922  0.53852  0.75424  1.0000
  C   C490      1.0  0.25009  0.53567  0.74595  1.0000
  C   C491      1.0  0.22556  0.55044  0.76924  1.0000
  C   C492      1.0  0.22344  0.51961  0.76262  1.0000
  C   C493      1.0  0.21782  0.54836  0.73911  1.0000
  H   H754      1.0  0.25323  0.52734  0.73408  1.0000
  H   H755      1.0  0.25912  0.52763  0.75675  1.0000
  H   H756      1.0  0.25510  0.54965  0.73995  1.0000
  H   H757      1.0  0.22981  0.56480  0.76333  1.0000
  H   H758      1.0  0.20991  0.55295  0.77573  1.0000
  H   H759      1.0  0.23394  0.54345  0.78088  1.0000
  H   H760      1.0  0.22632  0.51024  0.75168  1.0000
  H   H761      1.0  0.20770  0.52109  0.76877  1.0000
  H   H762      1.0  0.23174  0.51177  0.77411  1.0000
  H   H763      1.0  0.20197  0.55079  0.74477  1.0000
  H   H764      1.0  0.22027  0.53978  0.72752  1.0000
  H   H765      1.0  0.22192  0.56265  0.73243  1.0000
  C   C494      1.0  0.32258  0.50693  0.90933  1.0000
  H   H766      1.0  0.38463  0.70444  0.79903  1.0000
  H   H767      1.0  0.05545  0.70838  0.66221  1.0000
  H   H768      1.0  0.10560  0.52980  0.73008  1.0000
  H   H769      1.0  0.08426  0.57836  0.74209  1.0000
  H   H770      1.0  0.30075  0.48718  0.77902  1.0000
  H   H771      1.0  0.42610  0.72458  0.91163  1.0000
  S   S210      1.0  0.38393  0.53838  0.94213  1.0000
  Fe  Fe107     1.0  0.21054  0.50072  0.69366  1.0000
  H   H772      1.0  0.36053  0.72719  0.76862  1.0000
  C   C495      1.0  0.07503  0.53291  0.75854  1.0000
  C   C496      1.0  0.00501  0.60715  0.72609  1.0000
  H   H773      1.0  0.39860  0.70771  0.91263  1.0000
  C   C497      1.0  0.07533  0.56693  0.74855  1.0000
  H   H774      1.0  0.06375  0.56872  0.73987  1.0000
  H   H775      1.0  0.29915  0.60425  0.74425  1.0000
  C   C498      1.0  0.33795  0.63157  0.94665  1.0000
  H   H776      1.0  0.30793  0.62864  0.95570  1.0000
  H   H777      1.0  0.29970  0.55497  0.73623  1.0000
  S   S211      1.0  0.12273  0.59046  0.72532  1.0000
  H   H778      1.0  0.27926  0.69379  0.64550  1.0000
  H   H779      1.0  0.06756  0.53517  0.77311  1.0000
  C   C499      1.0  0.10276  0.54602  0.76066  1.0000
  H   H780      1.0  0.28789  0.57749  0.76931  1.0000
  H   H781      1.0  0.12149  0.58901  0.67992  1.0000
  C   C500      1.0  0.39680  0.54992  0.95300  1.0000
  C   C501      1.0  0.31676  0.62903  0.92558  1.0000
  C   C502      1.0  0.35324  0.63287  0.93102  1.0000
  C   C503      1.0  0.41068  0.71615  0.84211  1.0000
  C   C504      1.0  0.43378  0.71795  0.89903  1.0000
  C   C505      1.0  0.12045  0.49151  0.71947  1.0000
  H   H782      1.0  0.16061  0.58161  0.69371  1.0000
  H   H783      1.0  0.38903  0.67824  0.78061  1.0000
  N   N49       1.0  0.31237  0.57444  0.74664  1.0000
  C   C506      1.0  0.31982  0.62959  0.94377  1.0000
  Fe  Fe108     1.0  0.07156  0.64426  0.69737  1.0000
  H   H784      1.0  0.34119  0.56555  0.75325  1.0000
  S   S212      1.0  0.06447  0.67657  0.69222  1.0000
  C   C507      1.0  0.34779  0.57951  0.88008  1.0000
  H   H785      1.0  0.34964  0.57086  0.86865  1.0000
  H   H786      1.0  0.35358  0.59294  0.87340  1.0000
  C   C508      1.0  0.22346  0.69744  0.65379  1.0000
  H   H787      1.0  0.33200  0.58388  0.88522  1.0000
  C   C509      1.0  0.34569  0.58105  0.96878  1.0000
  H   H788      1.0  0.32262  0.53754  0.84064  1.0000
  H   H789      1.0  0.28565  0.57871  0.73593  1.0000
  H   H790      1.0  0.10577  0.55513  0.72258  1.0000
  H   H791      1.0  0.28676  0.53739  0.84890  1.0000
  H   H792      1.0  0.32097  0.59950  0.72747  1.0000
  C   C510      1.0  0.09639  0.54429  0.72989  1.0000
  C   C511      1.0  0.31376  0.59511  0.74243  1.0000
  H   H793      1.0  0.08522  0.54510  0.72101  1.0000
  H   H794      1.0  0.32132  0.52240  0.90588  1.0000
  H   H795      1.0  0.32206  0.59875  0.75213  1.0000
  H   H796      1.0  0.30707  0.57471  0.71849  1.0000
  H   H797      1.0  0.26646  0.53528  0.69711  1.0000
  H   H798      1.0  0.36506  0.69492  0.81521  1.0000
  C   C512      1.0  0.07045  0.70178  0.65846  1.0000
  C   C513      1.0  0.39400  0.57002  0.94990  1.0000
  S   S213      1.0  0.05658  0.51651  0.68440  1.0000
  C   C514      1.0  0.43909  0.69086  0.88293  1.0000
  H   H799      1.0  0.06370  0.53321  0.75000  1.0000
  H   H800      1.0  0.08373  0.51814  0.75983  1.0000
  H   H801      1.0  0.44965  0.71654  0.89868  1.0000
  C   C515      1.0  0.07875  0.68633  0.67111  1.0000
  H   H802      1.0  0.36959  0.66897  0.79707  1.0000
  H   H803      1.0  0.11217  0.53157  0.76150  1.0000
  H   H804      1.0  0.33670  0.69449  0.77801  1.0000
  H   H805      1.0  0.09653  0.54839  0.77549  1.0000
  H   H806      1.0  0.38507  0.57846  0.93979  1.0000
  C   C516      1.0  0.00245  0.62725  0.72304  1.0000
  H   H807      1.0  0.27051  0.73046  0.67971  1.0000
  H   H808      1.0  0.17243  0.59616  0.67324  1.0000
  H   H809      1.0  0.33288  0.59021  0.96313  1.0000
  H   H810      1.0  0.33721  0.68912  0.80297  1.0000
  H   H811      1.0  0.18014  0.56798  0.65676  1.0000
  H   H812      1.0  0.16741  0.55392  0.67686  1.0000
  H   H813      1.0  0.43596  0.70058  0.86945  1.0000
  C   C517      1.0  0.40722  0.70174  0.89993  1.0000
  C   C518      1.0  0.26366  0.69490  0.64787  1.0000
  Fe  Fe109     1.0  0.07869  0.50663  0.66006  1.0000
  C   C519      1.0  0.10432  0.48925  0.73398  1.0000
  H   H814      1.0  0.24293  0.72785  0.66618  1.0000
  H   H815      1.0  0.40307  0.71182  0.88700  1.0000
  C   C520      1.0  0.28182  0.48736  0.75937  1.0000
  H   H816      1.0  0.41794  0.72491  0.96766  1.0000
  H   H817      1.0  0.35649  0.59058  0.96744  1.0000
  H   H818      1.0  0.48777  0.72946  0.93383  1.0000
  H   H819      1.0  0.01391  0.56016  0.68459  1.0000
  Fe  Fe110     1.0  0.31780  0.49429  0.85134  1.0000
  C   C521      1.0  0.40883  0.53921  0.96576  1.0000
  S   S214      1.0  0.06170  0.48561  0.65587  1.0000
  S   S215      1.0  0.34021  0.63182  0.97029  1.0000
  H   H820      1.0  0.00501  0.56928  0.70639  1.0000
  S   S216      1.0  0.39750  0.63259  0.96453  1.0000
  H   H821      1.0  0.41168  0.52369  0.96767  1.0000
  S   S217      1.0  0.41633  0.67718  0.97129  1.0000
  S   S218      1.0  0.46801  0.73338  0.85227  1.0000
  H   H822      1.0  0.99467  0.58062  0.68552  1.0000
  H   H823      1.0  0.44946  0.69254  0.97368  1.0000
  H   H824      1.0  0.15179  0.48769  0.71264  1.0000
  C   C522      1.0  0.41389  0.56867  0.97351  1.0000
  H   H825      1.0  0.99443  0.54265  0.67265  1.0000
  H   H826      1.0  0.27569  0.73119  0.64520  1.0000
  S   S219      1.0  0.25975  0.48612  0.73352  1.0000
  C   C523      1.0  0.41749  0.54858  0.97591  1.0000
  C   C524      1.0  0.40712  0.73434  0.97657  1.0000
  C   C525      1.0  0.14884  0.59515  0.64935  1.0000
  C   C526      1.0  0.13937  0.48560  0.72372  1.0000
  H   H827      1.0  0.13827  0.60845  0.65195  1.0000
  S   S220      1.0  0.09715  0.60798  0.64423  1.0000
  Fe  Fe111     1.0  0.47118  0.76294  0.03942  1.0000
  H   H828      1.0  0.45501  0.76741  0.13408  1.0000
  S   S221      1.0  0.46422  0.78213  0.06160  1.0000
  C   C527      1.0  0.48440  0.78395  0.10902  1.0000
  S   S222      1.0  0.45300  0.89193  0.29704  1.0000
  C   C528      1.0  0.47396  0.78837  0.09388  1.0000
  H   H829      1.0  0.42025  0.77387  0.13318  1.0000
  H   H830      1.0  0.39579  0.75610  0.00392  1.0000
  S   S223      1.0  0.43052  0.75243  0.18813  1.0000
  H   H831      1.0  0.45719  0.74674  0.10045  1.0000
  H   H832      1.0  0.40477  0.77715  0.99014  1.0000
  C   C529      1.0  0.47880  0.77728  0.07935  1.0000
  Fe  Fe112     1.0  0.46080  0.75865  0.18659  1.0000
  S   S224      1.0  0.46878  0.78538  0.16648  1.0000
  C   C530      1.0  0.47169  0.97419  0.30676  1.0000
  N   N50       1.0  0.41445  0.75179  0.97735  1.0000
  H   H833      1.0  0.41780  0.75407  0.15234  1.0000
  Fe  Fe113     1.0  0.48372  0.89751  0.29030  1.0000
  C   C531      1.0  0.45511  0.75168  0.13622  1.0000
  H   H834      1.0  0.39606  0.73971  0.18492  1.0000
  S   S225      1.0  0.44790  0.76233  0.02322  1.0000
  S   S226      1.0  0.47220  0.76482  0.21092  1.0000
  H   H835      1.0  0.46969  0.74486  0.12956  1.0000
  H   H836      1.0  0.43812  0.75901  0.98658  1.0000
  C   C532      1.0  0.39954  0.76398  0.98909  1.0000
  H   H837      1.0  0.46150  0.93139  0.30236  1.0000
  Fe  Fe114     1.0  0.46659  0.86147  0.29297  1.0000
  S   S227      1.0  0.45393  0.84177  0.28012  1.0000
  Fe  Fe115     1.0  0.47126  0.76331  0.99719  1.0000
  Fe  Fe116     1.0  0.48240  0.78994  0.19019  1.0000
  C   C533      1.0  0.48253  0.83971  0.22559  1.0000
  C   C534      1.0  0.47576  0.82471  0.22081  1.0000
  H   H838      1.0  0.46190  0.80025  0.09357  1.0000
  C   C535      1.0  0.48946  0.97390  0.29421  1.0000
  C   C536      1.0  0.46269  0.83547  0.25722  1.0000
  C   C537      1.0  0.45583  0.82055  0.25239  1.0000
  C   C538      1.0  0.46244  0.81507  0.23435  1.0000
  C   C539      1.0  0.48681  0.94314  0.28708  1.0000
  H   H839      1.0  0.44234  0.76958  0.10330  1.0000
  H   H840      1.0  0.44530  0.81321  0.26267  1.0000
  H   H841      1.0  0.45700  0.80359  0.23083  1.0000
  C   C540      1.0  0.47620  0.84494  0.24377  1.0000
  H   H842      1.0  0.48148  0.85653  0.24725  1.0000
  C   C541      1.0  0.46167  0.95882  0.30958  1.0000
  C   C542      1.0  0.44276  0.75376  0.10724  1.0000
  C   C543      1.0  0.46932  0.94323  0.30000  1.0000
  H   H843      1.0  0.48051  0.79251  0.12023  1.0000
  C   C544      1.0  0.42059  0.75804  0.13653  1.0000
  H   H844      1.0  0.45354  0.74625  0.15186  1.0000
  S   S228      1.0  0.48474  0.81824  0.19799  1.0000
  H   H845      1.0  0.38595  0.76862  0.98299  1.0000
  H   H846      1.0  0.40831  0.75493  0.13119  1.0000
  C   C545      1.0  0.43214  0.74619  0.98600  1.0000
  S   S229      1.0  0.48824  0.73930  0.17650  1.0000
  H   H847      1.0  0.49274  0.84732  0.21517  1.0000
  H   H848      1.0  0.42913  0.73837  0.00091  1.0000
  N   N51       1.0  0.43941  0.74752  0.12818  1.0000
  H   H849      1.0  0.43154  0.75032  0.10062  1.0000
  H   H850      1.0  0.44374  0.73681  0.97771  1.0000
  S   S230      1.0  0.49376  0.76681  0.01297  1.0000
  Fe  Fe117     1.0  0.09518  0.77255  0.57777  1.0000
  H   H851      1.0  0.99498  0.75085  0.47594  1.0000
  S   S231      1.0  0.10312  0.80106  0.57769  1.0000
  H   H852      1.0  0.16557  0.73752  0.50635  1.0000
  C   C546      1.0  0.16838  0.74059  0.62481  1.0000
  Fe  Fe118     1.0  0.35357  0.91119  0.56688  1.0000
  S   S232      1.0  0.37909  0.89345  0.57919  1.0000
  S   S233      1.0  0.35918  0.93878  0.54727  1.0000
  Fe  Fe119     1.0  0.32815  0.88046  0.58370  1.0000
  S   S234      1.0  0.35166  0.86030  0.59762  1.0000
  S   S235      1.0  0.29885  0.87418  0.58219  1.0000
  Fe  Fe120     1.0  0.35762  0.88671  0.60570  1.0000
  H   H853      1.0  0.15828  0.77401  0.37983  1.0000
  Fe  Fe121     1.0  0.37104  0.86891  0.56991  1.0000
  S   S236      1.0  0.39468  0.84821  0.55563  1.0000
  S   S237      1.0  0.33228  0.90644  0.59412  1.0000
  S   S238      1.0  0.34733  0.88720  0.55538  1.0000
  Fe  Fe122     1.0  0.21386  0.79053  0.58395  1.0000
  S   S239      1.0  0.21870  0.76204  0.57490  1.0000
  S   S240      1.0  0.18835  0.81340  0.57762  1.0000
  Fe  Fe123     1.0  0.25316  0.78280  0.59720  1.0000
  S   S241      1.0  0.26105  0.75340  0.58918  1.0000
  S   S242      1.0  0.27554  0.79120  0.61019  1.0000
  Fe  Fe124     1.0  0.24886  0.76778  0.56269  1.0000
  S   S243      1.0  0.26417  0.76755  0.53247  1.0000
  H   H854      1.0  0.42524  0.85968  0.60075  1.0000
  S   S244      1.0  0.24325  0.79732  0.56978  1.0000
  S   S245      1.0  0.22308  0.77898  0.61242  1.0000
  Fe  Fe125     1.0  0.09219  0.74469  0.55336  1.0000
  S   S246      1.0  0.05783  0.76198  0.42289  1.0000
  C   C547      1.0  0.33691  0.94408  0.44429  1.0000
  H   H855      1.0  0.15655  0.76269  0.49953  1.0000
  H   H856      1.0  0.17677  0.78854  0.36959  1.0000
  H   H857      1.0  0.21085  0.75579  0.37486  1.0000
  N   N52       1.0  0.18426  0.75942  0.36427  1.0000
  H   H858      1.0  0.16414  0.73989  0.37667  1.0000
  Fe  Fe126     1.0  0.03740  0.75233  0.40864  1.0000
  H   H859      1.0  0.01039  0.79539  0.60189  1.0000
  H   H860      1.0  0.42383  0.81051  0.62939  1.0000
  H   H861      1.0  0.42497  0.83224  0.44432  1.0000
  H   H862      1.0  0.12971  0.75580  0.46348  1.0000
  H   H863      1.0  0.29039  0.82175  0.40524  1.0000
  S   S247      1.0  0.21617  0.78345  0.40348  1.0000
  C   C548      1.0  0.03224  0.80869  0.56888  1.0000
  C   C549      1.0  0.11442  0.75994  0.42124  1.0000
  S   S248      1.0  0.20397  0.78352  0.44908  1.0000
  C   C550      1.0  0.40189  0.82288  0.60184  1.0000
  Fe  Fe127     1.0  0.19221  0.77427  0.42684  1.0000
  S   S249      1.0  0.15997  0.78268  0.42633  1.0000
  Fe  Fe128     1.0  0.22965  0.78960  0.42648  1.0000
  S   S250      1.0  0.24194  0.81730  0.42173  1.0000
  H   H864      1.0  0.02010  0.81624  0.56123  1.0000
  S   S251      1.0  0.24674  0.75974  0.43214  1.0000
  Fe  Fe129     1.0  0.34914  0.87020  0.42008  1.0000
  S   S252      1.0  0.35948  0.86581  0.38954  1.0000
  Fe  Fe130     1.0  0.36217  0.85976  0.45871  1.0000
  C   C551      1.0  0.01367  0.76536  0.56528  1.0000
  S   S253      1.0  0.39014  0.84778  0.46973  1.0000
  Fe  Fe131     1.0  0.32119  0.85587  0.45550  1.0000
  S   S254      1.0  0.30073  0.83434  0.46831  1.0000
  S   S255      1.0  0.35095  0.84322  0.44191  1.0000
  H   H865      1.0  0.16148  0.76495  0.34774  1.0000
  C   C552      1.0  0.25753  0.82187  0.43559  1.0000
  C   C553      1.0  0.26343  0.83992  0.43138  1.0000
  C   C554      1.0  0.27670  0.84387  0.44123  1.0000
  C   C555      1.0  0.28402  0.82986  0.45561  1.0000
  C   C556      1.0  0.27777  0.81196  0.46018  1.0000
  C   C557      1.0  0.26470  0.80791  0.45013  1.0000
  H   H866      1.0  0.25778  0.85088  0.42031  1.0000
  H   H867      1.0  0.28104  0.85785  0.43791  1.0000
  H   H868      1.0  0.28332  0.80103  0.47131  1.0000
  H   H869      1.0  0.26031  0.79394  0.45349  1.0000
  C   C558      1.0  0.41658  0.88674  0.36143  1.0000
  C   C559      1.0  0.40502  0.89417  0.37717  1.0000
  C   C560      1.0  0.38718  0.88834  0.38534  1.0000
  C   C561      1.0  0.38086  0.87477  0.37806  1.0000
  C   C562      1.0  0.39221  0.86760  0.36204  1.0000
  C   C563      1.0  0.41006  0.87359  0.35369  1.0000
  H   H870      1.0  0.38736  0.85718  0.35623  1.0000
  C   C564      1.0  0.99949  0.77860  0.38425  1.0000
  C   C565      1.0  0.17741  0.76460  0.34577  1.0000
  C   C566      1.0  0.01137  0.81096  0.59929  1.0000
  C   C567      1.0  0.00951  0.76144  0.58524  1.0000
  Fe  Fe132     1.0  0.45860  0.88201  0.32712  1.0000
  Fe  Fe133     1.0  0.23159  0.75303  0.41067  1.0000
  C   C568      1.0  0.41843  0.89607  0.62939  1.0000
  H   H871      1.0  0.29577  0.85531  0.40334  1.0000
  H   H872      1.0  0.37417  0.88928  0.48041  1.0000
  H   H873      1.0  0.36145  0.91060  0.46773  1.0000
  H   H874      1.0  0.38885  0.83161  0.59625  1.0000
  H   H875      1.0  0.11923  0.78661  0.42677  1.0000
  C   C569      1.0  0.12595  0.77235  0.42399  1.0000
  C   C570      1.0  0.14603  0.76647  0.42311  1.0000
  H   H876      1.0  0.39183  0.83171  0.63690  1.0000
  C   C571      1.0  0.27048  0.74699  0.64302  1.0000
  H   H877      1.0  0.00171  0.77440  0.53930  1.0000
  H   H878      1.0  0.38872  0.93166  0.63130  1.0000
  H   H879      1.0  0.18517  0.73571  0.38772  1.0000
  S   S256      1.0  0.46998  0.85121  0.32382  1.0000
  C   C572      1.0  0.34552  0.90574  0.50505  1.0000
  H   H880      1.0  0.44758  0.83673  0.42937  1.0000
  H   H881      1.0  0.36914  0.95537  0.40376  1.0000
  C   C573      1.0  0.08541  0.74139  0.49195  1.0000
  H   H882      1.0  0.28330  0.84300  0.53374  1.0000
  C   C574      1.0  0.15451  0.74798  0.41957  1.0000
  H   H883      1.0  0.41239  0.95163  0.39398  1.0000
  N   N53       1.0  0.36395  0.91262  0.49611  1.0000
  H   H884      1.0  0.02929  0.84049  0.59816  1.0000
  C   C575      1.0  0.25442  0.76436  0.49908  1.0000
  H   H885      1.0  0.39210  0.91097  0.50305  1.0000
  H   H886      1.0  0.44795  0.95894  0.31916  1.0000
  H   H887      1.0  0.35440  0.97805  0.63122  1.0000
  H   H888      1.0  0.14015  0.74681  0.51261  1.0000
  H   H889      1.0  0.26456  0.77396  0.49214  1.0000
  C   C576      1.0  0.39264  0.84755  0.53208  1.0000
  C   C577      1.0  0.40948  0.84260  0.51913  1.0000
  C   C578      1.0  0.40844  0.84259  0.50012  1.0000
  C   C579      1.0  0.39054  0.84741  0.49390  1.0000
  C   C580      1.0  0.37357  0.85195  0.50691  1.0000
  C   C581      1.0  0.37461  0.85200  0.52601  1.0000
  H   H890      1.0  0.42342  0.83900  0.52373  1.0000
  H   H891      1.0  0.42160  0.83894  0.49018  1.0000
  H   H892      1.0  0.35965  0.85522  0.50233  1.0000
  H   H893      1.0  0.36146  0.85511  0.53608  1.0000
  C   C582      1.0  0.29309  0.85078  0.58937  1.0000
  C   C583      1.0  0.30507  0.83576  0.59914  1.0000
  C   C584      1.0  0.29961  0.81751  0.60534  1.0000
  C   C585      1.0  0.28231  0.81406  0.60155  1.0000
  C   C586      1.0  0.27051  0.82896  0.59147  1.0000
  C   C587      1.0  0.27585  0.84727  0.58550  1.0000
  H   H894      1.0  0.31832  0.83832  0.60228  1.0000
  H   H895      1.0  0.30878  0.80607  0.61318  1.0000
  H   H896      1.0  0.40599  0.85940  0.58854  1.0000
  C   C588      1.0  0.40102  0.89325  0.62517  1.0000
  H   H897      1.0  0.43046  0.89871  0.61795  1.0000
  H   H898      1.0  0.39971  0.89376  0.61055  1.0000
  H   H899      1.0  0.43908  0.81571  0.60658  1.0000
  C   C589      1.0  0.23867  0.74602  0.52780  1.0000
  C   C590      1.0  0.42839  0.82236  0.61787  1.0000
  H   H900      1.0  0.38571  0.90999  0.47101  1.0000
  H   H901      1.0  0.33227  0.81079  0.41066  1.0000
  C   C591      1.0  0.39768  0.84300  0.62551  1.0000
  H   H902      1.0  0.32575  0.83541  0.36140  1.0000
  H   H903      1.0  0.15545  0.75170  0.62826  1.0000
  C   C592      1.0  0.03093  0.83544  0.58439  1.0000
  H   H904      1.0  0.04507  0.83861  0.57569  1.0000
  C   C593      1.0  0.12721  0.80316  0.57785  1.0000
  C   C594      1.0  0.13141  0.82166  0.57542  1.0000
  C   C595      1.0  0.15018  0.82435  0.57552  1.0000
  C   C596      1.0  0.16502  0.80858  0.57829  1.0000
  C   C597      1.0  0.16100  0.78988  0.58078  1.0000
  C   C598      1.0  0.14206  0.78718  0.58043  1.0000
  H   H905      1.0  0.12006  0.83405  0.57344  1.0000
  H   H906      1.0  0.15315  0.83880  0.57358  1.0000
  H   H907      1.0  0.17242  0.77762  0.58287  1.0000
  H   H908      1.0  0.13887  0.77286  0.58227  1.0000
  H   H909      1.0  0.20574  0.77443  0.53092  1.0000
  C   C599      1.0  0.05136  0.75280  0.49015  1.0000
  C   C600      1.0  0.41827  0.85022  0.59502  1.0000
  H   H910      1.0  0.37373  0.93970  0.48495  1.0000
  H   H911      1.0  0.30071  0.85867  0.37778  1.0000
  H   H912      1.0  0.17045  0.81884  0.51926  1.0000
  Fe  Fe134     1.0  0.22001  0.75327  0.45324  1.0000
  C   C601      1.0  0.36292  0.94061  0.60723  1.0000
  Fe  Fe135     1.0  0.05956  0.75315  0.58585  1.0000
  H   H913      1.0  0.24579  0.76277  0.47288  1.0000
  H   H914      1.0  0.12020  0.75919  0.48761  1.0000
  H   H915      1.0  0.31737  0.80947  0.50487  1.0000
  H   H916      1.0  0.30881  0.83417  0.50692  1.0000
  H   H917      1.0  0.32349  0.81900  0.52338  1.0000
  H   H918      1.0  0.33890  0.91164  0.51834  1.0000
  C   C602      1.0  0.37169  0.90529  0.47803  1.0000
  H   H919      1.0  0.39243  0.95344  0.61482  1.0000
  H   H920      1.0  0.16550  0.74279  0.45480  1.0000
  C   C603      1.0  0.06297  0.75037  0.51980  1.0000
  C   C604      1.0  0.20540  0.75910  0.36109  1.0000
  H   H921      1.0  0.29449  0.82575  0.37972  1.0000
  H   H922      1.0  0.16269  0.73885  0.59032  1.0000
  C   C605      1.0  0.32543  0.82623  0.40923  1.0000
  H   H923      1.0  0.00244  0.74635  0.50864  1.0000
  H   H924      1.0  0.13719  0.77361  0.47275  1.0000
  H   H925      1.0  0.38291  0.95418  0.63964  1.0000
  H   H926      1.0  0.42995  0.93727  0.34631  1.0000
  C   C606      1.0  0.23063  0.74566  0.49706  1.0000
  C   C607      1.0  0.36033  0.93388  0.49222  1.0000
  H   H927      1.0  0.37196  0.94718  0.59404  1.0000
  H   H928      1.0  0.17958  0.77055  0.39030  1.0000
  N   N54       1.0  0.42425  0.83871  0.41421  1.0000
  C   C608      1.0  0.42869  0.81821  0.41227  1.0000
  C   C609      1.0  0.43368  0.85026  0.39680  1.0000
  C   C610      1.0  0.40302  0.84525  0.41683  1.0000
  H   H929      1.0  0.42167  0.80910  0.42512  1.0000
  H   H930      1.0  0.44460  0.81274  0.41035  1.0000
  H   H931      1.0  0.42341  0.81598  0.39968  1.0000
  H   H932      1.0  0.43079  0.86581  0.39778  1.0000
  S   S257      1.0  0.11545  0.74672  0.56886  1.0000
  C   C611      1.0  0.12295  0.74163  0.41727  1.0000
  H   H933      1.0  0.39687  0.84338  0.40464  1.0000
  H   H934      1.0  0.42831  0.84898  0.38390  1.0000
  H   H935      1.0  0.38047  0.96839  0.54697  1.0000
  H   H936      1.0  0.00416  0.79369  0.35528  1.0000
  H   H937      1.0  0.42424  0.96475  0.63327  1.0000
  C   C612      1.0  0.31174  0.81940  0.51536  1.0000
  N   N55       1.0  0.29403  0.81416  0.52830  1.0000
  C   C613      1.0  0.27904  0.81461  0.51690  1.0000
  C   C614      1.0  0.29857  0.79458  0.53934  1.0000
  C   C615      1.0  0.28675  0.82803  0.54156  1.0000
  H   H938      1.0  0.26546  0.81071  0.52618  1.0000
  H   H939      1.0  0.28405  0.80418  0.50684  1.0000
  H   H940      1.0  0.30995  0.79360  0.54800  1.0000
  H   H941      1.0  0.28554  0.79024  0.54935  1.0000
  H   H942      1.0  0.30371  0.78367  0.52980  1.0000
  H   H943      1.0  0.29762  0.82794  0.55054  1.0000
  H   H944      1.0  0.27331  0.82459  0.55145  1.0000
  S   S258      1.0  0.02458  0.77055  0.38369  1.0000
  H   H945      1.0  0.39916  0.86075  0.41802  1.0000
  H   H946      1.0  0.39550  0.83713  0.43010  1.0000
  H   H947      1.0  0.27543  0.82909  0.50814  1.0000
  N   N56       1.0  0.03016  0.81469  0.58750  1.0000
  H   H948      1.0  0.25700  0.82656  0.58875  1.0000
  C   C616      1.0  0.25175  0.75847  0.51892  1.0000
  C   C617      1.0  0.43155  0.84108  0.43098  1.0000
  H   H949      1.0  0.39360  0.93803  0.37699  1.0000
  H   H950      1.0  0.41891  0.86781  0.34150  1.0000
  C   C618      1.0  0.35489  0.97058  0.61919  1.0000
  H   H951      1.0  0.33682  0.83468  0.40907  1.0000
  S   S259      1.0  0.43950  0.89338  0.35278  1.0000
  H   H952      1.0  0.34771  0.88978  0.50884  1.0000
  S   S260      1.0  0.07993  0.75617  0.60430  1.0000
  H   H953      1.0  0.99432  0.77902  0.49061  1.0000
  H   H954      1.0  0.26643  0.85887  0.57810  1.0000
  N   N57       1.0  0.41156  0.83460  0.61007  1.0000
  S   S261      1.0  0.33274  0.87046  0.47424  1.0000
  C   C619      1.0  0.04616  0.80363  0.59738  1.0000
  H   H955      1.0  0.23685  0.74111  0.54306  1.0000
  S   S262      1.0  0.36294  0.88575  0.43577  1.0000
  C   C620      1.0  0.33499  0.96268  0.57016  1.0000
  H   H956      1.0  0.42782  0.85630  0.43323  1.0000
  C   C621      1.0  0.17425  0.77376  0.37647  1.0000
  S   S263      1.0  0.07311  0.77210  0.56011  1.0000
  H   H957      1.0  0.20828  0.81451  0.48961  1.0000
  H   H958      1.0  0.99894  0.81890  0.59220  1.0000
  H   H959      1.0  0.32464  0.95311  0.57226  1.0000
  H   H960      1.0  0.02858  0.76426  0.55800  1.0000
  H   H961      1.0  0.17875  0.74765  0.61316  1.0000
  H   H962      1.0  0.37830  0.89441  0.39725  1.0000
  H   H963      1.0  0.03225  0.79301  0.57077  1.0000
  S   S264      1.0  0.31839  0.88197  0.43233  1.0000
  H   H964      1.0  0.19061  0.79880  0.49568  1.0000
  C   C622      1.0  0.20373  0.80172  0.49975  1.0000
  H   H965      1.0  0.21545  0.81083  0.53949  1.0000
  H   H966      1.0  0.21550  0.78924  0.49739  1.0000
  H   H967      1.0  0.18801  0.83470  0.51285  1.0000
  C   C623      1.0  0.07024  0.74616  0.48146  1.0000
  C   C624      1.0  0.21782  0.80845  0.52448  1.0000
  H   H968      1.0  0.22270  0.82143  0.51499  1.0000
  C   C625      1.0  0.35948  0.95705  0.41707  1.0000
  Fe  Fe136     1.0  0.04211  0.74639  0.44980  1.0000
  N   N58       1.0  0.20000  0.80469  0.51978  1.0000
  C   C626      1.0  0.18423  0.82128  0.52238  1.0000
  N   N59       1.0  0.31662  0.83274  0.39181  1.0000
  H   H969      1.0  0.43607  0.83085  0.62404  1.0000
  S   S265      1.0  0.02791  0.75603  0.59925  1.0000
  H   H970      1.0  0.35494  0.93984  0.50567  1.0000
  H   H971      1.0  0.22996  0.79613  0.52287  1.0000
  H   H972      1.0  0.33466  0.91027  0.49529  1.0000
  H   H973      1.0  0.09899  0.76472  0.42184  1.0000
  C   C627      1.0  0.35315  0.95880  0.55871  1.0000
  H   H974      1.0  0.18068  0.78409  0.52974  1.0000
  Fe  Fe137     1.0  0.23024  0.75058  0.60240  1.0000
  C   C628      1.0  0.19425  0.78726  0.53261  1.0000
  H   H975      1.0  0.18123  0.82396  0.53734  1.0000
  H   H976      1.0  0.13939  0.74106  0.60573  1.0000
  H   H977      1.0  0.06062  0.80569  0.58867  1.0000
  H   H978      1.0  0.19168  0.78895  0.54783  1.0000
  S   S266      1.0  0.02005  0.73934  0.43578  1.0000
  C   C629      1.0  0.13351  0.75888  0.47646  1.0000
  Fe  Fe138     1.0  0.33259  0.89560  0.44985  1.0000
  H   H979      1.0  0.41004  0.90419  0.38331  1.0000
  C   C630      1.0  0.30187  0.82093  0.39237  1.0000
  H   H980      1.0  0.41380  0.97072  0.33405  1.0000
  C   C631      1.0  0.24379  0.75805  0.48817  1.0000
  N   N60       1.0  0.36263  0.94980  0.62364  1.0000
  H   H981      1.0  0.34918  0.93958  0.48288  1.0000
  H   H982      1.0  0.36398  0.97784  0.60645  1.0000
  H   H983      1.0  0.38157  0.88964  0.51214  1.0000
  H   H984      1.0  0.20930  0.77322  0.35353  1.0000
  H   H985      1.0  0.42885  0.84444  0.58314  1.0000
  H   H986      1.0  0.21359  0.74793  0.35255  1.0000
  C   C632      1.0  0.41337  0.96382  0.38176  1.0000
  C   C633      1.0  0.30740  0.85319  0.39080  1.0000
  C   C634      1.0  0.35012  0.94083  0.64061  1.0000
  H   H987      1.0  0.40087  0.97542  0.38513  1.0000
  C   C635      1.0  0.36640  0.97136  0.55584  1.0000
  H   H988      1.0  0.39449  0.94545  0.35178  1.0000
  C   C636      1.0  0.33387  0.96148  0.45108  1.0000
  S   S267      1.0  0.32432  0.92546  0.45744  1.0000
  H   H989      1.0  0.35216  0.92865  0.42179  1.0000
  H   H990      1.0  0.42686  0.96944  0.38119  1.0000
  H   H991      1.0  0.32367  0.96341  0.46408  1.0000
  H   H992      1.0  0.31442  0.82793  0.42234  1.0000
  H   H993      1.0  0.31816  0.86245  0.39052  1.0000
  H   H994      1.0  0.34317  0.83954  0.37391  1.0000
  H   H995      1.0  0.17139  0.76028  0.46576  1.0000
  H   H996      1.0  0.04576  0.78795  0.60028  1.0000
  H   H997      1.0  0.33932  0.81547  0.37516  1.0000
  C   C637      1.0  0.34989  0.94186  0.42730  1.0000
  H   H998      1.0  0.38198  0.96172  0.36782  1.0000
  H   H999      1.0  0.33504  0.94231  0.63802  1.0000
  H   H1000     1.0  0.00509  0.73567  0.39797  1.0000
  H   H1001     1.0  0.43010  0.92990  0.37131  1.0000
  C   C638      1.0  0.34378  0.97651  0.44106  1.0000
  C   C639      1.0  0.33188  0.83067  0.37482  1.0000
  H   H1002     1.0  0.04534  0.80798  0.61134  1.0000
  C   C640      1.0  0.41412  0.97462  0.34796  1.0000
  C   C641      1.0  0.04773  0.75500  0.50931  1.0000
  H   H1003     1.0  0.44971  0.84562  0.39418  1.0000
  H   H1004     1.0  0.37267  0.91054  0.52308  1.0000
  C   C642      1.0  0.37821  0.90562  0.50915  1.0000
  C   C643      1.0  0.18000  0.74017  0.37381  1.0000
  H   H1005     1.0  0.30838  0.80547  0.39277  1.0000
  S   S268      1.0  0.24752  0.73828  0.38582  1.0000
  H   H1006     1.0  0.18040  0.77904  0.33814  1.0000
  C   C644      1.0  0.22816  0.73957  0.51688  1.0000
  H   H1007     1.0  0.06008  0.75188  0.53462  1.0000
  S   S269      1.0  0.36307  0.88674  0.63530  1.0000
  C   C645      1.0  0.38256  0.94717  0.62752  1.0000
  H   H1008     1.0  0.40457  0.85160  0.63236  1.0000
  H   H1009     1.0  0.39704  0.81064  0.61260  1.0000
  S   S270      1.0  0.03223  0.75792  0.47723  1.0000
  H   H1010     1.0  0.01920  0.84420  0.57676  1.0000
  H   H1011     1.0  0.36885  0.92494  0.61005  1.0000
  H   H1012     1.0  0.33988  0.97318  0.61609  1.0000
  S   S271      1.0  0.20664  0.74352  0.43243  1.0000
  H   H1013     1.0  0.07323  0.74481  0.46659  1.0000
  H   H1014     1.0  0.38506  0.85277  0.62002  1.0000
  S   S272      1.0  0.21673  0.73813  0.48376  1.0000
  H   H1015     1.0  0.16992  0.74320  0.41906  1.0000
  H   H1016     1.0  0.03314  0.76013  0.51609  1.0000
  H   H1017     1.0  0.44581  0.97422  0.62141  1.0000
  N   N61       1.0  0.14974  0.74438  0.48306  1.0000
  H   H1018     1.0  0.18472  0.75400  0.33628  1.0000
  H   H1019     1.0  0.34807  0.94208  0.60409  1.0000
  N   N62       1.0  0.41313  0.95786  0.36360  1.0000
  H   H1020     1.0  0.28343  0.75418  0.63982  1.0000
  C   C646      1.0  0.43001  0.94261  0.35959  1.0000
  C   C647      1.0  0.16747  0.74570  0.46858  1.0000
  H   H1021     1.0  0.04610  0.81159  0.55943  1.0000
  C   C648      1.0  0.43253  0.97643  0.63240  1.0000
  S   S273      1.0  0.10119  0.73798  0.52380  1.0000
  C   C649      1.0  0.14303  0.73567  0.41652  1.0000
  H   H1022     1.0  0.00929  0.81523  0.61349  1.0000
  C   C650      1.0  0.99844  0.77104  0.55471  1.0000
  C   C651      1.0  0.15315  0.74801  0.50121  1.0000
  C   C652      1.0  0.08184  0.74358  0.51109  1.0000
  C   C653      1.0  0.39500  0.95046  0.36509  1.0000
  H   H1023     1.0  0.41166  0.81697  0.58958  1.0000
  H   H1024     1.0  0.26366  0.75101  0.63002  1.0000
  H   H1025     1.0  0.31575  0.98249  0.58699  1.0000
  C   C654      1.0  0.35648  0.97442  0.42389  1.0000
  H   H1026     1.0  0.42773  0.98046  0.34632  1.0000
  C   C655      1.0  0.38537  0.88997  0.63988  1.0000
  C   C656      1.0  0.32997  0.97931  0.57844  1.0000
  H   H1027     1.0  0.44399  0.94785  0.35771  1.0000
  S   S274      1.0  0.48831  0.88986  0.32052  1.0000
  H   H1028     1.0  0.09988  0.73601  0.48515  1.0000
  H   H1029     1.0  0.18012  0.73515  0.47316  1.0000
  H   H1030     1.0  0.17567  0.73587  0.63753  1.0000
  Fe  Fe139     1.0  0.43968  0.75020  0.84481  1.0000
  C   C657      1.0  0.41948  0.97979  0.66518  1.0000
  H   H1031     1.0  0.47524  0.95108  0.70089  1.0000
  H   H1032     1.0  0.42181  0.90597  0.78385  1.0000
  S   S275      1.0  0.43727  0.77198  0.86369  1.0000
  Fe  Fe140     1.0  0.45355  0.78876  0.83772  1.0000
  S   S276      1.0  0.45103  0.82098  0.82732  1.0000
  H   H1033     1.0  0.45301  0.95732  0.67180  1.0000
  H   H1034     1.0  0.48700  0.77860  0.75409  1.0000
  H   H1035     1.0  0.42607  0.89408  0.76373  1.0000
  Fe  Fe141     1.0  0.44816  0.89739  0.68288  1.0000
  S   S277      1.0  0.42529  0.90623  0.70704  1.0000
  C   C658      1.0  0.47279  0.75427  0.91723  1.0000
  H   H1036     1.0  0.43072  0.75403  0.94878  1.0000
  S   S278      1.0  0.45984  0.89954  0.73251  1.0000
  S   S279      1.0  0.46866  0.91587  0.68603  1.0000
  Fe  Fe142     1.0  0.44092  0.88156  0.72589  1.0000
  S   S280      1.0  0.42485  0.86042  0.74790  1.0000
  Fe  Fe143     1.0  0.44648  0.92330  0.71126  1.0000
  S   S281      1.0  0.43395  0.95373  0.71588  1.0000
  S   S282      1.0  0.46211  0.87117  0.70125  1.0000
  C   C659      1.0  0.38732  0.88945  0.65878  1.0000
  S   S283      1.0  0.45374  0.76834  0.81835  1.0000
  S   S284      1.0  0.44236  0.89961  0.65289  1.0000
  C   C660      1.0  0.46884  0.96608  0.70058  1.0000
  H   H1037     1.0  0.38996  0.92617  0.79256  1.0000
  N   N63       1.0  0.39819  0.91202  0.76817  1.0000
  H   H1038     1.0  0.39974  0.89718  0.74508  1.0000
  H   H1039     1.0  0.39354  0.73796  0.97045  1.0000
  H   H1040     1.0  0.48428  0.74501  0.96169  1.0000
  H   H1041     1.0  0.46733  0.81823  0.76343  1.0000
  H   H1042     1.0  0.24064  0.77903  0.66891  1.0000
  H   H1043     1.0  0.38466  0.88851  0.76668  1.0000
  H   H1044     1.0  0.41032  0.88569  0.78502  1.0000
  C   C661      1.0  0.40508  0.92889  0.75520  1.0000
  H   H1045     1.0  0.37823  0.90599  0.79429  1.0000
  Fe  Fe144     1.0  0.48034  0.89057  0.70678  1.0000
  S   S285      1.0  0.48246  0.77484  0.84593  1.0000
  C   C662      1.0  0.26608  0.74642  0.67689  1.0000
  H   H1046     1.0  0.37530  0.88686  0.67025  1.0000
  C   C663      1.0  0.41480  0.89890  0.77559  1.0000
  C   C664      1.0  0.40475  0.89220  0.66301  1.0000
  H   H1047     1.0  0.39307  0.93910  0.74907  1.0000
  H   H1048     1.0  0.40610  0.89171  0.67764  1.0000
  H   H1049     1.0  0.37095  0.92839  0.77916  1.0000
  C   C665      1.0  0.44443  0.83117  0.80479  1.0000
  C   C666      1.0  0.43136  0.82379  0.79768  1.0000
  C   C667      1.0  0.42564  0.83279  0.78012  1.0000
  C   C668      1.0  0.43345  0.84878  0.76922  1.0000
  C   C669      1.0  0.44725  0.85559  0.77591  1.0000
  C   C670      1.0  0.45241  0.84704  0.79380  1.0000
  H   H1050     1.0  0.42513  0.81156  0.80604  1.0000
  H   H1051     1.0  0.41500  0.82740  0.77505  1.0000
  H   H1052     1.0  0.45362  0.86769  0.76754  1.0000
  H   H1053     1.0  0.46266  0.85271  0.79916  1.0000
  C   C671      1.0  0.42037  0.89556  0.64832  1.0000
  Fe  Fe145     1.0  0.46638  0.75603  0.86970  1.0000
  N   N64       1.0  0.25669  0.75282  0.65982  1.0000
  C   C672      1.0  0.46852  0.77184  0.94925  1.0000
  C   C673      1.0  0.46123  0.78212  0.93284  1.0000
  C   C674      1.0  0.46327  0.77332  0.91685  1.0000
  C   C675      1.0  0.38929  0.90181  0.75759  1.0000
  H   H1054     1.0  0.47230  0.80140  0.79670  1.0000
  H   H1055     1.0  0.45387  0.79686  0.93256  1.0000
  H   H1056     1.0  0.45759  0.78127  0.90425  1.0000
  C   C676      1.0  0.44906  0.97127  0.70744  1.0000
  S   S286      1.0  0.41248  0.73688  0.85045  1.0000
  C   C677      1.0  0.38368  0.91843  0.78426  1.0000
  H   H1057     1.0  0.37642  0.91107  0.75212  1.0000
  N   N65       1.0  0.43747  0.97651  0.65110  1.0000
  H   H1058     1.0  0.41199  0.93699  0.76257  1.0000
  C   C678      1.0  0.48338  0.81525  0.75892  1.0000
  H   H1059     1.0  0.27933  0.75286  0.67508  1.0000
  H   H1060     1.0  0.46794  0.78338  0.77382  1.0000
  H   H1061     1.0  0.41616  0.92447  0.74299  1.0000
  H   H1062     1.0  0.42273  0.97996  0.67944  1.0000
  C   C679      1.0  0.44919  0.95776  0.65766  1.0000
  H   H1063     1.0  0.40620  0.76701  0.95068  1.0000
  Fe  Fe146     1.0  0.48193  0.75359  0.82795  1.0000
  H   H1064     1.0  0.49014  0.76762  0.77804  1.0000
  C   C680      1.0  0.47814  0.75290  0.94943  1.0000
  S   S287      1.0  0.47648  0.74258  0.89761  1.0000
  C   C681      1.0  0.48023  0.74415  0.93352  1.0000
  H   H1065     1.0  0.49262  0.81346  0.79273  1.0000
  H   H1066     1.0  0.42455  0.77602  0.95805  1.0000
  H   H1067     1.0  0.48632  0.81394  0.74357  1.0000
  C   C682      1.0  0.25101  0.77399  0.65655  1.0000
  H   H1068     1.0  0.25608  0.75056  0.68986  1.0000
  C   C683      1.0  0.48046  0.98034  0.69336  1.0000
  C   C684      1.0  0.41912  0.76269  0.95784  1.0000
  H   H1069     1.0  0.26386  0.78125  0.65397  1.0000
  C   C685      1.0  0.48804  0.80024  0.79094  1.0000
  C   C686      1.0  0.48397  0.78110  0.76907  1.0000
  H   H1070     1.0  0.44122  0.94565  0.65919  1.0000
  H   H1071     1.0  0.48902  0.82815  0.76003  1.0000
  H   H1072     1.0  0.41068  0.96831  0.66709  1.0000
  S   S288      1.0  0.46512  0.78276  0.96945  1.0000
  H   H1073     1.0  0.34937  0.94749  0.65325  1.0000
  N   N66       1.0  0.49223  0.79767  0.77079  1.0000
  H   H1074     1.0  0.35562  0.92516  0.64446  1.0000
  H   H1075     1.0  0.46301  0.95479  0.64754  1.0000
  H   H1076     1.0  0.22819  0.74854  0.67488  1.0000
  C   C687      1.0  0.23927  0.74383  0.66282  1.0000
  H   H1077     1.0  0.23231  0.74753  0.64987  1.0000
  H   H1078     1.0  0.24398  0.77925  0.64371  1.0000
  C   C688      1.0  0.67440  0.14350  0.29155  1.0000
  S   S289      1.0  0.65153  0.20054  0.28826  1.0000
  S   S290      1.0  0.50437  0.20034  0.27076  1.0000
  H   H1079     1.0  0.68243  0.06842  0.24446  1.0000
  S   S291      1.0  0.66835  0.09098  0.28453  1.0000
  H   H1080     1.0  0.66209  0.06323  0.23668  1.0000
  H   H1081     1.0  0.68424  0.03900  0.21883  1.0000
  Fe  Fe147     1.0  0.67357  0.18855  0.30750  1.0000
  S   S292      1.0  0.69256  0.21042  0.29353  1.0000
  H   H1082     1.0  0.70434  0.04217  0.26111  1.0000
  C   C689      1.0  0.54120  0.09200  0.30056  1.0000
  H   H1083     1.0  0.65605  0.02805  0.26762  1.0000
  Fe  Fe148     1.0  0.51920  0.02749  0.30414  1.0000
  C   C690      1.0  0.67088  0.12850  0.28388  1.0000
  H   H1084     1.0  0.66628  0.13158  0.27015  1.0000
  H   H1085     1.0  0.70459  0.04420  0.22650  1.0000
  H   H1086     1.0  0.65622  0.02926  0.24273  1.0000
  H   H1087     1.0  0.70005  0.01772  0.26548  1.0000
  C   C691      1.0  0.66562  0.02601  0.25380  1.0000
  C   C692      1.0  0.69289  0.03310  0.26402  1.0000
  H   H1088     1.0  0.70014  0.01990  0.23099  1.0000
  C   C693      1.0  0.67322  0.10957  0.29399  1.0000
  S   S293      1.0  0.64227  0.04833  0.30039  1.0000
  C   C694      1.0  0.67146  0.05875  0.24781  1.0000
  H   H1089     1.0  0.66219  0.06160  0.26159  1.0000
  H   H1090     1.0  0.52850  0.09347  0.29344  1.0000
  H   H1091     1.0  0.53886  0.12946  0.30213  1.0000
  C   C695      1.0  0.56413  0.19301  0.30078  1.0000
  N   N67       1.0  0.68072  0.03828  0.24901  1.0000
  H   H1092     1.0  0.67259  0.15808  0.28370  1.0000
  H   H1093     1.0  0.49488  0.21701  0.22769  1.0000
  C   C696      1.0  0.58344  0.19266  0.29146  1.0000
  C   C697      1.0  0.58362  0.02428  0.30400  1.0000
  C   C698      1.0  0.69298  0.03522  0.23050  1.0000
  H   H1094     1.0  0.68398  0.03507  0.27813  1.0000
  Fe  Fe149     1.0  0.51724  0.19010  0.29755  1.0000
  Fe  Fe150     1.0  0.66887  0.22451  0.27651  1.0000
  S   S294      1.0  0.54961  0.17927  0.29433  1.0000
  H   H1095     1.0  0.58883  0.18508  0.27956  1.0000
  H   H1096     1.0  0.61063  0.20176  0.29008  1.0000
  S   S295      1.0  0.67648  0.99581  0.29992  1.0000
  H   H1097     1.0  0.67211  0.01043  0.25532  1.0000
  C   C699      1.0  0.56346  0.02574  0.30893  1.0000
  H   H1098     1.0  0.49744  0.98554  0.29208  1.0000
  S   S296      1.0  0.55079  0.01644  0.29587  1.0000
  Fe  Fe151     1.0  0.66180  0.06557  0.30710  1.0000
  S   S297      1.0  0.50858  0.05834  0.30703  1.0000
  H   H1099     1.0  0.63720  0.00638  0.29150  1.0000
  C   C700      1.0  0.59587  0.20200  0.29749  1.0000
  H   H1100     1.0  0.55258  0.09870  0.28992  1.0000
  H   H1101     1.0  0.59145  0.01711  0.29232  1.0000
  H   H1102     1.0  0.62880  0.16622  0.30263  1.0000
  H   H1103     1.0  0.54702  0.07634  0.30413  1.0000
  H   H1104     1.0  0.62854  0.13147  0.30733  1.0000
  H   H1105     1.0  0.51497  0.12383  0.30553  1.0000
  H   H1106     1.0  0.61755  0.98826  0.27975  1.0000
  C   C701      1.0  0.64272  0.99157  0.28990  1.0000
  C   C702      1.0  0.68065  0.13948  0.30915  1.0000
  S   S298      1.0  0.49719  0.02683  0.28669  1.0000
  H   H1107     1.0  0.59721  0.15481  0.30949  1.0000
  Fe  Fe152     1.0  0.76382  0.09862  0.59934  1.0000
  S   S299      1.0  0.74900  0.12411  0.58123  1.0000
  C   C703      1.0  0.76346  0.22901  0.49770  1.0000
  C   C704      1.0  0.52586  0.10442  0.63165  1.0000
  S   S300      1.0  0.69418  0.13146  0.60452  1.0000
  Fe  Fe153     1.0  0.75262  0.10386  0.56081  1.0000
  S   S301      1.0  0.76409  0.11186  0.52948  1.0000
  C   C705      1.0  0.73649  0.00979  0.42297  1.0000
  Fe  Fe154     1.0  0.78417  0.21036  0.60892  1.0000
  S   S302      1.0  0.75988  0.21161  0.59353  1.0000
  S   S303      1.0  0.80351  0.18345  0.62040  1.0000
  H   H1108     1.0  0.72985  0.13838  0.64288  1.0000
  H   H1109     1.0  0.73310  0.06993  0.52643  1.0000
  H   H1110     1.0  0.71222  0.17511  0.38404  1.0000
  H   H1111     1.0  0.73270  0.02421  0.36908  1.0000
  C   C706      1.0  0.62812  0.16460  0.31830  1.0000
  H   H1112     1.0  0.78401  0.05117  0.50556  1.0000
  H   H1113     1.0  0.73516  0.16988  0.47928  1.0000
  H   H1114     1.0  0.73357  0.05412  0.54916  1.0000
  C   C707      1.0  0.77447  0.99775  0.59745  1.0000
  H   H1115     1.0  0.69936  0.17781  0.34575  1.0000
  S   S304      1.0  0.65806  0.20487  0.33084  1.0000
  H   H1116     1.0  0.60898  0.13605  0.35817  1.0000
  C   C708      1.0  0.69826  0.17702  0.49715  1.0000
  S   S305      1.0  0.74585  0.20080  0.49190  1.0000
  C   C709      1.0  0.68808  0.22224  0.36482  1.0000
  C   C710      1.0  0.74262  0.06211  0.53692  1.0000
  H   H1117     1.0  0.78387  0.02869  0.53659  1.0000
  Fe  Fe155     1.0  0.78137  0.19981  0.42565  1.0000
  S   S306      1.0  0.80721  0.17710  0.41889  1.0000
  C   C711      1.0  0.69095  0.07151  0.62160  1.0000
  C   C712      1.0  0.58351  0.04224  0.32870  1.0000
  S   S307      1.0  0.75311  0.19155  0.44099  1.0000
  H   H1118     1.0  0.69877  0.16481  0.62245  1.0000
  Fe  Fe156     1.0  0.73279  0.08315  0.41386  1.0000
  S   S308      1.0  0.76086  0.06279  0.41627  1.0000
  S   S309      1.0  0.72261  0.09290  0.38556  1.0000
  Fe  Fe157     1.0  0.72548  0.08789  0.45508  1.0000
  S   S310      1.0  0.75254  0.06741  0.46117  1.0000
  S   S311      1.0  0.70704  0.10347  0.47795  1.0000
  Fe  Fe158     1.0  0.76630  0.08306  0.43332  1.0000
  S   S312      1.0  0.79583  0.09033  0.43120  1.0000
  Fe  Fe159     1.0  0.74445  0.04905  0.44378  1.0000
  S   S313      1.0  0.73972  0.10473  0.42830  1.0000
  S   S314      1.0  0.71576  0.06814  0.44041  1.0000
  H   H1119     1.0  0.74761  0.07314  0.54245  1.0000
  H   H1120     1.0  0.60951  0.16141  0.35453  1.0000
  C   C713      1.0  0.73641  0.00491  0.59085  1.0000
  N   N68       1.0  0.53576  0.10104  0.31779  1.0000
  C   C714      1.0  0.70900  0.22014  0.38805  1.0000
  H   H1121     1.0  0.54952  0.10540  0.33976  1.0000
  S   S315      1.0  0.68112  0.03008  0.37040  1.0000
  H   H1122     1.0  0.74978  0.03427  0.39046  1.0000
  H   H1123     1.0  0.72771  0.02395  0.42262  1.0000
  C   C715      1.0  0.69251  0.06540  0.36179  1.0000
  C   C716      1.0  0.70193  0.07927  0.36515  1.0000
  C   C717      1.0  0.71038  0.07589  0.38150  1.0000
  C   C718      1.0  0.70955  0.05860  0.39434  1.0000
  H   H1124     1.0  0.68610  0.06794  0.34910  1.0000
  H   H1125     1.0  0.70276  0.09254  0.35507  1.0000
  Fe  Fe160     1.0  0.74076  0.07056  0.59166  1.0000
  C   C719      1.0  0.80331  0.15324  0.42215  1.0000
  C   C720      1.0  0.78468  0.14882  0.42461  1.0000
  C   C721      1.0  0.78211  0.12955  0.42765  1.0000
  C   C722      1.0  0.79818  0.11466  0.42799  1.0000
  C   C723      1.0  0.81675  0.11914  0.42559  1.0000
  C   C724      1.0  0.81930  0.13833  0.42263  1.0000
  H   H1126     1.0  0.77232  0.16019  0.42370  1.0000
  H   H1127     1.0  0.76776  0.12627  0.42951  1.0000
  H   H1128     1.0  0.82923  0.10771  0.42578  1.0000
  H   H1129     1.0  0.83375  0.14162  0.42063  1.0000
  H   H1130     1.0  0.74313  0.04257  0.50913  1.0000
  H   H1131     1.0  0.74260  0.02566  0.34419  1.0000
  H   H1132     1.0  0.71992  0.16188  0.33594  1.0000
  H   H1133     1.0  0.74884  0.16808  0.59673  1.0000
  C   C725      1.0  0.70282  0.16516  0.38259  1.0000
  H   H1134     1.0  0.83393  0.20669  0.60990  1.0000
  N   N69       1.0  0.76086  0.03252  0.36095  1.0000
  H   H1135     1.0  0.65448  0.09071  0.62893  1.0000
  H   H1136     1.0  0.65416  0.13393  0.62167  1.0000
  C   C726      1.0  0.73308  0.17191  0.60229  1.0000
  H   H1137     1.0  0.70974  0.11290  0.63892  1.0000
  C   C727      1.0  0.75122  0.20766  0.52601  1.0000
  H   H1138     1.0  0.68809  0.03432  0.62894  1.0000
  H   H1139     1.0  0.50738  0.09303  0.32555  1.0000
  C   C728      1.0  0.69230  0.21621  0.38343  1.0000
  H   H1140     1.0  0.74392  0.19560  0.53261  1.0000
  H   H1141     1.0  0.75549  0.21315  0.55277  1.0000
  C   C729      1.0  0.74152  0.03240  0.35685  1.0000
  H   H1142     1.0  0.76428  0.02507  0.51345  1.0000
  H   H1143     1.0  0.68405  0.14982  0.36254  1.0000
  H   H1144     1.0  0.60916  0.03122  0.31014  1.0000
  C   C730      1.0  0.56344  0.04308  0.33405  1.0000
  H   H1145     1.0  0.64215  0.12659  0.32632  1.0000
  Fe  Fe161     1.0  0.73959  0.21734  0.42208  1.0000
  C   C731      1.0  0.56977  0.21209  0.32224  1.0000
  H   H1146     1.0  0.70084  0.15489  0.39632  1.0000
  C   C732      1.0  0.74771  0.11175  0.51474  1.0000
  C   C733      1.0  0.75473  0.10987  0.49567  1.0000
  C   C734      1.0  0.74212  0.10776  0.48420  1.0000
  C   C735      1.0  0.72248  0.10763  0.49176  1.0000
  C   C736      1.0  0.71528  0.11056  0.51052  1.0000
  C   C737      1.0  0.72789  0.11269  0.52198  1.0000
  H   H1147     1.0  0.77002  0.10932  0.48991  1.0000
  H   H1148     1.0  0.74769  0.10610  0.46953  1.0000
  H   H1149     1.0  0.70003  0.11072  0.51632  1.0000
  H   H1150     1.0  0.72227  0.11499  0.53641  1.0000
  C   C738      1.0  0.79093  0.12499  0.61592  1.0000
  H   H1151     1.0  0.56001  0.13174  0.60826  1.0000
  S   S316      1.0  0.50248  0.01515  0.33206  1.0000
  C   C739      1.0  0.79876  0.16114  0.61801  1.0000
  C   C740      1.0  0.78935  0.15936  0.60356  1.0000
  C   C741      1.0  0.78554  0.14126  0.60245  1.0000
  H   H1152     1.0  0.51651  0.09771  0.34492  1.0000
  H   H1153     1.0  0.71007  0.18075  0.44889  1.0000
  H   H1154     1.0  0.78529  0.17184  0.59310  1.0000
  N   N70       1.0  0.79910  0.15516  0.48253  1.0000
  C   C742      1.0  0.79606  0.14148  0.50067  1.0000
  C   C743      1.0  0.78272  0.15721  0.47244  1.0000
  C   C744      1.0  0.81733  0.14790  0.47037  1.0000
  C   C745      1.0  0.80016  0.17412  0.48656  1.0000
  H   H1155     1.0  0.79514  0.12702  0.49820  1.0000
  H   H1156     1.0  0.78229  0.14649  0.51008  1.0000
  H   H1157     1.0  0.80806  0.13960  0.50881  1.0000
  H   H1158     1.0  0.78473  0.16732  0.45863  1.0000
  H   H1159     1.0  0.78137  0.14318  0.46920  1.0000
  H   H1160     1.0  0.76879  0.16291  0.48111  1.0000
  H   H1161     1.0  0.83005  0.14592  0.47756  1.0000
  H   H1162     1.0  0.82006  0.15806  0.45662  1.0000
  H   H1163     1.0  0.81680  0.13382  0.46669  1.0000
  H   H1164     1.0  0.81226  0.17316  0.49430  1.0000
  H   H1165     1.0  0.78649  0.18012  0.49551  1.0000
  H   H1166     1.0  0.80246  0.18478  0.47315  1.0000
  Fe  Fe162     1.0  0.62782  0.04823  0.33088  1.0000
  H   H1167     1.0  0.73482  0.23248  0.37709  1.0000
  H   H1168     1.0  0.72162  0.00756  0.58835  1.0000
  H   H1169     1.0  0.52941  0.12321  0.60438  1.0000
  H   H1170     1.0  0.76447  0.05862  0.34098  1.0000
  S   S317      1.0  0.59548  0.05427  0.33998  1.0000
  C   C746      1.0  0.75778  0.21757  0.53746  1.0000
  H   H1171     1.0  0.77286  0.04168  0.38161  1.0000
  N   N71       1.0  0.72856  0.16523  0.62311  1.0000
  C   C747      1.0  0.70756  0.17106  0.62976  1.0000
  H   H1172     1.0  0.78666  0.04397  0.34700  1.0000
  H   H1173     1.0  0.74296  0.02632  0.53161  1.0000
  H   H1174     1.0  0.76250  0.02984  0.55462  1.0000
  N   N72       1.0  0.75927  0.04908  0.52809  1.0000
  S   S318      1.0  0.50387  0.09912  0.62883  1.0000
  S   S319      1.0  0.71313  0.21309  0.41187  1.0000
  H   H1175     1.0  0.71479  0.98737  0.45990  1.0000
  C   C748      1.0  0.58920  0.21143  0.31317  1.0000
  C   C749      1.0  0.77203  0.04347  0.34431  1.0000
  H   H1176     1.0  0.77861  0.13987  0.59112  1.0000
  Fe  Fe163     1.0  0.66594  0.03975  0.34521  1.0000
  C   C750      1.0  0.76722  0.23322  0.52901  1.0000
  C   C751      1.0  0.68304  0.12428  0.62808  1.0000
  H   H1177     1.0  0.55564  0.05008  0.34585  1.0000
  C   C752      1.0  0.75860  0.04177  0.37774  1.0000
  C   C753      1.0  0.72167  0.22987  0.37380  1.0000
  H   H1178     1.0  0.68783  0.11744  0.33281  1.0000
  H   H1179     1.0  0.68905  0.19320  0.46234  1.0000
  C   C754      1.0  0.61687  0.14767  0.34961  1.0000
  H   H1180     1.0  0.56447  0.21942  0.33432  1.0000
  H   H1181     1.0  0.65707  0.07902  0.60892  1.0000
  H   H1182     1.0  0.73317  0.04725  0.35403  1.0000
  C   C755      1.0  0.84246  0.21618  0.61367  1.0000
  C   C756      1.0  0.80068  0.12685  0.63002  1.0000
  H   H1183     1.0  0.77409  0.03691  0.33134  1.0000
  C   C757      1.0  0.77110  0.03863  0.54270  1.0000
  C   C758      1.0  0.53549  0.11697  0.61718  1.0000
  H   H1184     1.0  0.69869  0.14927  0.46458  1.0000
  C   C759      1.0  0.62721  0.13066  0.32299  1.0000
  N   N73       1.0  0.83626  0.21868  0.63382  1.0000
  N   N74       1.0  0.71142  0.15493  0.36641  1.0000
  C   C760      1.0  0.69860  0.14180  0.36510  1.0000
  C   C761      1.0  0.71362  0.16910  0.34850  1.0000
  C   C762      1.0  0.55310  0.09894  0.32660  1.0000
  H   H1185     1.0  0.69658  0.13089  0.37837  1.0000
  H   H1186     1.0  0.68296  0.18463  0.49800  1.0000
  H   H1187     1.0  0.72316  0.17931  0.34894  1.0000
  S   S320      1.0  0.72939  0.04282  0.59432  1.0000
  H   H1188     1.0  0.70477  0.13377  0.35309  1.0000
  Fe  Fe164     1.0  0.72207  0.11213  0.59533  1.0000
  C   C763      1.0  0.75208  0.03514  0.52024  1.0000
  H   H1189     1.0  0.67790  0.16269  0.47756  1.0000
  C   C764      1.0  0.77123  0.06048  0.51253  1.0000
  S   S321      1.0  0.71270  0.22619  0.62759  1.0000
  H   H1190     1.0  0.71637  0.05573  0.40673  1.0000
  Fe  Fe165     1.0  0.75374  0.21152  0.46038  1.0000
  H   H1191     1.0  0.71274  0.19669  0.46370  1.0000
  C   C765      1.0  0.75402  0.21340  0.50611  1.0000
  C   C766      1.0  0.70010  0.04481  0.39107  1.0000
  S   S322      1.0  0.76969  0.07889  0.57778  1.0000
  H   H1192     1.0  0.72510  0.16534  0.59444  1.0000
  H   H1193     1.0  0.77323  0.00504  0.35260  1.0000
  C   C767      1.0  0.59734  0.15369  0.32496  1.0000
  H   H1194     1.0  0.74081  0.15300  0.37034  1.0000
  C   C768      1.0  0.73379  0.14405  0.62739  1.0000
  H   H1195     1.0  0.64249  0.07067  0.63132  1.0000
  H   H1196     1.0  0.76323  0.00389  0.37739  1.0000
  S   S323      1.0  0.72408  0.09433  0.57311  1.0000
  C   C769      1.0  0.77129  0.01253  0.36492  1.0000
  H   H1197     1.0  0.58961  0.16769  0.32906  1.0000
  S   S324      1.0  0.78317  0.21804  0.44643  1.0000
  H   H1198     1.0  0.76969  0.02792  0.59951  1.0000
  C   C770      1.0  0.69164  0.04814  0.37478  1.0000
  C   C771      1.0  0.73062  0.14362  0.36946  1.0000
  H   H1199     1.0  0.72609  0.00364  0.39954  1.0000
  S   S325      1.0  0.73645  0.08782  0.61506  1.0000
  S   S326      1.0  0.74918  0.01676  0.45356  1.0000
  H   H1200     1.0  0.67644  0.04612  0.60908  1.0000
  H   H1201     1.0  0.69937  0.03151  0.40116  1.0000
  H   H1202     1.0  0.70721  0.18738  0.49862  1.0000
  S   S327      1.0  0.64595  0.06740  0.33691  1.0000
  H   H1203     1.0  0.77659  0.04875  0.54905  1.0000
  H   H1204     1.0  0.68838  0.17396  0.38066  1.0000
  N   N75       1.0  0.70535  0.16955  0.47907  1.0000
  H   H1205     1.0  0.72944  0.13287  0.38294  1.0000
  H   H1206     1.0  0.75562  0.16967  0.62844  1.0000
  S   S328      1.0  0.78557  0.10214  0.61609  1.0000
  C   C772      1.0  0.74848  0.00283  0.43666  1.0000
  C   C773      1.0  0.56072  0.11380  0.63589  1.0000
  H   H1207     1.0  0.70985  0.99205  0.36358  1.0000
  H   H1208     1.0  0.73736  0.13542  0.35768  1.0000
  H   H1209     1.0  0.78589  0.01204  0.36825  1.0000
  C   C774      1.0  0.55282  0.12175  0.61935  1.0000
  H   H1210     1.0  0.72634  0.13710  0.61946  1.0000
  Fe  Fe166     1.0  0.74284  0.23198  0.61313  1.0000
  C   C775      1.0  0.66278  0.12705  0.63261  1.0000
  S   S329      1.0  0.64630  0.02071  0.34197  1.0000
  H   H1211     1.0  0.81208  0.14597  0.64209  1.0000
  C   C776      1.0  0.73972  0.17390  0.63298  1.0000
  H   H1212     1.0  0.53797  0.03536  0.32854  1.0000
  H   H1213     1.0  0.76272  0.06845  0.50125  1.0000
  H   H1214     1.0  0.72892  0.18782  0.59856  1.0000
  H   H1215     1.0  0.84047  0.23016  0.60378  1.0000
  C   C777      1.0  0.55723  0.20302  0.31601  1.0000
  H   H1216     1.0  0.69894  0.16520  0.50974  1.0000
  H   H1217     1.0  0.70322  0.18703  0.62679  1.0000
  C   C778      1.0  0.76346  0.01644  0.59703  1.0000
  C   C779      1.0  0.55343  0.03480  0.32421  1.0000
  C   C780      1.0  0.59365  0.03242  0.31399  1.0000
  H   H1218     1.0  0.77669  0.07134  0.51790  1.0000
  C   C781      1.0  0.74429  0.02000  0.59395  1.0000
  C   C782      1.0  0.80464  0.14478  0.63101  1.0000
  H   H1219     1.0  0.73150  0.15345  0.46544  1.0000
  H   H1220     1.0  0.68236  0.20876  0.39439  1.0000
  C   C783      1.0  0.69329  0.15573  0.47774  1.0000
  C   C784      1.0  0.72569  0.15973  0.47864  1.0000
  C   C785      1.0  0.68311  0.12055  0.31916  1.0000
  H   H1221     1.0  0.69343  0.14358  0.49004  1.0000
  C   C786      1.0  0.70425  0.18572  0.46280  1.0000
  H   H1222     1.0  0.72712  0.14785  0.49105  1.0000
  H   H1223     1.0  0.73638  0.18987  0.62986  1.0000
  C   C787      1.0  0.73552  0.99826  0.41001  1.0000
  H   H1224     1.0  0.52605  0.07582  0.33575  1.0000
  H   H1225     1.0  0.75117  0.05704  0.37514  1.0000
  H   H1226     1.0  0.69019  0.08576  0.62542  1.0000
  C   C788      1.0  0.84751  0.23180  0.63807  1.0000
  N   N76       1.0  0.61737  0.14913  0.32896  1.0000
  S   S330      1.0  0.76807  0.22440  0.40503  1.0000
  H   H1227     1.0  0.78916  0.99497  0.60027  1.0000
  H   H1228     1.0  0.61928  0.11868  0.33036  1.0000
  H   H1229     1.0  0.56465  0.10600  0.31661  1.0000
  C   C789      1.0  0.67498  0.04448  0.62486  1.0000
  H   H1230     1.0  0.67519  0.99079  0.36642  1.0000
  N   N77       1.0  0.67335  0.06322  0.63073  1.0000
  S   S331      1.0  0.60487  0.22160  0.32247  1.0000
  H   H1231     1.0  0.80508  0.11435  0.64034  1.0000
  Fe  Fe167     1.0  0.63709  0.21843  0.31069  1.0000
  C   C790      1.0  0.52081  0.09152  0.33158  1.0000
  H   H1232     1.0  0.67494  0.21950  0.36157  1.0000
  H   H1233     1.0  0.63181  0.14442  0.35304  1.0000
  H   H1234     1.0  0.62120  0.17874  0.32255  1.0000
  H   H1235     1.0  0.58869  0.14247  0.33292  1.0000
  S   S332      1.0  0.76664  0.22902  0.62975  1.0000
  C   C791      1.0  0.69411  0.11523  0.64224  1.0000
  H   H1236     1.0  0.85805  0.20958  0.61071  1.0000
  H   H1237     1.0  0.54242  0.20327  0.32340  1.0000
  C   C792      1.0  0.65609  0.07644  0.62469  1.0000
  H   H1238     1.0  0.74961  0.13914  0.62322  1.0000
  H   H1239     1.0  0.55952  0.08354  0.33066  1.0000
  H   H1240     1.0  0.69302  0.07357  0.60575  1.0000
  H   H1241     1.0  0.52350  0.12898  0.32508  1.0000
  H   H1242     1.0  0.70425  0.06203  0.62601  1.0000
  H   H1243     1.0  0.76555  0.23369  0.48241  1.0000
  Fe  Fe168     1.0  0.67569  0.22761  0.31577  1.0000
  H   H1244     1.0  0.64328  0.16166  0.32097  1.0000
  S   S333      1.0  0.50052  0.21497  0.31138  1.0000
  S   S334      1.0  0.58158  0.12117  0.63893  1.0000
  H   H1245     1.0  0.68111  0.09108  0.31951  1.0000
  S   S335      1.0  0.68503  0.15777  0.31938  1.0000
  S   S336      1.0  0.49582  0.17028  0.31152  1.0000
  C   C793      1.0  0.70032  0.23269  0.35077  1.0000
  H   H1246     1.0  0.66204  0.03763  0.63156  1.0000
  H   H1247     1.0  0.86338  0.22629  0.63528  1.0000
  H   H1248     1.0  0.80653  0.21715  0.63450  1.0000
  C   C794      1.0  0.81538  0.22691  0.63721  1.0000
  C   C795      1.0  0.52794  0.12171  0.31241  1.0000
  S   S337      1.0  0.68362  0.03982  0.31602  1.0000
  C   C796      1.0  0.74752  0.98639  0.59091  1.0000
  C   C797      1.0  0.67922  0.10565  0.31169  1.0000
  H   H1249     1.0  0.71424  0.98647  0.33996  1.0000
  H   H1250     1.0  0.70869  0.98643  0.48529  1.0000
  Fe  Fe169     1.0  0.66259  0.02254  0.31207  1.0000
  S   S338      1.0  0.79639  0.23466  0.58863  1.0000
  H   H1251     1.0  0.83138  0.18951  0.64331  1.0000
  C   C798      1.0  0.68311  0.23084  0.65802  1.0000
  S   S339      1.0  0.56514  0.14587  0.72179  1.0000
  S   S340      1.0  0.60263  0.12945  0.68026  1.0000
  H   H1252     1.0  0.69353  0.10181  0.67174  1.0000
  S   S341      1.0  0.56698  0.10504  0.69408  1.0000
  Fe  Fe170     1.0  0.62046  0.21925  0.74084  1.0000
  C   C799      1.0  0.52766  0.14327  0.66729  1.0000
  S   S342      1.0  0.62396  0.18693  0.74587  1.0000
  H   H1253     1.0  0.68425  0.05063  0.65682  1.0000
  S   S343      1.0  0.52997  0.21248  0.69108  1.0000
  H   H1254     1.0  0.52201  0.17369  0.69865  1.0000
  H   H1255     1.0  0.52151  0.02823  0.69587  1.0000
  H   H1256     1.0  0.52356  0.21631  0.73522  1.0000
  H   H1257     1.0  0.52200  0.09858  0.71666  1.0000
  H   H1258     1.0  0.50477  0.17769  0.66238  1.0000
  H   H1259     1.0  0.65435  0.19410  0.69455  1.0000
  C   C800      1.0  0.51033  0.09758  0.75405  1.0000
  H   H1260     1.0  0.67022  0.07431  0.65661  1.0000
  H   H1261     1.0  0.53634  0.07031  0.77100  1.0000
  H   H1262     1.0  0.61267  0.17094  0.69534  1.0000
  N   N78       1.0  0.52723  0.22357  0.76129  1.0000
  H   H1263     1.0  0.64227  0.17245  0.65723  1.0000
  H   H1264     1.0  0.55277  0.17498  0.67549  1.0000
  S   S344      1.0  0.57719  0.05190  0.71606  1.0000
  H   H1265     1.0  0.54082  0.11356  0.73312  1.0000
  C   C801      1.0  0.56108  0.22531  0.69715  1.0000
  H   H1266     1.0  0.56952  0.21182  0.69371  1.0000
  C   C802      1.0  0.65600  0.18655  0.68227  1.0000
  H   H1267     1.0  0.64247  0.01309  0.70556  1.0000
  C   C803      1.0  0.52063  0.16058  0.69362  1.0000
  H   H1268     1.0  0.81020  0.22929  0.65219  1.0000
  H   H1269     1.0  0.56294  0.99091  0.71019  1.0000
  Fe  Fe171     1.0  0.62179  0.10216  0.69049  1.0000
  H   H1270     1.0  0.57223  0.01249  0.72776  1.0000
  C   C804      1.0  0.62051  0.99526  0.71627  1.0000
  H   H1271     1.0  0.66332  0.14992  0.70084  1.0000
  C   C805      1.0  0.54227  0.21940  0.77346  1.0000
  C   C806      1.0  0.65361  0.12011  0.65104  1.0000
  H   H1272     1.0  0.54575  0.10234  0.75643  1.0000
  C   C807      1.0  0.54419  0.09939  0.74249  1.0000
  H   H1273     1.0  0.53491  0.13008  0.67575  1.0000
  H   H1274     1.0  0.54083  0.07770  0.71812  1.0000
  N   N79       1.0  0.64319  0.17197  0.68671  1.0000
  Fe  Fe172     1.0  0.58926  0.11051  0.66802  1.0000
  H   H1275     1.0  0.50568  0.11183  0.74531  1.0000
  C   C808      1.0  0.61394  0.03038  0.70988  1.0000
  C   C809      1.0  0.53433  0.21329  0.74497  1.0000
  H   H1276     1.0  0.61918  0.04391  0.70511  1.0000
  N   N80       1.0  0.54605  0.00651  0.68878  1.0000
  H   H1277     1.0  0.63800  0.12159  0.65417  1.0000
  C   C810      1.0  0.64810  0.15762  0.70352  1.0000
  C   C811      1.0  0.53386  0.09632  0.64812  1.0000
  H   H1278     1.0  0.61824  0.19186  0.67824  1.0000
  C   C812      1.0  0.55069  0.16164  0.67132  1.0000
  H   H1279     1.0  0.55814  0.14926  0.68060  1.0000
  Fe  Fe173     1.0  0.49746  0.22002  0.69736  1.0000
  C   C813      1.0  0.58083  0.15747  0.72924  1.0000
  C   C814      1.0  0.59779  0.14684  0.73533  1.0000
  C   C815      1.0  0.61038  0.15602  0.74120  1.0000
  C   C816      1.0  0.60648  0.17598  0.74043  1.0000
  C   C817      1.0  0.58953  0.18673  0.73426  1.0000
  C   C818      1.0  0.57663  0.17741  0.72882  1.0000
  H   H1280     1.0  0.60111  0.13145  0.73579  1.0000
  H   H1281     1.0  0.62340  0.14762  0.74606  1.0000
  H   H1282     1.0  0.58654  0.20218  0.73339  1.0000
  H   H1283     1.0  0.56370  0.18568  0.72372  1.0000
  C   C819      1.0  0.52988  0.01466  0.70270  1.0000
  C   C820      1.0  0.68492  0.10890  0.66083  1.0000
  C   C821      1.0  0.66468  0.11113  0.66520  1.0000
  N   N81       1.0  0.52986  0.16084  0.67341  1.0000
  H   H1284     1.0  0.55832  0.16130  0.65635  1.0000
  H   H1285     1.0  0.63634  0.15108  0.67327  1.0000
  H   H1286     1.0  0.52163  0.19147  0.66562  1.0000
  H   H1287     1.0  0.65826  0.05426  0.65912  1.0000
  H   H1288     1.0  0.55601  0.22409  0.76532  1.0000
  H   H1289     1.0  0.49852  0.08909  0.75593  1.0000
  C   C822      1.0  0.52047  0.17790  0.66133  1.0000
  H   H1290     1.0  0.51212  0.14205  0.66893  1.0000
  H   H1291     1.0  0.53522  0.01791  0.71476  1.0000
  H   H1292     1.0  0.70353  0.16620  0.64538  1.0000
  C   C823      1.0  0.62276  0.18156  0.69088  1.0000
  H   H1293     1.0  0.52757  0.14800  0.70311  1.0000
  H   H1294     1.0  0.50489  0.15997  0.69583  1.0000
  C   C824      1.0  0.55140  0.10082  0.65014  1.0000
  H   H1295     1.0  0.64638  0.16450  0.71624  1.0000
  H   H1296     1.0  0.52330  0.05949  0.75869  1.0000
  Fe  Fe174     1.0  0.58219  0.12161  0.70718  1.0000
  C   C825      1.0  0.58751  0.01263  0.72254  1.0000
  H   H1297     1.0  0.55188  0.03417  0.67332  1.0000
  C   C826      1.0  0.54124  0.22963  0.69633  1.0000
  H   H1298     1.0  0.52674  0.08638  0.65917  1.0000
  H   H1299     1.0  0.65256  0.19774  0.66978  1.0000
  H   H1300     1.0  0.67154  0.17992  0.67900  1.0000
  C   C827      1.0  0.59410  0.03027  0.71614  1.0000
  H   H1301     1.0  0.53423  0.14319  0.65202  1.0000
  H   H1302     1.0  0.66104  0.15458  0.66679  1.0000
  C   C828      1.0  0.64584  0.16215  0.67024  1.0000
  S   S345      1.0  0.65357  0.10202  0.68821  1.0000
  S   S346      1.0  0.61031  0.08364  0.67577  1.0000
  S   S347      1.0  0.60235  0.09558  0.71878  1.0000
  S   S348      1.0  0.64241  0.23291  0.74874  1.0000
  H   H1303     1.0  0.55770  0.09415  0.66265  1.0000
  H   H1304     1.0  0.52994  0.01566  0.66564  1.0000
  C   C829      1.0  0.62711  0.01293  0.71012  1.0000
  H   H1305     1.0  0.54847  0.06077  0.74989  1.0000
  Fe  Fe175     1.0  0.58901  0.07937  0.70315  1.0000
  H   H1306     1.0  0.49759  0.22031  0.76377  1.0000
  H   H1307     1.0  0.51179  0.20122  0.77771  1.0000
  C   C830      1.0  0.50931  0.21703  0.77250  1.0000
  H   H1308     1.0  0.51939  0.00456  0.70872  1.0000
  H   H1309     1.0  0.73643  0.16939  0.64872  1.0000
  C   C831      1.0  0.52692  0.08471  0.72582  1.0000
  N   N82       1.0  0.52899  0.08761  0.74475  1.0000
  H   H1310     1.0  0.54799  0.21769  0.73640  1.0000
  H   H1311     1.0  0.55859  0.09195  0.73610  1.0000
  H   H1312     1.0  0.84338  0.23378  0.65323  1.0000
  H   H1313     1.0  0.51602  0.07534  0.72710  1.0000
  C   C832      1.0  0.55938  0.02051  0.68095  1.0000
  C   C833      1.0  0.60063  0.99516  0.72236  1.0000
  C   C834      1.0  0.53450  0.06871  0.75665  1.0000
  H   H1314     1.0  0.50372  0.22421  0.78516  1.0000
  C   C835      1.0  0.67145  0.06044  0.65172  1.0000
  H   H1315     1.0  0.62053  0.18990  0.70262  1.0000
  H   H1316     1.0  0.63857  0.14648  0.70737  1.0000
  H   H1317     1.0  0.51125  0.10010  0.76836  1.0000
  H   H1318     1.0  0.85523  0.19307  0.64428  1.0000
  H   H1319     1.0  0.53737  0.19743  0.74973  1.0000
  H   H1320     1.0  0.52731  0.17865  0.64604  1.0000
  H   H1321     1.0  0.54582  0.20371  0.77900  1.0000
  C   C836      1.0  0.53821  0.00240  0.67312  1.0000
  C   C837      1.0  0.55664  0.98847  0.69838  1.0000
  H   H1322     1.0  0.83484  0.20096  0.66168  1.0000
  S   S349      1.0  0.49705  0.06743  0.68184  1.0000
  C   C838      1.0  0.83962  0.19974  0.64635  1.0000
  H   H1323     1.0  0.56524  0.02428  0.69244  1.0000
  H   H1324     1.0  0.67606  0.22234  0.65192  1.0000
  H   H1325     1.0  0.57199  0.01467  0.67072  1.0000
  H   H1326     1.0  0.58506  0.23446  0.70415  1.0000
  H   H1327     1.0  0.53748  0.22697  0.78592  1.0000
  H   H1328     1.0  0.54998  0.99616  0.66237  1.0000
  H   H1329     1.0  0.52801  0.99194  0.67859  1.0000
  H   H1330     1.0  0.65954  0.23464  0.68172  1.0000
  H   H1331     1.0  0.65270  0.34808  0.07769  1.0000
  H   H1332     1.0  0.67711  0.27589  0.29878  1.0000
  H   H1333     1.0  0.65035  0.34907  0.10254  1.0000
  Fe  Fe176     1.0  0.67415  0.35814  0.02116  1.0000
  S   S350      1.0  0.64770  0.37245  0.03878  1.0000
  S   S351      1.0  0.70115  0.34185  0.03221  1.0000
  Fe  Fe177     1.0  0.63142  0.36136  0.02148  1.0000
  S   S352      1.0  0.60349  0.35076  0.03505  1.0000
  C   C839      1.0  0.80785  0.46978  0.09532  1.0000
  H   H1334     1.0  0.65499  0.42853  0.07876  1.0000
  S   S353      1.0  0.65783  0.34461  0.00574  1.0000
  S   S354      1.0  0.49859  0.36563  0.13592  1.0000
  Fe  Fe178     1.0  0.77833  0.45486  0.03189  1.0000
  C   C840      1.0  0.73315  0.37312  0.00436  1.0000
  Fe  Fe179     1.0  0.50856  0.33723  0.12585  1.0000
  Fe  Fe180     1.0  0.73735  0.44923  0.03409  1.0000
  S   S355      1.0  0.71482  0.43505  0.05530  1.0000
  S   S356      1.0  0.76593  0.42965  0.02969  1.0000
  Fe  Fe181     1.0  0.64281  0.36027  0.14767  1.0000
  S   S357      1.0  0.65884  0.33041  0.15574  1.0000
  S   S358      1.0  0.61870  0.36399  0.13080  1.0000
  Fe  Fe182     1.0  0.67292  0.37899  0.15894  1.0000
  S   S359      1.0  0.69122  0.35038  0.16766  1.0000
  S   S360      1.0  0.67994  0.40891  0.15624  1.0000
  Fe  Fe183     1.0  0.68538  0.34297  0.14104  1.0000
  S   S361      1.0  0.70776  0.32814  0.11969  1.0000
  Fe  Fe184     1.0  0.66277  0.34058  0.18159  1.0000
  S   S362      1.0  0.65534  0.32520  0.21222  1.0000
  S   S363      1.0  0.66922  0.37207  0.13141  1.0000
  S   S364      1.0  0.64461  0.36997  0.17447  1.0000
  H   H1335     1.0  0.84967  0.44359  0.26985  1.0000
  H   H1336     1.0  0.62188  0.32474  0.08058  1.0000
  S   S365      1.0  0.65310  0.24324  0.29786  1.0000
  S   S366      1.0  0.76464  0.47023  0.20417  1.0000
  C   C841      1.0  0.70304  0.25960  0.27203  1.0000
  C   C842      1.0  0.49734  0.27625  0.20809  1.0000
  H   H1337     1.0  0.67290  0.44080  0.12670  1.0000
  H   H1338     1.0  0.70945  0.30031  0.28439  1.0000
  C   C843      1.0  0.51322  0.34460  0.04211  1.0000
  H   H1339     1.0  0.66762  0.28155  0.27694  1.0000
  Fe  Fe185     1.0  0.76059  0.45478  0.18166  1.0000
  S   S367      1.0  0.74956  0.42632  0.18832  1.0000
  S   S368      1.0  0.79130  0.45420  0.16587  1.0000
  H   H1340     1.0  0.66487  0.29703  0.10166  1.0000
  H   H1341     1.0  0.68060  0.45330  0.10313  1.0000
  H   H1342     1.0  0.54842  0.35661  0.00253  1.0000
  H   H1343     1.0  0.82646  0.45425  0.07414  1.0000
  H   H1344     1.0  0.52307  0.28513  0.06044  1.0000
  H   H1345     1.0  0.71280  0.40784  0.01007  1.0000
  H   H1346     1.0  0.61994  0.34686  0.99647  1.0000
  C   C844      1.0  0.77756  0.46748  0.07755  1.0000
  H   H1347     1.0  0.63679  0.32320  0.12707  1.0000
  H   H1348     1.0  0.53699  0.28030  0.21598  1.0000
  C   C845      1.0  0.78895  0.47858  0.10176  1.0000
  S   S369      1.0  0.64601  0.42776  0.01733  1.0000
  Fe  Fe186     1.0  0.51343  0.35135  0.16087  1.0000
  S   S370      1.0  0.52551  0.32415  0.14948  1.0000
  S   S371      1.0  0.53258  0.36326  0.17471  1.0000
  C   C846      1.0  0.79663  0.45973  0.07030  1.0000
  S   S372      1.0  0.63029  0.38748  0.99837  1.0000
  H   H1349     1.0  0.85691  0.46024  0.21517  1.0000
  H   H1350     1.0  0.81970  0.47116  0.10178  1.0000
  S   S373      1.0  0.52489  0.33534  0.09579  1.0000
  H   H1351     1.0  0.61642  0.32642  0.11544  1.0000
  H   H1352     1.0  0.74068  0.37712  0.98945  1.0000
  C   C847      1.0  0.50602  0.25828  0.21710  1.0000
  C   C848      1.0  0.95055  0.46815  0.30525  1.0000
  H   H1353     1.0  0.67460  0.30011  0.28553  1.0000
  H   H1354     1.0  0.83519  0.40779  0.29250  1.0000
  H   H1355     1.0  0.53263  0.39695  0.07266  1.0000
  H   H1356     1.0  0.51712  0.24922  0.20880  1.0000
  H   H1357     1.0  0.86315  0.47294  0.24211  1.0000
  H   H1358     1.0  0.73841  0.35758  0.00938  1.0000
  Fe  Fe187     1.0  0.77969  0.48244  0.14900  1.0000
  H   H1359     1.0  0.64502  0.45098  0.08683  1.0000
  H   H1360     1.0  0.64439  0.41095  0.11160  1.0000
  H   H1361     1.0  0.53848  0.33882  0.05552  1.0000
  H   H1362     1.0  0.63458  0.43359  0.11943  1.0000
  Fe  Fe188     1.0  0.65804  0.37177  0.98388  1.0000
  H   H1363     1.0  0.66740  0.45850  0.01245  1.0000
  H   H1364     1.0  0.69551  0.30754  0.25418  1.0000
  H   H1365     1.0  0.73202  0.36396  0.04241  1.0000
  H   H1366     1.0  0.65186  0.41638  0.13159  1.0000
  H   H1367     1.0  0.56055  0.28254  0.21935  1.0000
  S   S374      1.0  0.50436  0.28319  0.18315  1.0000
  S   S375      1.0  0.74961  0.47375  0.03846  1.0000
  H   H1368     1.0  0.70291  0.25041  0.28639  1.0000
  H   H1369     1.0  0.62912  0.35236  0.09204  1.0000
  C   C849      1.0  0.59516  0.36267  0.14363  1.0000
  C   C850      1.0  0.58124  0.35894  0.13454  1.0000
  C   C851      1.0  0.56207  0.35873  0.14412  1.0000
  C   C852      1.0  0.55668  0.36261  0.16272  1.0000
  C   C853      1.0  0.57066  0.36607  0.17189  1.0000
  C   C854      1.0  0.58994  0.36592  0.16244  1.0000
  H   H1370     1.0  0.58530  0.35625  0.12006  1.0000
  H   H1371     1.0  0.55135  0.35597  0.13702  1.0000
  H   H1372     1.0  0.56656  0.36911  0.18627  1.0000
  H   H1373     1.0  0.60060  0.36885  0.16952  1.0000
  C   C855      1.0  0.66044  0.30006  0.22016  1.0000
  C   C856      1.0  0.65145  0.29234  0.23846  1.0000
  C   C857      1.0  0.65596  0.27261  0.24590  1.0000
  C   C858      1.0  0.66973  0.26044  0.23522  1.0000
  C   C859      1.0  0.67848  0.26807  0.21678  1.0000
  C   C860      1.0  0.67383  0.28780  0.20923  1.0000
  H   H1374     1.0  0.64097  0.30170  0.24694  1.0000
  H   H1375     1.0  0.64874  0.26685  0.25989  1.0000
  H   H1376     1.0  0.68909  0.25873  0.20837  1.0000
  H   H1377     1.0  0.68087  0.29359  0.19514  1.0000
  C   C861      1.0  0.72970  0.42195  0.17984  1.0000
  C   C862      1.0  0.71807  0.43663  0.16932  1.0000
  C   C863      1.0  0.70288  0.43240  0.16221  1.0000
  C   C864      1.0  0.69918  0.41348  0.16553  1.0000
  C   C865      1.0  0.71086  0.39880  0.17596  1.0000
  C   C866      1.0  0.72600  0.40305  0.18313  1.0000
  H   H1378     1.0  0.72063  0.45127  0.16684  1.0000
  H   H1379     1.0  0.69383  0.44387  0.15429  1.0000
  H   H1380     1.0  0.70812  0.38420  0.17867  1.0000
  H   H1381     1.0  0.73492  0.39160  0.19126  1.0000
  C   C867      1.0  0.54508  0.28969  0.22050  1.0000
  C   C868      1.0  0.84514  0.46873  0.22340  1.0000
  C   C869      1.0  0.84870  0.47586  0.23867  1.0000
  H   H1382     1.0  0.76042  0.39142  0.02673  1.0000
  C   C870      1.0  0.72639  0.37921  0.03666  1.0000
  C   C871      1.0  0.81689  0.45494  0.29406  1.0000
  H   H1383     1.0  0.81532  0.45961  0.27879  1.0000
  H   H1384     1.0  0.50026  0.28459  0.07658  1.0000
  H   H1385     1.0  0.51386  0.30987  0.20509  1.0000
  S   S376      1.0  0.80230  0.45073  0.04884  1.0000
  C   C872      1.0  0.59265  0.35025  0.01571  1.0000
  C   C873      1.0  0.57245  0.35245  0.01752  1.0000
  S   S377      1.0  0.74885  0.48172  0.16293  1.0000
  C   C874      1.0  0.52281  0.34121  0.05781  1.0000
  H   H1386     1.0  0.63655  0.30133  0.08521  1.0000
  C   C875      1.0  0.82657  0.47286  0.21841  1.0000
  H   H1387     1.0  0.56331  0.35347  0.03122  1.0000
  H   H1388     1.0  0.76579  0.46654  0.07090  1.0000
  C   C876      1.0  0.66520  0.42983  0.02776  1.0000
  H   H1389     1.0  0.56640  0.30097  0.18641  1.0000
  C   C877      1.0  0.70260  0.33915  0.05649  1.0000
  C   C878      1.0  0.69105  0.35180  0.06821  1.0000
  C   C879      1.0  0.69265  0.34887  0.08764  1.0000
  C   C880      1.0  0.70586  0.33337  0.09529  1.0000
  C   C881      1.0  0.71773  0.32120  0.08332  1.0000
  C   C882      1.0  0.71615  0.32410  0.06404  1.0000
  H   H1390     1.0  0.68102  0.36386  0.06229  1.0000
  H   H1391     1.0  0.68372  0.35858  0.09663  1.0000
  H   H1392     1.0  0.72806  0.30929  0.08906  1.0000
  H   H1393     1.0  0.72532  0.31443  0.05500  1.0000
  S   S378      1.0  0.73697  0.46019  0.00289  1.0000
  C   C883      1.0  0.67269  0.41457  0.04104  1.0000
  C   C884      1.0  0.68785  0.41632  0.04962  1.0000
  C   C885      1.0  0.69601  0.43306  0.04438  1.0000
  C   C886      1.0  0.68882  0.44820  0.03084  1.0000
  C   C887      1.0  0.60436  0.34888  0.99794  1.0000
  H   H1394     1.0  0.66652  0.40157  0.04503  1.0000
  H   H1395     1.0  0.69335  0.40464  0.06016  1.0000
  H   H1396     1.0  0.69499  0.46125  0.02693  1.0000
  N   N83       1.0  0.54305  0.30914  0.20870  1.0000
  C   C888      1.0  0.64410  0.34408  0.09205  1.0000
  C   C889      1.0  0.56402  0.35417  0.00130  1.0000
  H   H1397     1.0  0.52150  0.34484  0.02783  1.0000
  H   H1398     1.0  0.72758  0.28139  0.27562  1.0000
  H   H1399     1.0  0.53552  0.37476  0.06410  1.0000
  H   H1400     1.0  0.53092  0.37483  0.08922  1.0000
  H   H1401     1.0  0.81031  0.41867  0.29916  1.0000
  N   N84       1.0  0.69842  0.28025  0.27330  1.0000
  H   H1402     1.0  0.53926  0.29023  0.23585  1.0000
  H   H1403     1.0  0.71054  0.38032  0.03710  1.0000
  C   C890      1.0  0.55396  0.32123  0.21500  1.0000
  H   H1404     1.0  0.73088  0.41512  0.01942  1.0000
  H   H1405     1.0  0.54847  0.32278  0.23016  1.0000
  H   H1406     1.0  0.69228  0.25550  0.26535  1.0000
  C   C891      1.0  0.51224  0.34053  0.07646  1.0000
  N   N85       1.0  0.64418  0.32315  0.09690  1.0000
  H   H1407     1.0  0.65566  0.45819  0.11461  1.0000
  H   H1408     1.0  0.71169  0.27628  0.29803  1.0000
  H   H1409     1.0  0.68628  0.40975  0.11572  1.0000
  H   H1410     1.0  0.54953  0.32207  0.17921  1.0000
  H   H1411     1.0  0.93883  0.46066  0.30564  1.0000
  H   H1412     1.0  0.67416  0.31597  0.08417  1.0000
  Fe  Fe189     1.0  0.76673  0.44238  0.99878  1.0000
  H   H1413     1.0  0.67021  0.31721  0.10909  1.0000
  N   N86       1.0  0.77119  0.42114  0.12888  1.0000
  C   C892      1.0  0.75476  0.41122  0.13004  1.0000
  C   C893      1.0  0.78313  0.41062  0.14336  1.0000
  C   C894      1.0  0.76366  0.44096  0.13250  1.0000
  C   C895      1.0  0.78320  0.42181  0.10964  1.0000
  H   H1414     1.0  0.75988  0.39621  0.12741  1.0000
  H   H1415     1.0  0.74545  0.41042  0.14439  1.0000
  H   H1416     1.0  0.79539  0.41797  0.14320  1.0000
  H   H1417     1.0  0.77441  0.40959  0.15802  1.0000
  H   H1418     1.0  0.78930  0.39567  0.14097  1.0000
  H   H1419     1.0  0.75414  0.44922  0.12220  1.0000
  H   H1420     1.0  0.77566  0.44899  0.13135  1.0000
  H   H1421     1.0  0.75504  0.44098  0.14710  1.0000
  H   H1422     1.0  0.79561  0.42940  0.10821  1.0000
  H   H1423     1.0  0.77460  0.42953  0.09835  1.0000
  H   H1424     1.0  0.78930  0.40711  0.10645  1.0000
  N   N87       1.0  0.73642  0.38522  0.01702  1.0000
  H   H1425     1.0  0.80231  0.45324  0.30254  1.0000
  H   H1426     1.0  0.82311  0.42534  0.27538  1.0000
  Fe  Fe190     1.0  0.79463  0.47141  0.18714  1.0000
  H   H1427     1.0  0.50603  0.30686  0.06270  1.0000
  C   C896      1.0  0.69963  0.29185  0.25386  1.0000
  H   H1428     1.0  0.76387  0.36765  0.02146  1.0000
  C   C897      1.0  0.52231  0.31801  0.21073  1.0000
  H   H1429     1.0  0.64617  0.32014  0.06774  1.0000
  C   C898      1.0  0.63685  0.31704  0.08199  1.0000
  H   H1430     1.0  0.52027  0.33299  0.20270  1.0000
  H   H1431     1.0  0.51569  0.31855  0.22590  1.0000
  N   N88       1.0  0.66402  0.43132  0.10429  1.0000
  C   C899      1.0  0.68145  0.41632  0.10185  1.0000
  C   C900      1.0  0.65821  0.43969  0.08554  1.0000
  C   C901      1.0  0.66847  0.44661  0.11252  1.0000
  C   C902      1.0  0.64799  0.42271  0.11725  1.0000
  H   H1432     1.0  0.71756  0.25578  0.26329  1.0000
  H   H1433     1.0  0.69384  0.42233  0.09221  1.0000
  H   H1434     1.0  0.67869  0.40453  0.09566  1.0000
  H   H1435     1.0  0.71450  0.28923  0.24540  1.0000
  H   H1436     1.0  0.66994  0.44647  0.07549  1.0000
  H   H1437     1.0  0.68971  0.28824  0.24577  1.0000
  C   C903      1.0  0.67858  0.28467  0.28413  1.0000
  H   H1438     1.0  0.86164  0.42719  0.28794  1.0000
  C   C904      1.0  0.71243  0.28480  0.28327  1.0000
  Fe  Fe191     1.0  0.49851  0.31373  0.16643  1.0000
  Fe  Fe192     1.0  0.64901  0.39711  0.01425  1.0000
  H   H1439     1.0  0.72818  0.38831  0.04654  1.0000
  N   N89       1.0  0.55996  0.37815  0.07521  1.0000
  C   C905      1.0  0.56752  0.35725  0.07853  1.0000
  C   C906      1.0  0.56985  0.38714  0.05652  1.0000
  C   C907      1.0  0.56361  0.38680  0.09051  1.0000
  H   H1440     1.0  0.56459  0.35018  0.06749  1.0000
  H   H1441     1.0  0.56062  0.35003  0.09267  1.0000
  H   H1442     1.0  0.58350  0.35428  0.07799  1.0000
  H   H1443     1.0  0.56463  0.40292  0.05350  1.0000
  H   H1444     1.0  0.56737  0.38091  0.04467  1.0000
  H   H1445     1.0  0.58586  0.38476  0.05586  1.0000
  H   H1446     1.0  0.55609  0.38051  0.10477  1.0000
  H   H1447     1.0  0.55827  0.40260  0.08836  1.0000
  H   H1448     1.0  0.57938  0.38441  0.09109  1.0000
  H   H1449     1.0  0.63125  0.30300  0.11978  1.0000
  H   H1450     1.0  0.56970  0.31504  0.21358  1.0000
  C   C908      1.0  0.77375  0.47711  0.09310  1.0000
  H   H1451     1.0  0.55265  0.33599  0.20625  1.0000
  C   C909      1.0  0.55079  0.30763  0.18849  1.0000
  C   C910      1.0  0.81168  0.46031  0.07962  1.0000
  C   C911      1.0  0.66420  0.31288  0.09799  1.0000
  C   C912      1.0  0.53885  0.38136  0.07528  1.0000
  C   C913      1.0  0.75746  0.38295  0.01689  1.0000
  H   H1452     1.0  0.52383  0.29114  0.02534  1.0000
  C   C914      1.0  0.63159  0.31867  0.11558  1.0000
  H   H1453     1.0  0.74531  0.41887  0.11945  1.0000
  H   H1454     1.0  0.73602  0.41059  0.99542  1.0000
  S   S379      1.0  0.67678  0.38377  0.99793  1.0000
  H   H1455     1.0  0.54276  0.29873  0.18320  1.0000
  C   C915      1.0  0.57586  0.35330  0.98345  1.0000
  C   C916      1.0  0.81146  0.48389  0.22906  1.0000
  C   C917      1.0  0.85019  0.44007  0.28540  1.0000
  S   S380      1.0  0.82315  0.46480  0.19825  1.0000
  H   H1456     1.0  0.82147  0.46700  0.29838  1.0000
  N   N90       1.0  0.83113  0.43696  0.29689  1.0000
  H   H1457     1.0  0.85499  0.45225  0.28909  1.0000
  C   C918      1.0  0.67318  0.44670  0.02275  1.0000
  H   H1458     1.0  0.50740  0.23812  0.24357  1.0000
  C   C919      1.0  0.82462  0.42149  0.29072  1.0000
  S   S381      1.0  0.88990  0.46693  0.28149  1.0000
  C   C920      1.0  0.72868  0.40559  0.01016  1.0000
  C   C921      1.0  0.59602  0.35012  0.98193  1.0000
  H   H1459     1.0  0.76540  0.38800  0.00238  1.0000
  S   S382      1.0  0.78226  0.46583  0.00031  1.0000
  C   C922      1.0  0.50045  0.25189  0.23678  1.0000
  S   S383      1.0  0.52087  0.33293  0.98201  1.0000
  H   H1460     1.0  0.71744  0.37457  0.00404  1.0000
  Fe  Fe193     1.0  0.75239  0.48285  0.00666  1.0000
  H   H1461     1.0  0.50141  0.29638  0.01621  1.0000
  Fe  Fe194     1.0  0.49628  0.35347  0.99551  1.0000
  S   S384      1.0  0.51037  0.37965  0.98422  1.0000
  H   H1462     1.0  0.75913  0.48406  0.09795  1.0000
  H   H1463     1.0  0.50753  0.31325  0.02769  1.0000
  C   C923      1.0  0.50000  0.26775  0.04700  1.0000
  C   C924      1.0  0.50821  0.29764  0.02821  1.0000
  H   H1464     1.0  0.51547  0.26060  0.04480  1.0000
  C   C925      1.0  0.50732  0.29132  0.06231  1.0000
  N   N91       1.0  0.49826  0.28854  0.04683  1.0000
  S   S385      1.0  0.67695  0.23590  0.24483  1.0000
  Fe  Fe195     1.0  0.88221  0.35951  0.61330  1.0000
  Fe  Fe196     1.0  0.89119  0.35811  0.57095  1.0000
  S   S386      1.0  0.90683  0.32788  0.57571  1.0000
  S   S387      1.0  0.89248  0.37239  0.54019  1.0000
  Fe  Fe197     1.0  0.88214  0.32230  0.59966  1.0000
  Fe  Fe198     1.0  0.92043  0.33717  0.59647  1.0000
  S   S388      1.0  0.95300  0.32759  0.59385  1.0000
  S   S389      1.0  0.86536  0.35227  0.59344  1.0000
  S   S390      1.0  0.90649  0.36809  0.58998  1.0000
  H   H1465     1.0  0.87371  0.37461  0.37848  1.0000
  H   H1466     1.0  0.85561  0.26624  0.58944  1.0000
  Fe  Fe199     1.0  0.77678  0.25363  0.60789  1.0000
  H   H1467     1.0  0.84715  0.37300  0.47299  1.0000
  Fe  Fe200     1.0  0.86155  0.33729  0.46149  1.0000
  S   S391      1.0  0.87961  0.31168  0.45014  1.0000
  S   S392      1.0  0.84988  0.33486  0.49319  1.0000
  Fe  Fe201     1.0  0.86264  0.36175  0.42195  1.0000
  S   S393      1.0  0.85214  0.39303  0.41029  1.0000
  Fe  Fe202     1.0  0.86135  0.31898  0.42718  1.0000
  S   S394      1.0  0.85576  0.29234  0.41875  1.0000
  S   S395      1.0  0.84149  0.34317  0.44015  1.0000
  S   S396      1.0  0.88140  0.35734  0.44421  1.0000
  H   H1468     1.0  0.83241  0.27578  0.55748  1.0000
  H   H1469     1.0  0.98538  0.37980  0.35598  1.0000
  H   H1470     1.0  0.81637  0.31661  0.52073  1.0000
  H   H1471     1.0  0.80626  0.32524  0.54271  1.0000
  H   H1472     1.0  0.79494  0.30255  0.57193  1.0000
  H   H1473     1.0  0.91704  0.28401  0.44144  1.0000
  H   H1474     1.0  0.92406  0.36320  0.41440  1.0000
  C   C926      1.0  0.94454  0.33990  0.42650  1.0000
  H   H1475     1.0  0.93343  0.37108  0.54213  1.0000
  H   H1476     1.0  0.81208  0.24103  0.62777  1.0000
  C   C927      1.0  0.83239  0.41994  0.45513  1.0000
  C   C928      1.0  0.96289  0.33469  0.43193  1.0000
  H   H1477     1.0  0.97704  0.38762  0.37853  1.0000
  C   C929      1.0  0.86502  0.40305  0.45671  1.0000
  C   C930      1.0  0.81370  0.30002  0.61519  1.0000
  C   C931      1.0  0.93814  0.35907  0.41873  1.0000
  H   H1478     1.0  0.84492  0.24635  0.62913  1.0000
  Fe  Fe203     1.0  0.89796  0.33218  0.43106  1.0000
  C   C932      1.0  0.79733  0.29662  0.42251  1.0000
  C   C933      1.0  0.81562  0.30117  0.42223  1.0000
  C   C934      1.0  0.83227  0.28705  0.42061  1.0000
  C   C935      1.0  0.83040  0.26828  0.41969  1.0000
  C   C936      1.0  0.81208  0.26363  0.42038  1.0000
  H   H1479     1.0  0.81689  0.31569  0.42285  1.0000
  H   H1480     1.0  0.84319  0.25728  0.41837  1.0000
  S   S397      1.0  0.85298  0.47973  0.31506  1.0000
  C   C937      1.0  0.87384  0.41751  0.34776  1.0000
  C   C938      1.0  0.87732  0.39760  0.35436  1.0000
  C   C939      1.0  0.87095  0.38997  0.37356  1.0000
  C   C940      1.0  0.86080  0.40221  0.38622  1.0000
  C   C941      1.0  0.85719  0.42214  0.37959  1.0000
  C   C942      1.0  0.86380  0.42981  0.36043  1.0000
  H   H1481     1.0  0.84931  0.43169  0.38930  1.0000
  H   H1482     1.0  0.86101  0.44518  0.35544  1.0000
  C   C943      1.0  0.97480  0.34855  0.42963  1.0000
  C   C944      1.0  0.87919  0.39422  0.64159  1.0000
  C   C945      1.0  0.95027  0.37280  0.41593  1.0000
  C   C946      1.0  0.80967  0.28406  0.60954  1.0000
  Fe  Fe204     1.0  0.88064  0.45831  0.31322  1.0000
  S   S398      1.0  0.78575  0.27909  0.61533  1.0000
  S   S399      1.0  0.89764  0.47736  0.32119  1.0000
  H   H1483     1.0  0.80207  0.30936  0.62263  1.0000
  H   H1484     1.0  0.96794  0.31988  0.43790  1.0000
  H   H1485     1.0  0.91908  0.25345  0.39662  1.0000
  N   N92       1.0  0.91478  0.27006  0.41885  1.0000
  H   H1486     1.0  0.94885  0.32977  0.51622  1.0000
  C   C947      1.0  0.90812  0.28831  0.40655  1.0000
  C   C948      1.0  0.88101  0.36131  0.52743  1.0000
  C   C949      1.0  0.86687  0.35013  0.53682  1.0000
  C   C950      1.0  0.85741  0.34197  0.52624  1.0000
  C   C951      1.0  0.86243  0.34453  0.50630  1.0000
  C   C952      1.0  0.87698  0.35523  0.49705  1.0000
  C   C953      1.0  0.88601  0.36386  0.50753  1.0000
  H   H1487     1.0  0.86300  0.34804  0.55221  1.0000
  H   H1488     1.0  0.84626  0.33364  0.53355  1.0000
  H   H1489     1.0  0.88133  0.35688  0.48184  1.0000
  H   H1490     1.0  0.89710  0.37229  0.50023  1.0000
  H   H1491     1.0  0.84352  0.41782  0.31994  1.0000
  H   H1492     1.0  0.93977  0.35097  0.56011  1.0000
  C   C954      1.0  0.92718  0.25654  0.40681  1.0000
  H   H1493     1.0  0.93138  0.26041  0.44164  1.0000
  S   S400      1.0  0.89722  0.32889  0.62126  1.0000
  H   H1494     1.0  0.77960  0.29515  0.55915  1.0000
  H   H1495     1.0  0.94009  0.26256  0.39828  1.0000
  C   C955      1.0  0.96861  0.36760  0.42138  1.0000
  H   H1496     1.0  0.81672  0.42081  0.46141  1.0000
  C   C956      1.0  0.89777  0.26162  0.42985  1.0000
  C   C957      1.0  0.95808  0.36249  0.59977  1.0000
  C   C958      1.0  0.83820  0.38557  0.46541  1.0000
  C   C959      1.0  0.84207  0.40631  0.48580  1.0000
  H   H1497     1.0  0.83403  0.41828  0.43994  1.0000
  N   N93       1.0  0.84442  0.40373  0.46577  1.0000
  C   C960      1.0  0.96684  0.34510  0.59373  1.0000
  C   C961      1.0  0.82882  0.29079  0.54988  1.0000
  C   C962      1.0  0.79548  0.27784  0.42159  1.0000
  H   H1498     1.0  0.83662  0.43394  0.45507  1.0000
  S   S401      1.0  0.69434  0.24238  0.32786  1.0000
  N   N94       1.0  0.95580  0.34873  0.53201  1.0000
  C   C963      1.0  0.97225  0.33483  0.53892  1.0000
  C   C964      1.0  0.94199  0.33823  0.52776  1.0000
  C   C965      1.0  0.96311  0.36159  0.51448  1.0000
  H   H1499     1.0  0.84680  0.41978  0.48670  1.0000
  H   H1500     1.0  0.95105  0.37220  0.50883  1.0000
  H   H1501     1.0  0.98290  0.34227  0.54232  1.0000
  H   H1502     1.0  0.93875  0.28055  0.42435  1.0000
  H   H1503     1.0  0.89947  0.28614  0.39636  1.0000
  C   C966      1.0  0.98703  0.34143  0.58776  1.0000
  H   H1504     1.0  0.81875  0.42907  0.32650  1.0000
  S   S402      1.0  0.75126  0.25836  0.59290  1.0000
  H   H1505     1.0  0.93250  0.24259  0.41562  1.0000
  H   H1506     1.0  0.79346  0.28326  0.52885  1.0000
  H   H1507     1.0  0.87011  0.41665  0.45647  1.0000
  H   H1508     1.0  0.96346  0.44648  0.32636  1.0000
  H   H1509     1.0  0.82169  0.26027  0.59487  1.0000
  N   N95       1.0  0.73456  0.28281  0.38372  1.0000
  C   C967      1.0  0.72092  0.28597  0.37023  1.0000
  C   C968      1.0  0.72684  0.27109  0.40188  1.0000
  C   C969      1.0  0.73685  0.30153  0.38736  1.0000
  C   C970      1.0  0.75365  0.27264  0.37549  1.0000
  H   H1510     1.0  0.72637  0.29456  0.35626  1.0000
  H   H1511     1.0  0.70642  0.29375  0.37595  1.0000
  H   H1512     1.0  0.71866  0.27207  0.36746  1.0000
  H   H1513     1.0  0.71226  0.27808  0.40832  1.0000
  H   H1514     1.0  0.72548  0.25657  0.39992  1.0000
  H   H1515     1.0  0.73650  0.26904  0.41254  1.0000
  H   H1516     1.0  0.74719  0.29958  0.39743  1.0000
  H   H1517     1.0  0.72282  0.30952  0.39385  1.0000
  H   H1518     1.0  0.74263  0.31082  0.37400  1.0000
  H   H1519     1.0  0.76424  0.26987  0.38541  1.0000
  H   H1520     1.0  0.76005  0.28117  0.36190  1.0000
  H   H1521     1.0  0.75255  0.25846  0.37251  1.0000
  C   C971      1.0  0.83279  0.30379  0.61166  1.0000
  S   S403      1.0  0.77241  0.27287  0.42100  1.0000
  H   H1522     1.0  0.78458  0.30770  0.42344  1.0000
  C   C972      1.0  0.92600  0.27382  0.43215  1.0000
  S   S404      1.0  0.88163  0.42639  0.32345  1.0000
  H   H1523     1.0  0.96722  0.32489  0.55217  1.0000
  C   C973      1.0  0.96946  0.37603  0.60011  1.0000
  C   C974      1.0  0.84388  0.27575  0.59655  1.0000
  C   C975      1.0  0.80810  0.28085  0.53285  1.0000
  H   H1524     1.0  0.92905  0.34828  0.52313  1.0000
  N   N96       1.0  0.80924  0.29464  0.54482  1.0000
  H   H1525     1.0  0.83581  0.31590  0.61644  1.0000
  H   H1526     1.0  0.82282  0.38541  0.47238  1.0000
  S   S405      1.0  0.93030  0.32207  0.42865  1.0000
  S   S406      1.0  0.73751  0.23675  0.44313  1.0000
  H   H1527     1.0  0.82999  0.30057  0.55941  1.0000
  H   H1528     1.0  0.81892  0.28206  0.51940  1.0000
  H   H1529     1.0  0.88503  0.38803  0.34461  1.0000
  H   H1530     1.0  0.87458  0.39111  0.46446  1.0000
  H   H1531     1.0  0.86738  0.40080  0.44165  1.0000
  H   H1532     1.0  0.84020  0.29293  0.53694  1.0000
  H   H1533     1.0  0.96258  0.38934  0.60508  1.0000
  H   H1534     1.0  0.97364  0.36965  0.51714  1.0000
  H   H1535     1.0  0.92048  0.29539  0.39830  1.0000
  S   S407      1.0  0.87247  0.29405  0.60006  1.0000
  H   H1536     1.0  0.83953  0.38322  0.45054  1.0000
  H   H1537     1.0  0.94258  0.36536  0.60462  1.0000
  H   H1538     1.0  0.81088  0.24916  0.41956  1.0000
  C   C976      1.0  0.80548  0.31447  0.53409  1.0000
  C   C977      1.0  0.84801  0.29142  0.60267  1.0000
  S   S408      1.0  0.88101  0.33805  0.40712  1.0000
  H   H1539     1.0  0.98898  0.34437  0.43373  1.0000
  H   H1540     1.0  0.89859  0.29866  0.41521  1.0000
  H   H1541     1.0  0.93656  0.32803  0.54055  1.0000
  H   H1542     1.0  0.79086  0.31789  0.52996  1.0000
  C   C978      1.0  0.98142  0.39271  0.36297  1.0000
  H   H1543     1.0  0.88811  0.27149  0.43912  1.0000
  C   C979      1.0  0.82476  0.27222  0.59976  1.0000
  H   H1544     1.0  0.82669  0.40694  0.49309  1.0000
  Fe  Fe205     1.0  0.76724  0.24202  0.42748  1.0000
  H   H1545     1.0  0.85088  0.39412  0.49417  1.0000
  C   C980      1.0  0.79456  0.29246  0.56242  1.0000
  H   H1546     1.0  0.79696  0.27766  0.57084  1.0000
  H   H1547     1.0  0.97085  0.35329  0.50299  1.0000
  H   H1548     1.0  0.95585  0.36797  0.55092  1.0000
  H   H1549     1.0  0.94540  0.38750  0.40950  1.0000
  H   H1550     1.0  0.90785  0.38044  0.63060  1.0000
  C   C981      1.0  0.94581  0.36026  0.54689  1.0000
  H   H1551     1.0  0.81073  0.26571  0.54052  1.0000
  H   H1552     1.0  0.77730  0.25095  0.50248  1.0000
  S   S409      1.0  0.77572  0.24606  0.54275  1.0000
  H   H1553     1.0  0.98025  0.32597  0.52799  1.0000
  H   H1554     1.0  0.88870  0.25901  0.42026  1.0000
  S   S410      1.0  0.86679  0.37849  0.63513  1.0000
  H   H1555     1.0  0.90844  0.47988  0.63507  1.0000
  H   H1556     1.0  0.97903  0.43027  0.36349  1.0000
  C   C982      1.0  0.96467  0.46003  0.31684  1.0000
  H   H1557     1.0  0.90215  0.24775  0.43921  1.0000
  C   C983      1.0  0.98964  0.37227  0.59442  1.0000
  H   H1558     1.0  0.96837  0.40183  0.35767  1.0000
  H   H1559     1.0  0.83814  0.44254  0.32232  1.0000
  S   S411      1.0  0.98394  0.38493  0.41633  1.0000
  C   C984      1.0  0.89945  0.39181  0.63800  1.0000
  H   H1560     1.0  0.92458  0.40190  0.64158  1.0000
  C   C985      1.0  0.77007  0.23884  0.50911  1.0000
  C   C986      1.0  0.71720  0.23636  0.35530  1.0000
  H   H1561     1.0  0.72687  0.24421  0.34443  1.0000
  H   H1562     1.0  0.99365  0.33359  0.62756  1.0000
  C   C987      1.0  0.83287  0.43135  0.31730  1.0000
  H   H1563     1.0  0.98753  0.40722  0.51493  1.0000
  H   H1564     1.0  0.98752  0.41608  0.38453  1.0000
  H   H1565     1.0  0.88459  0.47429  0.63762  1.0000
  Fe  Fe206     1.0  0.77037  0.23770  0.57483  1.0000
  C   C988      1.0  0.97994  0.46961  0.31645  1.0000
  H   H1566     1.0  0.99057  0.41950  0.33234  1.0000
  C   C989      1.0  0.99169  0.42040  0.36881  1.0000
  H   H1567     1.0  0.99385  0.32803  0.58295  1.0000
  H   H1568     1.0  0.99325  0.43717  0.52273  1.0000
  Fe  Fe207     1.0  0.90054  0.44634  0.68906  1.0000
  S   S412      1.0  0.90631  0.42957  0.71756  1.0000
  Fe  Fe208     1.0  0.63172  0.34468  0.83480  1.0000
  H   H1569     1.0  0.56113  0.27902  0.78905  1.0000
  S   S413      1.0  0.89093  0.46986  0.73483  1.0000
  H   H1570     1.0  0.62976  0.29609  0.76320  1.0000
  Fe  Fe209     1.0  0.91905  0.45478  0.71985  1.0000
  S   S414      1.0  0.94821  0.44966  0.72915  1.0000
  Fe  Fe210     1.0  0.87771  0.44614  0.72982  1.0000
  S   S415      1.0  0.85364  0.43137  0.74883  1.0000
  S   S416      1.0  0.91524  0.47046  0.69053  1.0000
  S   S417      1.0  0.87106  0.46116  0.70089  1.0000
  C   C990      1.0  0.98447  0.45956  0.71854  1.0000
  S   S418      1.0  0.76853  0.47437  0.85852  1.0000
  H   H1571     1.0  0.85903  0.41977  0.71464  1.0000
  Fe  Fe211     1.0  0.74229  0.44107  0.84123  1.0000
  S   S419      1.0  0.76372  0.42992  0.86134  1.0000
  S   S420      1.0  0.73005  0.41706  0.83468  1.0000
  Fe  Fe212     1.0  0.74823  0.45483  0.87561  1.0000
  S   S421      1.0  0.73378  0.45450  0.90625  1.0000
  Fe  Fe213     1.0  0.78178  0.45067  0.84168  1.0000
  S   S422      1.0  0.81431  0.44813  0.83192  1.0000
  S   S423      1.0  0.72595  0.46510  0.85647  1.0000
  S   S424      1.0  0.76160  0.46000  0.82051  1.0000
  Fe  Fe214     1.0  0.63182  0.37981  0.85192  1.0000
  S   S425      1.0  0.65126  0.35101  0.85264  1.0000
  S   S426      1.0  0.64138  0.40851  0.84896  1.0000
  Fe  Fe215     1.0  0.59490  0.36200  0.85898  1.0000
  S   S427      1.0  0.56242  0.36452  0.86637  1.0000
  Fe  Fe216     1.0  0.62905  0.34144  0.87783  1.0000
  S   S428      1.0  0.63291  0.32571  0.90730  1.0000
  H   H1572     1.0  0.65781  0.27518  0.73977  1.0000
  S   S429      1.0  0.61094  0.37059  0.87819  1.0000
  S   S430      1.0  0.61370  0.37436  0.83243  1.0000
  C   C991      1.0  0.89817  0.41853  0.65423  1.0000
  C   C992      1.0  0.56178  0.31817  0.93991  1.0000
  N   N97       1.0  0.68222  0.26786  0.75436  1.0000
  H   H1573     1.0  0.51845  0.39081  0.86143  1.0000
  H   H1574     1.0  0.71519  0.42565  0.87395  1.0000
  H   H1575     1.0  0.69225  0.39282  0.88624  1.0000
  C   C993      1.0  0.88423  0.38699  0.72401  1.0000
  N   N98       1.0  0.86928  0.39016  0.71188  1.0000
  S   S431      1.0  0.61162  0.33202  0.86025  1.0000
  C   C994      1.0  0.55241  0.36132  0.84739  1.0000
  C   C995      1.0  0.56106  0.36683  0.82844  1.0000
  C   C996      1.0  0.55200  0.36571  0.81346  1.0000
  C   C997      1.0  0.53423  0.35918  0.81741  1.0000
  C   C998      1.0  0.52584  0.35322  0.83635  1.0000
  C   C999      1.0  0.53506  0.35404  0.85127  1.0000
  H   H1576     1.0  0.57448  0.37241  0.82530  1.0000
  H   H1577     1.0  0.55857  0.37027  0.79883  1.0000
  H   H1578     1.0  0.59691  0.43008  0.92517  1.0000
  H   H1579     1.0  0.52877  0.34885  0.86577  1.0000
  C   C1000     1.0  0.64215  0.33925  0.91971  1.0000
  C   C1001     1.0  0.65108  0.35482  0.90980  1.0000
  C   C1002     1.0  0.61742  0.28729  0.81149  1.0000
  H   H1580     1.0  0.65262  0.35839  0.89442  1.0000
  H   H1581     1.0  0.56533  0.35312  0.91977  1.0000
  C   C1003     1.0  0.70530  0.41486  0.83997  1.0000
  C   C1004     1.0  0.70035  0.39682  0.84096  1.0000
  C   C1005     1.0  0.68083  0.39447  0.84469  1.0000
  C   C1006     1.0  0.66604  0.41032  0.84685  1.0000
  C   C1007     1.0  0.67097  0.42834  0.84607  1.0000
  C   C1008     1.0  0.69054  0.43059  0.84282  1.0000
  H   H1582     1.0  0.71172  0.38456  0.83886  1.0000
  H   H1583     1.0  0.67730  0.38044  0.84558  1.0000
  H   H1584     1.0  0.65961  0.44071  0.84765  1.0000
  H   H1585     1.0  0.69420  0.44459  0.84197  1.0000
  C   C1009     1.0  0.74583  0.44368  0.92543  1.0000
  C   C1010     1.0  0.76522  0.43456  0.92276  1.0000
  C   C1011     1.0  0.77469  0.42765  0.93860  1.0000
  C   C1012     1.0  0.76485  0.43018  0.95696  1.0000
  C   C1013     1.0  0.74534  0.43881  0.95954  1.0000
  C   C1014     1.0  0.73582  0.44535  0.94386  1.0000
  H   H1586     1.0  0.77300  0.43316  0.90854  1.0000
  H   H1587     1.0  0.51313  0.30907  0.89974  1.0000
  H   H1588     1.0  0.56261  0.32689  0.89199  1.0000
  H   H1589     1.0  0.67880  0.25062  0.78251  1.0000
  H   H1590     1.0  0.70656  0.43606  0.89511  1.0000
  H   H1591     1.0  0.52629  0.29472  0.79551  1.0000
  C   C1015     1.0  0.70716  0.39035  0.88958  1.0000
  H   H1592     1.0  0.61080  0.27720  0.82294  1.0000
  C   C1016     1.0  0.69757  0.27725  0.75730  1.0000
  C   C1017     1.0  0.49937  0.31857  0.90233  1.0000
  H   H1593     1.0  0.99027  0.33323  0.65271  1.0000
  C   C1018     1.0  0.84254  0.43731  0.77145  1.0000
  C   C1019     1.0  0.82375  0.43352  0.77925  1.0000
  C   C1020     1.0  0.81481  0.43712  0.79761  1.0000
  C   C1021     1.0  0.82484  0.44402  0.80855  1.0000
  C   C1022     1.0  0.84364  0.44780  0.80076  1.0000
  C   C1023     1.0  0.85237  0.44474  0.78216  1.0000
  H   H1594     1.0  0.81608  0.42767  0.77111  1.0000
  H   H1595     1.0  0.80038  0.43402  0.80350  1.0000
  H   H1596     1.0  0.55885  0.30037  0.74822  1.0000
  H   H1597     1.0  0.86694  0.44750  0.77639  1.0000
  C   C1024     1.0  0.96501  0.46438  0.71600  1.0000
  H   H1598     1.0  0.70080  0.24022  0.75419  1.0000
  H   H1599     1.0  0.85368  0.36880  0.73016  1.0000
  H   H1600     1.0  0.72075  0.45223  0.94599  1.0000
  C   C1025     1.0  0.86847  0.40910  0.65114  1.0000
  H   H1601     1.0  0.50732  0.39849  0.91153  1.0000
  C   C1026     1.0  0.53038  0.24707  0.70085  1.0000
  C   C1027     1.0  0.95931  0.48076  0.70294  1.0000
  C   C1028     1.0  0.67022  0.26172  0.77300  1.0000
  Fe  Fe217     1.0  0.61736  0.25475  0.75929  1.0000
  H   H1602     1.0  0.70685  0.28209  0.74349  1.0000
  H   H1603     1.0  0.60527  0.34880  0.96835  1.0000
  C   C1029     1.0  0.53137  0.30881  0.79083  1.0000
  C   C1030     1.0  0.67372  0.23782  0.67489  1.0000
  S   S432      1.0  0.77729  0.42352  0.97637  1.0000
  H   H1604     1.0  0.60529  0.36878  0.93975  1.0000
  H   H1605     1.0  0.57221  0.31751  0.94954  1.0000
  H   H1606     1.0  0.72440  0.24982  0.64965  1.0000
  N   N99       1.0  0.66117  0.39717  0.79189  1.0000
  C   C1031     1.0  0.66968  0.41309  0.79482  1.0000
  C   C1032     1.0  0.66469  0.38039  0.80711  1.0000
  C   C1033     1.0  0.67023  0.39171  0.77316  1.0000
  C   C1034     1.0  0.64003  0.40341  0.79257  1.0000
  H   H1607     1.0  0.66791  0.42579  0.78323  1.0000
  H   H1608     1.0  0.68546  0.40865  0.79538  1.0000
  H   H1609     1.0  0.66257  0.41800  0.80851  1.0000
  H   H1610     1.0  0.65879  0.36795  0.80517  1.0000
  H   H1611     1.0  0.68044  0.37553  0.80751  1.0000
  H   H1612     1.0  0.65753  0.38390  0.82131  1.0000
  H   H1613     1.0  0.66416  0.37960  0.77068  1.0000
  H   H1614     1.0  0.68619  0.38696  0.77223  1.0000
  H   H1615     1.0  0.66775  0.40397  0.76127  1.0000
  H   H1616     1.0  0.54103  0.28718  0.76331  1.0000
  H   H1617     1.0  0.88964  0.38327  0.68692  1.0000
  H   H1618     1.0  0.63283  0.40776  0.80653  1.0000
  H   H1619     1.0  0.57872  0.29239  0.77384  1.0000
  H   H1620     1.0  0.85156  0.45301  0.80918  1.0000
  H   H1621     1.0  0.74023  0.40238  0.88932  1.0000
  H   H1622     1.0  0.53359  0.31353  0.80372  1.0000
  H   H1623     1.0  0.58882  0.34081  0.92462  1.0000
  H   H1624     1.0  0.55037  0.31025  0.91017  1.0000
  S   S433      1.0  0.52261  0.35859  0.79862  1.0000
  C   C1035     1.0  0.86526  0.41077  0.70350  1.0000
  C   C1036     1.0  0.50911  0.40161  0.89568  1.0000
  C   C1037     1.0  0.55514  0.32682  0.77059  1.0000
  S   S434      1.0  0.61274  0.26411  0.78804  1.0000
  H   H1625     1.0  0.67829  0.28588  0.72733  1.0000
  S   S435      1.0  0.59538  0.23903  0.75430  1.0000
  H   H1626     1.0  0.85462  0.41359  0.69366  1.0000
  H   H1627     1.0  0.89817  0.39085  0.71549  1.0000
  C   C1038     1.0  0.58745  0.30750  0.91513  1.0000
  H   H1628     1.0  0.66520  0.37763  0.91197  1.0000
  H   H1629     1.0  0.54366  0.33554  0.91017  1.0000
  C   C1039     1.0  0.62832  0.29777  0.77786  1.0000
  H   H1630     1.0  0.58507  0.41671  0.91422  1.0000
  C   C1040     1.0  0.53934  0.26014  0.70622  1.0000
  N   N100      1.0  0.70952  0.40523  0.89968  1.0000
  C   C1041     1.0  0.69614  0.40430  0.91819  1.0000
  C   C1042     1.0  0.72974  0.40189  0.90300  1.0000
  H   H1631     1.0  0.69912  0.39002  0.92752  1.0000
  H   H1632     1.0  0.68074  0.40657  0.91630  1.0000
  H   H1633     1.0  0.69750  0.41542  0.92614  1.0000
  H   H1634     1.0  0.70978  0.37570  0.89830  1.0000
  H   H1635     1.0  0.73354  0.38760  0.91200  1.0000
  H   H1636     1.0  0.73209  0.41304  0.91037  1.0000
  H   H1637     1.0  0.69124  0.29014  0.76412  1.0000
  C   C1043     1.0  0.87791  0.42139  0.65720  1.0000
  N   N101      1.0  0.60079  0.39965  0.93590  1.0000
  Fe  Fe218     1.0  0.74752  0.48290  0.83823  1.0000
  Fe  Fe219     1.0  0.53363  0.35944  0.96886  1.0000
  H   H1638     1.0  0.73750  0.44051  0.97359  1.0000
  Fe  Fe220     1.0  0.50562  0.34031  0.95670  1.0000
  H   H1639     1.0  0.87958  0.39596  0.73545  1.0000
  H   H1640     1.0  0.94430  0.48497  0.70131  1.0000
  C   C1044     1.0  0.62377  0.30279  0.81583  1.0000
  H   H1641     1.0  0.63152  0.39891  0.93237  1.0000
  H   H1642     1.0  0.58380  0.34541  0.90074  1.0000
  H   H1643     1.0  0.85278  0.41121  0.65367  1.0000
  H   H1644     1.0  0.87877  0.41597  0.69548  1.0000
  H   H1645     1.0  0.61712  0.41274  0.94979  1.0000
  S   S436      1.0  0.50913  0.31942  0.93664  1.0000
  H   H1646     1.0  0.55648  0.30421  0.94317  1.0000
  H   H1647     1.0  0.57025  0.40004  0.94639  1.0000
  H   H1648     1.0  0.58293  0.29324  0.91740  1.0000
  C   C1045     1.0  0.70511  0.42442  0.88789  1.0000
  H   H1649     1.0  0.70715  0.26728  0.76670  1.0000
  C   C1046     1.0  0.64720  0.34581  0.94967  1.0000
  H   H1650     1.0  0.98891  0.44703  0.72881  1.0000
  C   C1047     1.0  0.59830  0.41621  0.92021  1.0000
  H   H1651     1.0  0.63675  0.41595  0.78118  1.0000
  H   H1652     1.0  0.53087  0.27362  0.70970  1.0000
  H   H1653     1.0  0.69009  0.42735  0.88478  1.0000
  H   H1654     1.0  0.65780  0.25551  0.77129  1.0000
  H   H1655     1.0  0.51929  0.31943  0.78521  1.0000
  H   H1656     1.0  0.64562  0.34230  0.96505  1.0000
  H   H1657     1.0  0.59859  0.30619  0.92420  1.0000
  N   N102      1.0  0.54928  0.30767  0.77633  1.0000
  N   N103      1.0  0.57073  0.32272  0.91962  1.0000
  H   H1658     1.0  0.54908  0.32934  0.94368  1.0000
  H   H1659     1.0  0.50376  0.36465  0.91087  1.0000
  C   C1048     1.0  0.65632  0.36123  0.93970  1.0000
  H   H1660     1.0  0.51223  0.34799  0.83953  1.0000
  S   S437      1.0  0.61835  0.27460  0.73111  1.0000
  C   C1049     1.0  0.61832  0.39961  0.94362  1.0000
  H   H1661     1.0  0.59482  0.31071  0.90003  1.0000
  C   C1050     1.0  0.50266  0.39322  0.86750  1.0000
  C   C1051     1.0  0.61989  0.28455  0.79255  1.0000
  C   C1052     1.0  0.70093  0.25338  0.67346  1.0000
  H   H1662     1.0  0.58111  0.41493  0.95662  1.0000
  H   H1663     1.0  0.64192  0.32304  0.77084  1.0000
  H   H1664     1.0  0.83960  0.38675  0.71496  1.0000
  C   C1053     1.0  0.55904  0.25554  0.70769  1.0000
  H   H1665     1.0  0.54348  0.33788  0.76474  1.0000
  C   C1054     1.0  0.87634  0.37876  0.69636  1.0000
  S   S438      1.0  0.52005  0.36553  0.94289  1.0000
  H   H1666     1.0  0.55807  0.33186  0.78300  1.0000
  C   C1055     1.0  0.57746  0.34136  0.91603  1.0000
  S   S439      1.0  0.67119  0.25861  0.70360  1.0000
  C   C1056     1.0  0.85127  0.38431  0.72363  1.0000
  H   H1667     1.0  0.51232  0.24814  0.74436  1.0000
  S   S440      1.0  0.56949  0.27117  0.71641  1.0000
  H   H1668     1.0  0.70008  0.25507  0.73099  1.0000
  H   H1669     1.0  0.71748  0.39037  0.87578  1.0000
  C   C1057     1.0  0.64026  0.33473  0.93966  1.0000
  C   C1058     1.0  0.63509  0.31306  0.78223  1.0000
  H   H1670     1.0  0.62090  0.38697  0.95516  1.0000
  C   C1059     1.0  0.66990  0.28161  0.74182  1.0000
  C   C1060     1.0  0.56500  0.29364  0.78444  1.0000
  H   H1671     1.0  0.78752  0.48119  0.94000  1.0000
  H   H1672     1.0  0.61092  0.41538  0.90828  1.0000
  C   C1061     1.0  0.65826  0.36567  0.91976  1.0000
  H   H1673     1.0  0.63308  0.39160  0.79077  1.0000
  H   H1674     1.0  0.86531  0.38063  0.68704  1.0000
  C   C1062     1.0  0.69125  0.25090  0.74528  1.0000
  H   H1675     1.0  0.58972  0.38087  0.92307  1.0000
  H   H1676     1.0  0.62203  0.30452  0.83052  1.0000
  C   C1063     1.0  0.54562  0.30151  0.75947  1.0000
  H   H1677     1.0  0.70785  0.26224  0.67928  1.0000
  S   S441      1.0  0.64255  0.33430  0.80636  1.0000
  H   H1678     1.0  0.63332  0.32273  0.94740  1.0000
  C   C1064     1.0  0.60291  0.38163  0.92850  1.0000
  C   C1065     1.0  0.63290  0.31560  0.80125  1.0000
  S   S442      1.0  0.66484  0.37580  0.95159  1.0000
  C   C1066     1.0  0.55625  0.32388  0.90743  1.0000
  H   H1679     1.0  0.88725  0.37170  0.73107  1.0000
  H   H1680     1.0  0.56829  0.29791  0.79709  1.0000
  H   H1681     1.0  0.52498  0.39951  0.88997  1.0000
  S   S443      1.0  0.62189  0.23641  0.71122  1.0000
  H   H1682     1.0  0.61550  0.38024  0.91667  1.0000
  H   H1683     1.0  0.56850  0.32663  0.75954  1.0000
  H   H1684     1.0  0.50300  0.41708  0.89155  1.0000
  S   S444      1.0  0.91061  0.43329  0.66211  1.0000
  C   C1067     1.0  0.58367  0.40112  0.95128  1.0000
  H   H1685     1.0  0.87991  0.36313  0.70206  1.0000
  H   H1686     1.0  0.76719  0.47442  0.90926  1.0000
  H   H1687     1.0  0.84571  0.39272  0.73547  1.0000
  H   H1688     1.0  0.66394  0.27402  0.78066  1.0000
  Fe  Fe221     1.0  0.88629  0.48379  0.70513  1.0000
  Fe  Fe222     1.0  0.59813  0.25736  0.72528  1.0000
  H   H1689     1.0  0.78980  0.42089  0.93655  1.0000
  H   H1690     1.0  0.89452  0.47390  0.65826  1.0000
  S   S445      1.0  0.56588  0.35747  0.96263  1.0000
  H   H1691     1.0  0.58557  0.38934  0.96370  1.0000
  H   H1692     1.0  0.66343  0.29493  0.74782  1.0000
  H   H1693     1.0  0.53391  0.31186  0.75294  1.0000
  Fe  Fe223     1.0  0.64207  0.25167  0.71990  1.0000
  C   C1068     1.0  0.68256  0.24922  0.68262  1.0000
  H   H1694     1.0  0.51713  0.25272  0.76606  1.0000
  H   H1695     1.0  0.51505  0.25051  0.70029  1.0000
  N   N104      1.0  0.49936  0.38908  0.88860  1.0000
  H   H1696     1.0  0.79733  0.47810  0.80115  1.0000
  H   H1697     1.0  0.49582  0.38375  0.86162  1.0000
  H   H1698     1.0  0.86953  0.43315  0.66403  1.0000
  H   H1699     1.0  0.50143  0.35896  0.88885  1.0000
  H   H1700     1.0  0.53648  0.25001  0.74613  1.0000
  H   H1701     1.0  0.76777  0.46840  0.94402  1.0000
  C   C1069     1.0  0.70143  0.23512  0.64882  1.0000
  H   H1702     1.0  0.49660  0.40840  0.86201  1.0000
  C   C1070     1.0  0.71035  0.24635  0.65666  1.0000
  H   H1703     1.0  0.68009  0.24346  0.74285  1.0000
  C   C1071     1.0  0.77141  0.48295  0.94235  1.0000
  C   C1072     1.0  0.52311  0.24451  0.75418  1.0000
  C   C1073     1.0  0.50741  0.36875  0.89512  1.0000
  C   C1074     1.0  0.56990  0.23812  0.70310  1.0000
  Fe  Fe224     1.0  0.49516  0.38280  0.95939  1.0000
  H   H1704     1.0  0.52349  0.36587  0.89110  1.0000
  H   H1705     1.0  0.73741  0.48400  0.93128  1.0000
  C   C1075     1.0  0.90889  0.40395  0.64429  1.0000
  C   C1076     1.0  0.89350  0.48175  0.64353  1.0000
  S   S446      1.0  0.78492  0.49466  0.11764  1.0000
  S   S447      1.0  0.73704  0.52584  0.18719  1.0000
  C   C1077     1.0  0.81504  0.49106  0.24429  1.0000
  S   S448      1.0  0.78589  0.49960  0.16855  1.0000
  H   H1706     1.0  0.70987  0.52601  0.05375  1.0000
  N   N105      1.0  0.74525  0.54856  0.12543  1.0000
  N   N106      1.0  0.74504  0.67580  0.99458  1.0000
  S   S449      1.0  0.90832  0.62281  0.28663  1.0000
  H   H1707     1.0  0.82874  0.52598  0.22134  1.0000
  S   S450      1.0  0.53039  0.71817  0.01449  1.0000
  C   C1078     1.0  0.86114  0.59150  0.29469  1.0000
  H   H1708     1.0  0.62727  0.67439  0.22822  1.0000
  H   H1709     1.0  0.88448  0.55855  0.28751  1.0000
  S   S451      1.0  0.85165  0.64268  0.29462  1.0000
  Fe  Fe225     1.0  0.92417  0.64449  0.29178  1.0000
  S   S452      1.0  0.94787  0.65607  0.26962  1.0000
  Fe  Fe226     1.0  0.75569  0.49724  0.18367  1.0000
  H   H1710     1.0  0.83155  0.51902  0.17157  1.0000
  Fe  Fe227     1.0  0.77684  0.60471  0.21412  1.0000
  S   S453      1.0  0.80236  0.61109  0.19139  1.0000
  S   S454      1.0  0.77551  0.57383  0.22753  1.0000
  Fe  Fe228     1.0  0.76101  0.64698  0.21545  1.0000
  S   S455      1.0  0.78549  0.65635  0.19317  1.0000
  S   S456      1.0  0.73889  0.67041  0.22785  1.0000
  Fe  Fe229     1.0  0.78047  0.63429  0.17799  1.0000
  S   S457      1.0  0.77695  0.64462  0.14717  1.0000
  Fe  Fe230     1.0  0.80470  0.63240  0.20905  1.0000
  S   S458      1.0  0.83386  0.63610  0.21428  1.0000
  S   S459      1.0  0.75467  0.62628  0.19948  1.0000
  S   S460      1.0  0.78054  0.62455  0.23259  1.0000
  C   C1079     1.0  0.72503  0.68505  0.21113  1.0000
  C   C1080     1.0  0.72723  0.68074  0.19288  1.0000
  H   H1711     1.0  0.73771  0.66852  0.18881  1.0000
  C   C1081     1.0  0.84716  0.64045  0.27223  1.0000
  C   C1082     1.0  0.86181  0.64013  0.25616  1.0000
  C   C1083     1.0  0.85752  0.63871  0.23852  1.0000
  C   C1084     1.0  0.83868  0.63726  0.23686  1.0000
  C   C1085     1.0  0.82414  0.63715  0.25304  1.0000
  C   C1086     1.0  0.82832  0.63896  0.27059  1.0000
  H   H1712     1.0  0.87635  0.64135  0.25720  1.0000
  H   H1713     1.0  0.86887  0.63883  0.22607  1.0000
  H   H1714     1.0  0.80967  0.63575  0.25202  1.0000
  H   H1715     1.0  0.81694  0.63906  0.28300  1.0000
  H   H1716     1.0  0.77084  0.51275  0.02695  1.0000
  S   S461      1.0  0.74798  0.51386  0.99207  1.0000
  C   C1087     1.0  0.77476  0.70061  0.21975  1.0000
  H   H1717     1.0  0.80522  0.53407  0.01566  1.0000
  C   C1088     1.0  0.78431  0.50662  0.03302  1.0000
  H   H1718     1.0  0.76112  0.68397  0.01251  1.0000
  Fe  Fe231     1.0  0.76285  0.60729  0.02602  1.0000
  C   C1089     1.0  0.96998  0.65843  0.27529  1.0000
  H   H1719     1.0  0.77790  0.53659  0.06495  1.0000
  H   H1720     1.0  0.70078  0.68419  0.09494  1.0000
  H   H1721     1.0  0.80870  0.55067  0.16859  1.0000
  C   C1090     1.0  0.77563  0.62134  0.10176  1.0000
  C   C1091     1.0  0.77479  0.63433  0.11388  1.0000
  C   C1092     1.0  0.77862  0.62768  0.13248  1.0000
  C   C1093     1.0  0.78365  0.60791  0.13885  1.0000
  C   C1094     1.0  0.78510  0.59490  0.12649  1.0000
  H   H1722     1.0  0.77138  0.64960  0.10876  1.0000
  H   H1723     1.0  0.78669  0.60270  0.15317  1.0000
  S   S462      1.0  0.87852  0.51135  0.28837  1.0000
  H   H1724     1.0  0.87024  0.60183  0.28544  1.0000
  C   C1095     1.0  0.95179  0.48577  0.29297  1.0000
  H   H1725     1.0  0.81758  0.67725  0.23321  1.0000
  H   H1726     1.0  0.75517  0.64593  0.00479  1.0000
  C   C1096     1.0  0.98081  0.58762  0.30299  1.0000
  H   H1727     1.0  0.96121  0.59994  0.26248  1.0000
  H   H1728     1.0  0.73785  0.65493  0.09756  1.0000
  H   H1729     1.0  0.74053  0.65895  0.02272  1.0000
  C   C1097     1.0  0.70025  0.71273  0.20292  1.0000
  H   H1730     1.0  0.66005  0.70796  0.20014  1.0000
  C   C1098     1.0  0.74741  0.53927  0.19857  1.0000
  C   C1099     1.0  0.74642  0.55912  0.19211  1.0000
  C   C1100     1.0  0.75495  0.56993  0.20095  1.0000
  C   C1101     1.0  0.76388  0.56101  0.21667  1.0000
  C   C1102     1.0  0.76445  0.54125  0.22337  1.0000
  C   C1103     1.0  0.75663  0.53030  0.21407  1.0000
  H   H1731     1.0  0.73924  0.56610  0.18016  1.0000
  H   H1732     1.0  0.75449  0.58516  0.19569  1.0000
  H   H1733     1.0  0.77108  0.53436  0.23571  1.0000
  H   H1734     1.0  0.75726  0.51502  0.21921  1.0000
  H   H1735     1.0  0.84732  0.60018  0.30076  1.0000
  H   H1736     1.0  0.75980  0.70560  0.22709  1.0000
  H   H1737     1.0  0.96173  0.56378  0.29332  1.0000
  C   C1104     1.0  0.57008  0.72393  0.23561  1.0000
  H   H1738     1.0  0.56857  0.73192  0.10948  1.0000
  H   H1739     1.0  0.83957  0.50874  0.19396  1.0000
  C   C1105     1.0  0.75113  0.54547  0.10544  1.0000
  H   H1740     1.0  0.81988  0.50690  0.03900  1.0000
  H   H1741     1.0  0.73848  0.54901  0.09785  1.0000
  H   H1742     1.0  0.76041  0.53303  0.05214  1.0000
  H   H1743     1.0  0.74641  0.57879  0.11826  1.0000
  H   H1744     1.0  0.78016  0.71323  0.21007  1.0000
  H   H1745     1.0  0.88588  0.57648  0.26627  1.0000
  H   H1746     1.0  0.96537  0.61550  0.27685  1.0000
  C   C1106     1.0  0.80769  0.51172  0.05018  1.0000
  C   C1107     1.0  0.77406  0.52618  0.05764  1.0000
  H   H1747     1.0  0.84446  0.57836  0.25974  1.0000
  C   C1108     1.0  0.70517  0.67551  0.13187  1.0000
  H   H1748     1.0  0.78940  0.57966  0.13130  1.0000
  H   H1749     1.0  0.87435  0.55618  0.26779  1.0000
  C   C1109     1.0  0.77989  0.67458  0.24607  1.0000
  C   C1110     1.0  0.78102  0.60162  0.10794  1.0000
  C   C1111     1.0  0.54294  0.73086  0.21858  1.0000
  N   N107      1.0  0.85764  0.57770  0.28393  1.0000
  H   H1750     1.0  0.84288  0.55346  0.28925  1.0000
  H   H1751     1.0  0.67862  0.68143  0.22047  1.0000
  H   H1752     1.0  0.76489  0.67902  0.25363  1.0000
  H   H1753     1.0  0.70060  0.69019  0.13564  1.0000
  H   H1754     1.0  0.80525  0.49888  0.06129  1.0000
  H   H1755     1.0  0.57642  0.71668  0.24804  1.0000
  H   H1756     1.0  0.64551  0.69116  0.19846  1.0000
  S   S463      1.0  0.68753  0.72154  0.16822  1.0000
  H   H1757     1.0  0.73198  0.64512  0.12248  1.0000
  H   H1758     1.0  0.77903  0.66370  0.23766  1.0000
  C   C1112     1.0  0.76251  0.68192  0.99751  1.0000
  H   H1759     1.0  0.81366  0.69635  0.21338  1.0000
  H   H1760     1.0  0.80690  0.67355  0.21448  1.0000
  H   H1761     1.0  0.77333  0.69055  0.21067  1.0000
  C   C1113     1.0  0.96731  0.49514  0.29228  1.0000
  C   C1114     1.0  0.98101  0.67093  0.26235  1.0000
  C   C1115     1.0  0.97547  0.56660  0.28358  1.0000
  C   C1116     1.0  0.76251  0.54401  0.13478  1.0000
  Fe  Fe232     1.0  0.88173  0.63935  0.30201  1.0000
  C   C1117     1.0  0.73124  0.53588  0.13573  1.0000
  S   S464      1.0  0.76609  0.62472  0.04707  1.0000
  H   H1762     1.0  0.75856  0.54608  0.14994  1.0000
  H   H1763     1.0  0.77341  0.55329  0.12729  1.0000
  H   H1764     1.0  0.76976  0.52881  0.13477  1.0000
  H   H1765     1.0  0.69206  0.67100  0.12945  1.0000
  H   H1766     1.0  0.72312  0.57287  0.11877  1.0000
  H   H1767     1.0  0.73152  0.57162  0.14073  1.0000
  H   H1768     1.0  0.73999  0.62201  0.99180  1.0000
  H   H1769     1.0  0.71822  0.53859  0.12883  1.0000
  H   H1770     1.0  0.72614  0.53812  0.15076  1.0000
  H   H1771     1.0  0.70014  0.64449  0.03437  1.0000
  S   S465      1.0  0.78278  0.58532  0.09254  1.0000
  C   C1118     1.0  0.80731  0.68433  0.22322  1.0000
  H   H1772     1.0  0.72926  0.70475  0.98946  1.0000
  S   S466      1.0  0.73036  0.61273  0.03193  1.0000
  H   H1773     1.0  0.79512  0.71768  0.23636  1.0000
  H   H1774     1.0  0.69775  0.69640  0.05529  1.0000
  C   C1119     1.0  0.56461  0.72308  0.02206  1.0000
  H   H1775     1.0  0.67494  0.71397  0.03363  1.0000
  Fe  Fe233     1.0  0.86282  0.48934  0.28368  1.0000
  H   H1776     1.0  0.66312  0.66515  0.21974  1.0000
  H   H1777     1.0  0.72121  0.50741  0.02736  1.0000
  Fe  Fe234     1.0  0.76568  0.59748  0.06871  1.0000
  S   S467      1.0  0.76596  0.57960  0.04696  1.0000
  H   H1778     1.0  0.72485  0.68863  0.08529  1.0000
  H   H1779     1.0  0.78034  0.54513  0.02171  1.0000
  Fe  Fe235     1.0  0.73359  0.62825  0.05455  1.0000
  C   C1120     1.0  0.80508  0.54802  0.18444  1.0000
  H   H1780     1.0  0.73790  0.52043  0.13623  1.0000
  C   C1121     1.0  0.98129  0.48715  0.30407  1.0000
  C   C1122     1.0  0.78921  0.70498  0.24534  1.0000
  H   H1781     1.0  0.71756  0.68870  0.16575  1.0000
  H   H1782     1.0  0.63851  0.71911  0.23760  1.0000
  C   C1123     1.0  0.72631  0.65556  0.11046  1.0000
  H   H1783     1.0  0.72544  0.69281  0.01389  1.0000
  C   C1124     1.0  0.97665  0.64867  0.29219  1.0000
  C   C1125     1.0  0.74886  0.62257  0.97784  1.0000
  H   H1784     1.0  0.81495  0.50962  0.19174  1.0000
  S   S468      1.0  0.65922  0.70172  0.00556  1.0000
  H   H1785     1.0  0.79248  0.54031  0.18856  1.0000
  H   H1786     1.0  0.77473  0.71032  0.25340  1.0000
  H   H1787     1.0  0.78157  0.49340  0.04341  1.0000
  N   N108      1.0  0.64808  0.69238  0.22712  1.0000
  C   C1126     1.0  0.62990  0.68502  0.23604  1.0000
  C   C1127     1.0  0.65073  0.70668  0.23777  1.0000
  C   C1128     1.0  0.64692  0.70159  0.20714  1.0000
  C   C1129     1.0  0.66474  0.67633  0.22746  1.0000
  H   H1788     1.0  0.61710  0.69691  0.23602  1.0000
  H   H1789     1.0  0.79590  0.50202  0.02125  1.0000
  H   H1790     1.0  0.63021  0.67791  0.25113  1.0000
  H   H1791     1.0  0.86876  0.58402  0.30676  1.0000
  H   H1792     1.0  0.69015  0.72527  0.20671  1.0000
  H   H1793     1.0  0.71012  0.66563  0.14457  1.0000
  C   C1130     1.0  0.54437  0.72775  0.02587  1.0000
  H   H1794     1.0  0.63417  0.71337  0.20634  1.0000
  C   C1131     1.0  0.73769  0.68140  0.11882  1.0000
  H   H1795     1.0  0.76501  0.69575  0.98800  1.0000
  H   H1796     1.0  0.79896  0.69824  0.25592  1.0000
  Fe  Fe236     1.0  0.90462  0.48788  0.28976  1.0000
  C   C1132     1.0  0.67486  0.68924  0.02146  1.0000
  H   H1797     1.0  0.80015  0.56227  0.18909  1.0000
  C   C1133     1.0  0.68216  0.66965  0.02163  1.0000
  C   C1134     1.0  0.71581  0.69221  0.17980  1.0000
  H   H1798     1.0  0.67768  0.66214  0.01236  1.0000
  H   H1799     1.0  0.70999  0.70468  0.23013  1.0000
  H   H1800     1.0  0.78906  0.66731  0.25700  1.0000
  S   S469      1.0  0.71790  0.65739  0.06072  1.0000
  C   C1135     1.0  0.73613  0.56886  0.12581  1.0000
  C   C1136     1.0  0.68046  0.69882  0.03370  1.0000
  S   S470      1.0  0.83755  0.49773  0.26745  1.0000
  C   C1137     1.0  0.69499  0.65967  0.03400  1.0000
  C   C1138     1.0  0.70078  0.66928  0.04607  1.0000
  C   C1139     1.0  0.69338  0.68884  0.04599  1.0000
  C   C1140     1.0  0.79361  0.53783  0.02775  1.0000
  C   C1141     1.0  0.72493  0.54937  0.03944  1.0000
  H   H1801     1.0  0.75318  0.55147  0.99534  1.0000
  C   C1142     1.0  0.73806  0.52813  0.00966  1.0000
  C   C1143     1.0  0.72575  0.52107  0.02609  1.0000
  C   C1144     1.0  0.71919  0.53167  0.04095  1.0000
  H   H1802     1.0  0.77268  0.62664  0.08744  1.0000
  H   H1803     1.0  0.66432  0.71253  0.23147  1.0000
  S   S471      1.0  0.73346  0.60221  0.07765  1.0000
  H   H1804     1.0  0.74134  0.57039  0.02153  1.0000
  Fe  Fe237     1.0  0.73371  0.58630  0.05432  1.0000
  H   H1805     1.0  0.75798  0.53024  0.10474  1.0000
  C   C1145     1.0  0.74344  0.54607  0.00790  1.0000
  N   N109      1.0  0.78779  0.69113  0.23358  1.0000
  C   C1146     1.0  0.57589  0.73304  0.02876  1.0000
  H   H1806     1.0  0.66635  0.66924  0.24232  1.0000
  H   H1807     1.0  0.57155  0.71231  0.01333  1.0000
  H   H1808     1.0  0.81247  0.52191  0.05704  1.0000
  H   H1809     1.0  0.98743  0.55520  0.28843  1.0000
  H   H1810     1.0  0.74963  0.68166  0.10626  1.0000
  C   C1147     1.0  0.71353  0.68854  0.09838  1.0000
  N   N110      1.0  0.72067  0.67526  0.11488  1.0000
  N   N111      1.0  0.78991  0.52060  0.04214  1.0000
  C   C1148     1.0  0.71158  0.70114  0.21611  1.0000
  S   S472      1.0  0.93410  0.49633  0.27849  1.0000
  C   C1149     1.0  0.73691  0.55669  0.02280  1.0000
  S   S473      1.0  0.89707  0.66296  0.30437  1.0000
  C   C1150     1.0  0.84739  0.58829  0.26818  1.0000
  C   C1151     1.0  0.96299  0.60068  0.27711  1.0000
  S   S474      1.0  0.71810  0.56150  0.05894  1.0000
  C   C1152     1.0  0.55161  0.72131  0.23430  1.0000
  H   H1811     1.0  0.73387  0.69606  0.12258  1.0000
  H   H1812     1.0  0.96844  0.50867  0.28266  1.0000
  H   H1813     1.0  0.96956  0.68869  0.29738  1.0000
  C   C1153     1.0  0.87641  0.56676  0.27600  1.0000
  H   H1814     1.0  0.97420  0.56483  0.26910  1.0000
  H   H1815     1.0  0.76187  0.55466  0.09732  1.0000
  H   H1816     1.0  0.54385  0.71202  0.24568  1.0000
  N   N112      1.0  0.97919  0.58601  0.28349  1.0000
  H   H1817     1.0  0.79828  0.54853  0.03403  1.0000
  C   C1154     1.0  0.70219  0.70814  0.18480  1.0000
  S   S475      1.0  0.78040  0.60862  0.99615  1.0000
  H   H1818     1.0  0.98373  0.60206  0.30343  1.0000
  H   H1819     1.0  0.74366  0.67145  0.13100  1.0000
  H   H1820     1.0  0.84281  0.54950  0.17107  1.0000
  H   H1821     1.0  0.85118  0.53929  0.19329  1.0000
  H   H1822     1.0  0.65148  0.70030  0.25296  1.0000
  C   C1155     1.0  0.72781  0.69061  0.99881  1.0000
  H   H1823     1.0  0.97607  0.67843  0.24923  1.0000
  H   H1824     1.0  0.80409  0.52641  0.21945  1.0000
  H   H1825     1.0  0.83458  0.56177  0.19112  1.0000
  N   N113      1.0  0.82180  0.53685  0.19319  1.0000
  H   H1826     1.0  0.72934  0.65241  0.00574  1.0000
  C   C1156     1.0  0.82725  0.51777  0.18732  1.0000
  H   H1827     1.0  0.71436  0.68643  0.99678  1.0000
  C   C1157     1.0  0.83835  0.54731  0.18687  1.0000
  H   H1828     1.0  0.77082  0.51348  0.06866  1.0000
  H   H1829     1.0  0.81203  0.54838  0.21921  1.0000
  C   C1158     1.0  0.81647  0.53430  0.21420  1.0000
  H   H1830     1.0  0.80333  0.49985  0.25227  1.0000
  H   H1831     1.0  0.85603  0.59859  0.25816  1.0000
  C   C1159     1.0  0.74241  0.65745  0.00751  1.0000
  H   H1832     1.0  0.83319  0.59677  0.27365  1.0000
  H   H1833     1.0  0.70905  0.70357  0.10116  1.0000
  H   H1834     1.0  0.96834  0.63887  0.30222  1.0000
  H   H1835     1.0  0.72033  0.56238  0.97755  1.0000
  H   H1836     1.0  0.95659  0.71280  0.29561  1.0000
  H   H1837     1.0  0.77573  0.67095  0.99453  1.0000
  H   H1838     1.0  0.92332  0.54236  0.30468  1.0000
  H   H1839     1.0  0.71382  0.65046  0.10739  1.0000
  H   H1840     1.0  0.59153  0.72980  0.02535  1.0000
  S   S476      1.0  0.51917  0.72769  0.21853  1.0000
  H   H1841     1.0  0.94899  0.59878  0.28678  1.0000
  C   C1160     1.0  0.84565  0.56424  0.29683  1.0000
  H   H1842     1.0  0.92575  0.69974  0.30174  1.0000
  C   C1161     1.0  0.96217  0.70009  0.30584  1.0000
  H   H1843     1.0  0.83135  0.57198  0.30306  1.0000
  Fe  Fe238     1.0  0.64617  0.73104  0.01261  1.0000
  C   C1162     1.0  0.83369  0.48724  0.24903  1.0000
  H   H1844     1.0  0.85290  0.55606  0.30894  1.0000
  Fe  Fe239     1.0  0.50005  0.73450  0.01849  1.0000
  H   H1845     1.0  0.93916  0.67569  0.30401  1.0000
  H   H1846     1.0  0.79709  0.48714  0.22539  1.0000
  H   H1847     1.0  0.99282  0.57667  0.30830  1.0000
  H   H1848     1.0  0.99315  0.49453  0.30350  1.0000
  C   C1163     1.0  0.97394  0.72681  0.38910  1.0000
  H   H1849     1.0  0.86983  0.68741  0.56447  1.0000
  C   C1164     1.0  0.90159  0.70671  0.63211  1.0000
  C   C1165     1.0  0.87418  0.72361  0.56356  1.0000
  N   N114      1.0  0.98459  0.71621  0.40457  1.0000
  H   H1850     1.0  0.87938  0.71907  0.54940  1.0000
  H   H1851     1.0  0.85362  0.72116  0.59915  1.0000
  S   S477      1.0  0.91414  0.71891  0.61107  1.0000
  C   C1166     1.0  0.87970  0.53726  0.33297  1.0000
  S   S478      1.0  0.93122  0.62791  0.31958  1.0000
  C   C1167     1.0  0.93346  0.49757  0.34468  1.0000
  H   H1852     1.0  0.91682  0.53159  0.35466  1.0000
  H   H1853     1.0  0.92469  0.70469  0.34288  1.0000
  H   H1854     1.0  0.94299  0.67151  0.34583  1.0000
  H   H1855     1.0  0.94682  0.71413  0.33808  1.0000
  H   H1856     1.0  0.94699  0.48803  0.37774  1.0000
  H   H1857     1.0  0.99215  0.68709  0.41867  1.0000
  H   H1858     1.0  0.94468  0.48737  0.33714  1.0000
  N   N115      1.0  0.87630  0.70724  0.57950  1.0000
  Fe  Fe240     1.0  0.90322  0.64486  0.33232  1.0000
  C   C1168     1.0  0.93656  0.70926  0.33133  1.0000
  H   H1859     1.0  0.85883  0.73101  0.56396  1.0000
  H   H1860     1.0  0.98275  0.71511  0.43465  1.0000
  H   H1861     1.0  0.96225  0.50601  0.37259  1.0000
  C   C1169     1.0  0.86914  0.71419  0.59784  1.0000
  H   H1862     1.0  0.92201  0.68029  0.63040  1.0000
  C   C1170     1.0  0.89840  0.70326  0.38200  1.0000
  Fe  Fe241     1.0  0.87097  0.49986  0.31947  1.0000
  N   N116      1.0  0.94235  0.50976  0.35311  1.0000
  C   C1171     1.0  0.90444  0.68445  0.37804  1.0000
  H   H1863     1.0  0.98098  0.72235  0.37520  1.0000
  H   H1864     1.0  0.97001  0.69194  0.40939  1.0000
  C   C1172     1.0  0.88604  0.71668  0.37116  1.0000
  H   H1865     1.0  0.96546  0.68054  0.34111  1.0000
  N   N117      1.0  0.94639  0.69346  0.32086  1.0000
  H   H1866     1.0  0.90611  0.70914  0.57833  1.0000
  H   H1867     1.0  0.88147  0.68842  0.34060  1.0000
  H   H1868     1.0  0.96536  0.51276  0.32899  1.0000
  H   H1869     1.0  0.87748  0.72502  0.59929  1.0000
  C   C1173     1.0  0.88628  0.69249  0.35208  1.0000
  H   H1870     1.0  0.87411  0.50551  0.61740  1.0000
  Fe  Fe242     1.0  0.91331  0.60756  0.31579  1.0000
  C   C1174     1.0  0.95390  0.52176  0.33776  1.0000
  H   H1871     1.0  0.90301  0.70726  0.39363  1.0000
  H   H1872     1.0  0.96185  0.66456  0.32686  1.0000
  H   H1873     1.0  0.95868  0.72433  0.39216  1.0000
  H   H1874     1.0  0.91378  0.67404  0.38666  1.0000
  H   H1875     1.0  0.88785  0.57855  0.34322  1.0000
  C   C1175     1.0  0.87647  0.55371  0.34129  1.0000
  S   S479      1.0  0.86251  0.52187  0.33874  1.0000
  H   H1876     1.0  0.92384  0.48898  0.35570  1.0000
  C   C1176     1.0  0.98493  0.69534  0.40656  1.0000
  C   C1177     1.0  0.89023  0.56606  0.33649  1.0000
  C   C1178     1.0  0.89839  0.67898  0.36312  1.0000
  C   C1179     1.0  0.88005  0.71124  0.35618  1.0000
  C   C1180     1.0  0.92691  0.52232  0.36397  1.0000
  H   H1877     1.0  0.89796  0.51119  0.61434  1.0000
  H   H1878     1.0  0.89931  0.52065  0.31329  1.0000
  H   H1879     1.0  0.87047  0.72154  0.34775  1.0000
  S   S480      1.0  0.88577  0.62255  0.33126  1.0000
  C   C1181     1.0  0.86489  0.69286  0.57821  1.0000
  S   S481      1.0  0.90666  0.65528  0.35856  1.0000
  H   H1880     1.0  0.93305  0.53203  0.37021  1.0000
  C   C1182     1.0  0.89701  0.69837  0.57836  1.0000
  H   H1881     1.0  0.97349  0.70406  0.31197  1.0000
  C   C1183     1.0  0.90907  0.68737  0.63856  1.0000
  C   C1184     1.0  0.91031  0.54559  0.31497  1.0000
  H   H1882     1.0  0.87066  0.70228  0.61025  1.0000
  C   C1185     1.0  0.90726  0.56187  0.32345  1.0000
  H   H1883     1.0  0.99303  0.68970  0.39349  1.0000
  H   H1884     1.0  0.92462  0.50627  0.33401  1.0000
  C   C1186     1.0  0.93225  0.68763  0.31200  1.0000
  S   S482      1.0  0.92548  0.57596  0.31857  1.0000
  H   H1885     1.0  0.86339  0.55686  0.35151  1.0000
  H   H1886     1.0  0.96697  0.48769  0.35814  1.0000
  H   H1887     1.0  0.86627  0.68028  0.59002  1.0000
  C   C1187     1.0  0.88346  0.51209  0.62372  1.0000
  H   H1888     1.0  0.96109  0.53093  0.34362  1.0000
  C   C1188     1.0  0.95455  0.67682  0.33427  1.0000
  H   H1889     1.0  0.90270  0.69226  0.56507  1.0000
  C   C1189     1.0  0.95518  0.49734  0.36600  1.0000
  H   H1890     1.0  0.87708  0.52760  0.62323  1.0000
  H   H1891     1.0  0.94472  0.53156  0.32794  1.0000
  H   H1892     1.0  0.89941  0.68671  0.59080  1.0000
  H   H1893     1.0  0.84920  0.69914  0.57906  1.0000
  H   H1894     1.0  0.92019  0.68250  0.32297  1.0000
  H   H1895     1.0  0.92992  0.72194  0.32172  1.0000
  H   H1896     1.0  0.91801  0.51377  0.37581  1.0000
  C   C1190     1.0  0.97483  0.72259  0.42276  1.0000
  H   H1897     1.0  0.87894  0.73063  0.63781  1.0000
  C   C1191     1.0  0.89658  0.53333  0.31972  1.0000
  H   H1898     1.0  0.98426  0.73131  0.51715  1.0000
  H   H1899     1.0  0.92917  0.73010  0.49494  1.0000
  H   H1900     1.0  0.95967  0.71967  0.42689  1.0000
  H   H1901     1.0  0.96715  0.58544  0.31321  1.0000
  H   H1902     1.0  0.91232  0.51091  0.64248  1.0000
  C   C1192     1.0  0.88481  0.71572  0.64264  1.0000
  H   H1903     1.0  0.81987  0.73496  0.41432  1.0000
  H   H1904     1.0  0.88273  0.73461  0.56409  1.0000
  Fe  Fe243     1.0  0.75081  0.63066  0.89455  1.0000
  S   S483      1.0  0.72882  0.61826  0.88522  1.0000
  S   S484      1.0  0.73985  0.63983  0.92337  1.0000
  Fe  Fe244     1.0  0.77865  0.62885  0.85606  1.0000
  S   S485      1.0  0.75866  0.61575  0.84455  1.0000
  S   S486      1.0  0.80459  0.64106  0.83723  1.0000
  Fe  Fe245     1.0  0.73509  0.63784  0.85721  1.0000
  S   S487      1.0  0.71332  0.65695  0.83973  1.0000
  Fe  Fe246     1.0  0.75438  0.59745  0.87376  1.0000
  S   S488      1.0  0.75245  0.56577  0.88308  1.0000
  S   S489      1.0  0.75515  0.65180  0.86729  1.0000
  S   S490      1.0  0.77627  0.60884  0.88465  1.0000
  Fe  Fe247     1.0  0.88036  0.61858  0.74222  1.0000
  S   S491      1.0  0.87636  0.61810  0.71245  1.0000
  S   S492      1.0  0.85992  0.60559  0.76794  1.0000
  Fe  Fe248     1.0  0.91947  0.63235  0.72762  1.0000
  S   S493      1.0  0.91850  0.63294  0.69698  1.0000
  S   S494      1.0  0.94387  0.64309  0.73502  1.0000
  Fe  Fe249     1.0  0.88724  0.64642  0.70428  1.0000
  Fe  Fe250     1.0  0.90795  0.60465  0.70780  1.0000
  S   S495      1.0  0.92303  0.57830  0.69501  1.0000
  S   S496      1.0  0.88888  0.64784  0.73447  1.0000
  S   S497      1.0  0.91135  0.60320  0.73799  1.0000
  H   H1905     1.0  0.76023  0.66182  0.97101  1.0000
  C   C1193     1.0  0.79373  0.52670  0.79272  1.0000
  C   C1194     1.0  0.76865  0.51536  0.92459  1.0000
  H   H1906     1.0  0.94756  0.71948  0.68692  1.0000
  C   C1195     1.0  0.75011  0.57846  0.95576  1.0000
  H   H1907     1.0  0.73452  0.66847  0.97192  1.0000
  H   H1908     1.0  0.90611  0.66232  0.66058  1.0000
  H   H1909     1.0  0.93408  0.61358  0.79370  1.0000
  H   H1910     1.0  0.75007  0.55369  0.81937  1.0000
  H   H1911     1.0  0.95035  0.70228  0.66020  1.0000
  C   C1196     1.0  0.91506  0.68894  0.69704  1.0000
  C   C1197     1.0  0.74485  0.52932  0.84148  1.0000
  H   H1912     1.0  0.92453  0.70742  0.66133  1.0000
  H   H1913     1.0  0.97071  0.53930  0.68529  1.0000
  H   H1914     1.0  0.64798  0.70282  0.95068  1.0000
  C   C1198     1.0  0.90985  0.59202  0.78826  1.0000
  H   H1915     1.0  0.54135  0.71702  0.86350  1.0000
  H   H1916     1.0  0.77794  0.53008  0.79860  1.0000
  H   H1917     1.0  0.92315  0.59215  0.77712  1.0000
  H   H1918     1.0  0.88181  0.62278  0.81662  1.0000
  H   H1919     1.0  0.80690  0.51408  0.82591  1.0000
  H   H1920     1.0  0.87471  0.60641  0.80509  1.0000
  H   H1921     1.0  0.78023  0.62415  0.92719  1.0000
  C   C1199     1.0  0.74817  0.68373  0.79191  1.0000
  H   H1922     1.0  0.91265  0.57924  0.79955  1.0000
  C   C1200     1.0  0.99249  0.48692  0.69441  1.0000
  C   C1201     1.0  0.90063  0.62650  0.78068  1.0000
  H   H1923     1.0  0.95666  0.55354  0.71402  1.0000
  H   H1924     1.0  0.89801  0.58982  0.78154  1.0000
  H   H1925     1.0  0.96846  0.50440  0.68185  1.0000
  H   H1926     1.0  0.78337  0.69335  0.78841  1.0000
  N   N118      1.0  0.90451  0.61004  0.79615  1.0000
  C   C1202     1.0  0.92066  0.61257  0.80463  1.0000
  H   H1927     1.0  0.77597  0.49626  0.80057  1.0000
  N   N119      1.0  0.93375  0.69536  0.68831  1.0000
  H   H1928     1.0  0.78588  0.67302  0.77687  1.0000
  C   C1203     1.0  0.79185  0.49329  0.79512  1.0000
  N   N120      1.0  0.98603  0.55345  0.69909  1.0000
  H   H1929     1.0  0.74753  0.69958  0.78946  1.0000
  H   H1930     1.0  0.74994  0.67937  0.77778  1.0000
  C   C1204     1.0  0.74909  0.55239  0.86668  1.0000
  H   H1931     1.0  0.76073  0.69526  0.81924  1.0000
  H   H1932     1.0  0.88945  0.59724  0.82315  1.0000
  H   H1933     1.0  0.73381  0.68065  0.80020  1.0000
  H   H1934     1.0  0.86199  0.55506  0.70025  1.0000
  C   C1205     1.0  0.94976  0.68116  0.69571  1.0000
  H   H1935     1.0  0.76669  0.64725  0.79139  1.0000
  C   C1206     1.0  0.75086  0.55959  0.84707  1.0000
  C   C1207     1.0  0.73728  0.57252  0.92984  1.0000
  C   C1208     1.0  0.90015  0.67718  0.65568  1.0000
  H   H1936     1.0  0.68366  0.71918  0.92762  1.0000
  H   H1937     1.0  0.86604  0.49599  0.67024  1.0000
  H   H1938     1.0  0.74696  0.67640  0.82980  1.0000
  C   C1209     1.0  0.96817  0.56265  0.71039  1.0000
  H   H1939     1.0  0.79511  0.67005  0.79860  1.0000
  N   N121      1.0  0.76409  0.67338  0.80221  1.0000
  H   H1940     1.0  0.93351  0.53776  0.69419  1.0000
  H   H1941     1.0  0.77274  0.67201  0.82908  1.0000
  C   C1210     1.0  0.98128  0.54941  0.68168  1.0000
  H   H1942     1.0  0.89642  0.64037  0.78606  1.0000
  H   H1943     1.0  0.75023  0.64869  0.81356  1.0000
  H   H1944     1.0  0.88856  0.62501  0.77397  1.0000
  C   C1211     1.0  0.96982  0.60904  0.73361  1.0000
  H   H1945     1.0  0.91393  0.51263  0.69598  1.0000
  S   S498      1.0  0.66421  0.73031  0.87303  1.0000
  H   H1946     1.0  0.92419  0.60030  0.81621  1.0000
  N   N122      1.0  0.73239  0.57622  0.94966  1.0000
  H   H1947     1.0  0.96417  0.68513  0.68898  1.0000
  H   H1948     1.0  0.79570  0.61209  0.95604  1.0000
  H   H1949     1.0  0.91701  0.62598  0.81083  1.0000
  H   H1950     1.0  0.76562  0.48805  0.95621  1.0000
  C   C1212     1.0  0.72427  0.55993  0.96250  1.0000
  C   C1213     1.0  0.78292  0.67769  0.79098  1.0000
  C   C1214     1.0  0.87759  0.55122  0.69906  1.0000
  C   C1215     1.0  0.88861  0.56535  0.69858  1.0000
  C   C1216     1.0  0.90881  0.56060  0.69669  1.0000
  C   C1217     1.0  0.91790  0.54155  0.69562  1.0000
  C   C1218     1.0  0.90683  0.52730  0.69661  1.0000
  H   H1951     1.0  0.88149  0.58000  0.69928  1.0000
  C   C1219     1.0  0.88689  0.60910  0.81093  1.0000
  C   C1220     1.0  0.96727  0.62912  0.73091  1.0000
  H   H1952     1.0  0.98182  0.65367  0.72387  1.0000
  H   H1953     1.0  0.74963  0.68661  0.96435  1.0000
  H   H1954     1.0  0.80551  0.48920  0.82768  1.0000
  H   H1955     1.0  0.98401  0.52468  0.71419  1.0000
  C   C1221     1.0  0.93658  0.69709  0.66735  1.0000
  H   H1956     1.0  0.95732  0.60192  0.73785  1.0000
  H   H1957     1.0  0.76542  0.49840  0.89609  1.0000
  C   C1222     1.0  0.88349  0.68621  0.66636  1.0000
  N   N123      1.0  0.76329  0.49628  0.92641  1.0000
  H   H1958     1.0  0.73550  0.50321  0.94403  1.0000
  H   H1959     1.0  0.79530  0.52914  0.77690  1.0000
  C   C1223     1.0  0.88664  0.53215  0.69818  1.0000
  H   H1960     1.0  0.91361  0.62767  0.76922  1.0000
  H   H1961     1.0  0.75401  0.57395  0.84159  1.0000
  C   C1224     1.0  0.70024  0.67770  0.84869  1.0000
  C   C1225     1.0  0.68831  0.69156  0.83759  1.0000
  C   C1226     1.0  0.67756  0.70807  0.84462  1.0000
  C   C1227     1.0  0.67847  0.71064  0.86291  1.0000
  C   C1228     1.0  0.69059  0.69689  0.87387  1.0000
  C   C1229     1.0  0.70144  0.68048  0.86680  1.0000
  H   H1962     1.0  0.68744  0.68956  0.82350  1.0000
  H   H1963     1.0  0.66862  0.71881  0.83587  1.0000
  H   H1964     1.0  0.69150  0.69882  0.88797  1.0000
  H   H1965     1.0  0.71058  0.66990  0.87548  1.0000
  C   C1230     1.0  0.81893  0.63157  0.81725  1.0000
  C   C1231     1.0  0.83197  0.64239  0.80447  1.0000
  C   C1232     1.0  0.84401  0.63508  0.78871  1.0000
  C   C1233     1.0  0.84339  0.61666  0.78588  1.0000
  C   C1234     1.0  0.83024  0.60593  0.79859  1.0000
  C   C1235     1.0  0.81790  0.61342  0.81408  1.0000
  H   H1966     1.0  0.83285  0.65645  0.80683  1.0000
  H   H1967     1.0  0.85402  0.64351  0.77902  1.0000
  H   H1968     1.0  0.82974  0.59164  0.79656  1.0000
  H   H1969     1.0  0.80798  0.60492  0.82384  1.0000
  C   C1236     1.0  0.75145  0.63035  0.94325  1.0000
  C   C1237     1.0  0.74022  0.62979  0.96156  1.0000
  C   C1238     1.0  0.87574  0.70544  0.65968  1.0000
  C   C1239     1.0  0.97301  0.49193  0.69212  1.0000
  C   C1240     1.0  0.78016  0.61686  0.95762  1.0000
  C   C1241     1.0  0.77144  0.62368  0.94127  1.0000
  H   H1970     1.0  0.72472  0.63489  0.96317  1.0000
  H   H1971     1.0  0.77600  0.64421  0.81304  1.0000
  C   C1242     1.0  0.74868  0.54808  0.83451  1.0000
  S   S499      1.0  0.87224  0.67411  0.68825  1.0000
  H   H1972     1.0  0.91438  0.67506  0.69312  1.0000
  C   C1243     1.0  0.76099  0.67955  0.82089  1.0000
  C   C1244     1.0  0.76425  0.65247  0.80517  1.0000
  C   C1245     1.0  0.82290  0.50263  0.79234  1.0000
  C   C1246     1.0  0.93359  0.71428  0.69315  1.0000
  H   H1973     1.0  0.82948  0.48767  0.79805  1.0000
  H   H1974     1.0  0.74287  0.52844  0.88872  1.0000
  S   S500      1.0  0.87247  0.51492  0.69817  1.0000
  C   C1247     1.0  0.79949  0.50415  0.82140  1.0000
  C   C1248     1.0  0.54271  0.72682  0.85000  1.0000
  H   H1975     1.0  0.72432  0.57073  0.92463  1.0000
  H   H1976     1.0  0.97466  0.56279  0.67291  1.0000
  H   H1977     1.0  0.74331  0.58466  0.91977  1.0000
  H   H1978     1.0  0.90254  0.69952  0.69221  1.0000
  C   C1249     1.0  0.76891  0.61640  0.97596  1.0000
  H   H1979     1.0  0.89124  0.52680  0.65209  1.0000
  H   H1980     1.0  0.93129  0.71354  0.70888  1.0000
  H   H1981     1.0  0.85540  0.49753  0.64968  1.0000
  H   H1982     1.0  0.82537  0.50412  0.77651  1.0000
  C   C1250     1.0  0.89754  0.51147  0.65124  1.0000
  N   N124      1.0  0.62667  0.68565  0.86651  1.0000
  C   C1251     1.0  0.61535  0.67440  0.85962  1.0000
  C   C1252     1.0  0.61552  0.69212  0.88423  1.0000
  C   C1253     1.0  0.63040  0.70260  0.85179  1.0000
  C   C1254     1.0  0.64535  0.67362  0.87033  1.0000
  H   H1983     1.0  0.62328  0.66947  0.84615  1.0000
  H   H1984     1.0  0.60114  0.68318  0.85666  1.0000
  H   H1985     1.0  0.76274  0.52586  0.91272  1.0000
  H   H1986     1.0  0.62365  0.70075  0.88972  1.0000
  H   H1987     1.0  0.60142  0.70140  0.88176  1.0000
  H   H1988     1.0  0.61230  0.67973  0.89567  1.0000
  H   H1989     1.0  0.63986  0.69840  0.83859  1.0000
  H   H1990     1.0  0.63763  0.71216  0.85708  1.0000
  H   H1991     1.0  0.61670  0.71136  0.84765  1.0000
  H   H1992     1.0  0.65410  0.68172  0.87571  1.0000
  H   H1993     1.0  0.65438  0.66883  0.85717  1.0000
  H   H1994     1.0  0.64315  0.66053  0.88120  1.0000
  H   H1995     1.0  0.85892  0.51902  0.65649  1.0000
  C   C1255     1.0  0.74192  0.49807  0.93031  1.0000
  H   H1996     1.0  0.79386  0.49440  0.77938  1.0000
  H   H1997     1.0  0.99057  0.58261  0.73463  1.0000
  H   H1998     1.0  0.91274  0.68675  0.71290  1.0000
  C   C1256     1.0  0.65332  0.71374  0.95600  1.0000
  C   C1257     1.0  0.86546  0.50379  0.65540  1.0000
  H   H1999     1.0  0.83107  0.51255  0.79589  1.0000
  C   C1258     1.0  0.98864  0.59812  0.73162  1.0000
  C   C1259     1.0  0.74486  0.53382  0.87360  1.0000
  H   H2000     1.0  0.97093  0.56533  0.72397  1.0000
  H   H2001     1.0  0.93710  0.68300  0.66319  1.0000
  N   N125      1.0  0.80201  0.50671  0.80038  1.0000
  C   C1260     1.0  0.71789  0.59405  0.95050  1.0000
  H   H2002     1.0  0.73520  0.50820  0.91875  1.0000
  H   H2003     1.0  0.70419  0.59274  0.94634  1.0000
  H   H2004     1.0  0.86281  0.71250  0.66788  1.0000
  H   H2005     1.0  0.89929  0.50421  0.66598  1.0000
  H   H2006     1.0  0.92178  0.72535  0.68758  1.0000
  H   H2007     1.0  0.78469  0.51450  0.92153  1.0000
  C   C1261     1.0  0.74282  0.52230  0.86109  1.0000
  H   H2008     1.0  0.74837  0.55935  0.92847  1.0000
  H   H2009     1.0  0.94980  0.66651  0.69304  1.0000
  H   H2010     1.0  0.66387  0.71569  0.91779  1.0000
  H   H2011     1.0  0.61222  0.66144  0.87034  1.0000
  H   H2012     1.0  0.73925  0.50812  0.86669  1.0000
  H   H2013     1.0  0.80098  0.53726  0.79648  1.0000
  H   H2014     1.0  0.75716  0.58993  0.94576  1.0000
  H   H2015     1.0  0.78728  0.48689  0.90515  1.0000
  C   C1262     1.0  0.98364  0.63817  0.72576  1.0000
  S   S501      1.0  0.74306  0.51460  0.82559  1.0000
  H   H2016     1.0  0.78389  0.50699  0.82793  1.0000
  H   H2017     1.0  0.96200  0.57675  0.70236  1.0000
  H   H2018     1.0  0.66738  0.70688  0.96071  1.0000
  H   H2019     1.0  0.76305  0.52134  0.93798  1.0000
  H   H2020     1.0  0.71095  0.55769  0.95828  1.0000
  H   H2021     1.0  0.94843  0.67996  0.71142  1.0000
  H   H2022     1.0  0.73488  0.54625  0.96243  1.0000
  H   H2023     1.0  0.72336  0.60651  0.94058  1.0000
  H   H2024     1.0  0.71426  0.59770  0.96509  1.0000
  H   H2025     1.0  0.64292  0.71723  0.96904  1.0000
  C   C1263     1.0  0.66906  0.72595  0.92420  1.0000
  N   N126      1.0  0.65534  0.73116  0.94131  1.0000
  H   H2026     1.0  0.76100  0.56496  0.95624  1.0000
  H   H2027     1.0  0.51458  0.72498  0.84495  1.0000
  N   N127      1.0  0.88499  0.50227  0.64347  1.0000
  C   C1264     1.0  0.74747  0.67310  0.97458  1.0000
  H   H2028     1.0  0.63009  0.72994  0.93023  1.0000
  C   C1265     1.0  0.77117  0.48870  0.90845  1.0000
  H   H2029     1.0  0.74685  0.58243  0.97022  1.0000
  S   S502      1.0  0.57783  0.72948  0.85724  1.0000
  C   C1266     1.0  0.52753  0.73131  0.83950  1.0000
  H   H2030     1.0  0.55897  0.95550  0.28643  1.0000
  Fe  Fe251     1.0  0.63063  0.91729  0.28410  1.0000
  H   H2031     1.0  0.54638  0.76317  0.23585  1.0000
  Fe  Fe252     1.0  0.63070  0.87605  0.27857  1.0000
  C   C1267     1.0  0.57209  0.88854  0.26178  1.0000
  S   S503      1.0  0.61938  0.85839  0.26199  1.0000
  Fe  Fe253     1.0  0.65518  0.88396  0.30539  1.0000
  H   H2032     1.0  0.56411  0.97896  0.28585  1.0000
  N   N128      1.0  0.55103  0.79102  0.99257  1.0000
  H   H2033     1.0  0.54340  0.77166  0.09844  1.0000
  S   S504      1.0  0.60709  0.90055  0.28618  1.0000
  S   S505      1.0  0.65435  0.89399  0.27383  1.0000
  Fe  Fe254     1.0  0.62295  0.75415  0.19997  1.0000
  S   S506      1.0  0.61827  0.78542  0.18687  1.0000
  H   H2034     1.0  0.53215  0.80753  0.01275  1.0000
  C   C1268     1.0  0.50775  0.79157  0.25764  1.0000
  S   S507      1.0  0.66208  0.77590  0.16156  1.0000
  H   H2035     1.0  0.60405  0.75240  0.09895  1.0000
  Fe  Fe255     1.0  0.64900  0.78444  0.19020  1.0000
  S   S508      1.0  0.66045  0.80904  0.19681  1.0000
  Fe  Fe256     1.0  0.63166  0.77491  0.15920  1.0000
  S   S509      1.0  0.61912  0.78834  0.13242  1.0000
  S   S510      1.0  0.65282  0.75375  0.20564  1.0000
  H   H2036     1.0  0.51043  0.95849  0.27425  1.0000
  H   H2037     1.0  0.55436  0.74711  0.12573  1.0000
  C   C1269     1.0  0.54666  0.75131  0.04420  1.0000
  N   N129      1.0  0.55242  0.88374  0.26843  1.0000
  C   C1270     1.0  0.57192  0.74529  0.20505  1.0000
  S   S511      1.0  0.63351  0.74368  0.17213  1.0000
  C   C1271     1.0  0.55387  0.86259  0.27234  1.0000
  Fe  Fe257     1.0  0.61103  0.75837  0.02811  1.0000
  C   C1272     1.0  0.57303  0.77713  0.11227  1.0000
  H   H2038     1.0  0.57977  0.75454  0.19373  1.0000
  H   H2039     1.0  0.54672  0.75005  0.19152  1.0000
  H   H2040     1.0  0.55659  0.82005  0.98619  1.0000
  C   C1273     1.0  0.50519  0.75787  0.09470  1.0000
  C   C1274     1.0  0.55796  0.76727  0.09006  1.0000
  C   C1275     1.0  0.54073  0.79287  0.01212  1.0000
  H   H2041     1.0  0.55886  0.78057  0.12180  1.0000
  H   H2042     1.0  0.54509  0.77523  0.25530  1.0000
  H   H2043     1.0  0.55108  0.78998  0.02231  1.0000
  H   H2044     1.0  0.56111  0.77969  0.07862  1.0000
  S   S512      1.0  0.62667  0.78353  0.02069  1.0000
  H   H2045     1.0  0.52535  0.88911  0.25825  1.0000
  H   H2046     1.0  0.59572  0.76932  0.07921  1.0000
  H   H2047     1.0  0.53962  0.76243  0.05249  1.0000
  C   C1276     1.0  0.54347  0.89153  0.28607  1.0000
  C   C1277     1.0  0.66798  0.96348  0.29209  1.0000
  N   N130      1.0  0.52018  0.78344  0.24130  1.0000
  H   H2048     1.0  0.52917  0.88700  0.29227  1.0000
  H   H2049     1.0  0.53744  0.79326  0.21440  1.0000
  H   H2050     1.0  0.55284  0.88644  0.29716  1.0000
  H   H2051     1.0  0.56015  0.85627  0.25925  1.0000
  C   C1278     1.0  0.63160  0.84417  0.24448  1.0000
  C   C1279     1.0  0.62152  0.83177  0.23941  1.0000
  C   C1280     1.0  0.63030  0.82061  0.22516  1.0000
  C   C1281     1.0  0.64921  0.82197  0.21560  1.0000
  C   C1282     1.0  0.65927  0.83445  0.22058  1.0000
  C   C1283     1.0  0.65059  0.84539  0.23505  1.0000
  H   H2052     1.0  0.60684  0.83071  0.24661  1.0000
  H   H2053     1.0  0.62238  0.81109  0.22148  1.0000
  H   H2054     1.0  0.67389  0.83563  0.21325  1.0000
  H   H2055     1.0  0.65848  0.85493  0.23873  1.0000
  S   S513      1.0  0.66470  0.75382  0.00436  1.0000
  H   H2056     1.0  0.54655  0.88669  0.24005  1.0000
  H   H2057     1.0  0.55694  0.75538  0.08296  1.0000
  S   S514      1.0  0.63408  0.73770  0.04195  1.0000
  H   H2058     1.0  0.57179  0.90434  0.25895  1.0000
  C   C1284     1.0  0.63841  0.96194  0.28160  1.0000
  H   H2059     1.0  0.57563  0.80232  0.99535  1.0000
  C   C1285     1.0  0.56921  0.96326  0.29007  1.0000
  S   S515      1.0  0.58041  0.76319  0.04372  1.0000
  C   C1286     1.0  0.52806  0.79897  0.22696  1.0000
  H   H2060     1.0  0.66188  0.93805  0.28500  1.0000
  C   C1287     1.0  0.53636  0.76898  0.24798  1.0000
  C   C1288     1.0  0.59223  0.75673  0.09030  1.0000
  H   H2061     1.0  0.58156  0.88196  0.27262  1.0000
  Fe  Fe258     1.0  0.50060  0.74797  0.19871  1.0000
  C   C1289     1.0  0.62432  0.78692  0.09430  1.0000
  C   C1290     1.0  0.63261  0.78156  0.11091  1.0000
  C   C1291     1.0  0.65153  0.77120  0.11002  1.0000
  C   C1292     1.0  0.66218  0.76652  0.09255  1.0000
  H   H2062     1.0  0.60986  0.79524  0.09479  1.0000
  H   H2063     1.0  0.65807  0.76697  0.12271  1.0000
  H   H2064     1.0  0.67693  0.75880  0.09186  1.0000
  C   C1293     1.0  0.50856  0.77423  0.23249  1.0000
  C   C1294     1.0  0.63156  0.98128  0.28334  1.0000
  C   C1295     1.0  0.53677  0.79475  0.97962  1.0000
  H   H2065     1.0  0.56338  0.85573  0.28307  1.0000
  C   C1296     1.0  0.56219  0.77133  0.99257  1.0000
  H   H2066     1.0  0.53100  0.75653  0.25806  1.0000
  H   H2067     1.0  0.68221  0.95659  0.29517  1.0000
  S   S516      1.0  0.51141  0.77325  0.17931  1.0000
  H   H2068     1.0  0.57341  0.76819  0.00185  1.0000
  H   H2069     1.0  0.53894  0.90824  0.25033  1.0000
  H   H2070     1.0  0.57937  0.88287  0.24850  1.0000
  H   H2071     1.0  0.51736  0.76839  0.21982  1.0000
  H   H2072     1.0  0.53683  0.80638  0.23306  1.0000
  C   C1297     1.0  0.66114  0.98277  0.29389  1.0000
  H   H2073     1.0  0.52663  0.78417  0.98406  1.0000
  S   S517      1.0  0.62111  0.74911  0.99953  1.0000
  Fe  Fe259     1.0  0.66314  0.74537  0.17676  1.0000
  H   H2074     1.0  0.53047  0.78248  0.01752  1.0000
  C   C1298     1.0  0.63475  0.78171  0.07697  1.0000
  Fe  Fe260     1.0  0.63880  0.77255  0.99309  1.0000
  C   C1299     1.0  0.54035  0.89228  0.25356  1.0000
  N   N131      1.0  0.57302  0.76131  0.10228  1.0000
  S   S518      1.0  0.62432  0.94918  0.27343  1.0000
  C   C1300     1.0  0.56446  0.80505  0.98603  1.0000
  H   H2075     1.0  0.52781  0.80936  0.97951  1.0000
  H   H2076     1.0  0.51730  0.74604  0.09496  1.0000
  S   S519      1.0  0.51335  0.76283  0.12827  1.0000
  H   H2077     1.0  0.58358  0.95966  0.28098  1.0000
  C   C1301     1.0  0.56687  0.74764  0.03922  1.0000
  H   H2078     1.0  0.53946  0.85822  0.27815  1.0000
  Fe  Fe261     1.0  0.65061  0.76218  0.03281  1.0000
  C   C1302     1.0  0.65650  0.95297  0.28631  1.0000
  H   H2079     1.0  0.62829  0.78596  0.06422  1.0000
  N   N132      1.0  0.64172  0.83845  0.14521  1.0000
  C   C1303     1.0  0.65894  0.82377  0.14065  1.0000
  C   C1304     1.0  0.62662  0.82916  0.15894  1.0000
  C   C1305     1.0  0.63406  0.84780  0.12754  1.0000
  C   C1306     1.0  0.64724  0.85290  0.15377  1.0000
  H   H2080     1.0  0.66521  0.81657  0.15368  1.0000
  H   H2081     1.0  0.67059  0.83019  0.13016  1.0000
  H   H2082     1.0  0.65522  0.81244  0.13442  1.0000
  H   H2083     1.0  0.61329  0.83973  0.16257  1.0000
  H   H2084     1.0  0.62234  0.81789  0.15312  1.0000
  H   H2085     1.0  0.63184  0.82218  0.17254  1.0000
  H   H2086     1.0  0.62101  0.85894  0.13042  1.0000
  H   H2087     1.0  0.62975  0.83707  0.12092  1.0000
  H   H2088     1.0  0.64510  0.85486  0.11675  1.0000
  H   H2089     1.0  0.63459  0.86416  0.15752  1.0000
  H   H2090     1.0  0.65872  0.86014  0.14389  1.0000
  H   H2091     1.0  0.65302  0.84608  0.16720  1.0000
  C   C1307     1.0  0.65381  0.77167  0.07599  1.0000
  S   S520      1.0  0.66764  0.76605  0.05415  1.0000
  H   H2092     1.0  0.57562  0.79049  0.10198  1.0000
  H   H2093     1.0  0.54086  0.90753  0.28338  1.0000
  C   C1308     1.0  0.55316  0.74284  0.20386  1.0000
  H   H2094     1.0  0.55258  0.76033  0.99791  1.0000
  H   H2095     1.0  0.51622  0.81000  0.22143  1.0000
  H   H2096     1.0  0.56980  0.76917  0.97804  1.0000
  C   C1309     1.0  0.49998  0.76862  0.10951  1.0000
  H   H2097     1.0  0.58459  0.77335  0.12127  1.0000
  H   H2098     1.0  0.50274  0.76203  0.24259  1.0000
  C   C1310     1.0  0.56881  0.74412  0.11651  1.0000
  H   H2099     1.0  0.51601  0.79855  0.26477  1.0000
  H   H2100     1.0  0.57985  0.73928  0.12603  1.0000
  Fe  Fe262     1.0  0.49690  0.76619  0.15783  1.0000
  H   H2101     1.0  0.50123  0.78028  0.26852  1.0000
  C   C1311     1.0  0.53541  0.74146  0.03737  1.0000
  H   H2102     1.0  0.51978  0.74488  0.04054  1.0000
  S   S521      1.0  0.49670  0.86812  0.28343  1.0000
  C   C1312     1.0  0.49685  0.95854  0.28415  1.0000
  S   S522      1.0  0.60316  0.73906  0.22412  1.0000
  H   H2103     1.0  0.59902  0.96515  0.30648  1.0000
  H   H2104     1.0  0.59238  0.93318  0.30714  1.0000
  S   S523      1.0  0.49609  0.92389  0.27454  1.0000
  H   H2105     1.0  0.49821  0.75335  0.06871  1.0000
  H   H2106     1.0  0.59269  0.74482  0.08258  1.0000
  H   H2107     1.0  0.49556  0.80270  0.25301  1.0000
  C   C1313     1.0  0.58031  0.73590  0.22107  1.0000
  H   H2108     1.0  0.49602  0.78465  0.22760  1.0000
  C   C1314     1.0  0.49446  0.76203  0.07978  1.0000
  S   S524      1.0  0.63359  0.86408  0.30927  1.0000
  Fe  Fe263     1.0  0.90589  0.74907  0.59450  1.0000
  H   H2109     1.0  0.82931  0.76709  0.43016  1.0000
  H   H2110     1.0  0.86487  0.77249  0.49779  1.0000
  Fe  Fe264     1.0  0.76988  0.93511  0.58743  1.0000
  S   S525      1.0  0.74597  0.94252  0.57039  1.0000
  S   S526      1.0  0.78028  0.95905  0.59630  1.0000
  Fe  Fe265     1.0  0.77396  0.89171  0.58788  1.0000
  S   S527      1.0  0.74935  0.89654  0.57145  1.0000
  S   S528      1.0  0.78742  0.85997  0.59338  1.0000
  Fe  Fe266     1.0  0.76357  0.92056  0.55315  1.0000
  S   S529      1.0  0.77151  0.92660  0.52097  1.0000
  Fe  Fe267     1.0  0.73416  0.91780  0.59058  1.0000
  S   S530      1.0  0.70209  0.92478  0.60235  1.0000
  S   S531      1.0  0.78881  0.91490  0.56857  1.0000
  S   S532      1.0  0.75738  0.91123  0.60861  1.0000
  S   S533      1.0  0.63289  0.90838  0.31495  1.0000
  H   H2111     1.0  0.69074  0.96599  0.46237  1.0000
  C   C1315     1.0  0.75922  0.98412  0.43758  1.0000
  S   S534      1.0  0.91901  0.74960  0.40303  1.0000
  C   C1316     1.0  0.87901  0.76341  0.49717  1.0000
  H   H2112     1.0  0.72240  0.87973  0.36374  1.0000
  N   N133      1.0  0.81083  0.86911  0.53219  1.0000
  Fe  Fe268     1.0  0.90390  0.75238  0.43304  1.0000
  H   H2113     1.0  0.83037  0.85440  0.51104  1.0000
  H   H2114     1.0  0.73341  0.97993  0.47431  1.0000
  H   H2115     1.0  0.97069  0.76015  0.47169  1.0000
  C   C1317     1.0  0.81194  0.88845  0.52063  1.0000
  Fe  Fe269     1.0  0.72619  0.90455  0.39791  1.0000
  S   S535      1.0  0.75191  0.91624  0.37966  1.0000
  Fe  Fe270     1.0  0.74326  0.90021  0.43455  1.0000
  S   S536      1.0  0.76997  0.91212  0.41876  1.0000
  S   S537      1.0  0.73571  0.89129  0.46660  1.0000
  Fe  Fe271     1.0  0.74946  0.93399  0.40217  1.0000
  S   S538      1.0  0.74620  0.96634  0.39317  1.0000
  Fe  Fe272     1.0  0.76991  0.89304  0.39793  1.0000
  S   S539      1.0  0.79742  0.87563  0.38380  1.0000
  S   S540      1.0  0.72287  0.92352  0.41963  1.0000
  S   S541      1.0  0.74417  0.87988  0.41462  1.0000
  S   S542      1.0  0.88497  0.78512  0.38927  1.0000
  S   S543      1.0  0.90030  0.78449  0.42870  1.0000
  Fe  Fe273     1.0  0.87192  0.78464  0.42002  1.0000
  S   S544      1.0  0.84365  0.80276  0.43141  1.0000
  Fe  Fe274     1.0  0.91360  0.78179  0.39853  1.0000
  S   S545      1.0  0.93512  0.79995  0.38121  1.0000
  C   C1318     1.0  0.80406  0.85001  0.41684  1.0000
  C   C1319     1.0  0.69507  0.95816  0.47616  1.0000
  C   C1320     1.0  0.95971  0.79124  0.38286  1.0000
  C   C1321     1.0  0.96558  0.77988  0.39954  1.0000
  H   H2116     1.0  0.84806  0.77499  0.39820  1.0000
  C   C1322     1.0  0.98553  0.77384  0.40033  1.0000
  H   H2117     1.0  0.88105  0.76064  0.46788  1.0000
  C   C1323     1.0  0.97373  0.79634  0.36709  1.0000
  C   C1324     1.0  0.81452  0.83384  0.42710  1.0000
  H   H2118     1.0  0.66745  0.83828  0.38127  1.0000
  C   C1325     1.0  0.82982  0.74447  0.40513  1.0000
  H   H2119     1.0  0.96933  0.80520  0.35422  1.0000
  C   C1326     1.0  0.80968  0.85501  0.39711  1.0000
  C   C1327     1.0  0.82571  0.84359  0.38772  1.0000
  C   C1328     1.0  0.83617  0.82741  0.39799  1.0000
  C   C1329     1.0  0.83067  0.82257  0.41776  1.0000
  N   N134      1.0  0.72203  0.95273  0.64289  1.0000
  H   H2120     1.0  0.72633  0.93451  0.46210  1.0000
  H   H2121     1.0  0.83003  0.84734  0.37242  1.0000
  H   H2122     1.0  0.84847  0.81875  0.39060  1.0000
  H   H2123     1.0  0.87572  0.82233  0.40779  1.0000
  H   H2124     1.0  0.80824  0.89972  0.52979  1.0000
  H   H2125     1.0  0.98681  0.75968  0.60991  1.0000
  S   S546      1.0  0.87511  0.82008  0.59792  1.0000
  H   H2126     1.0  0.66084  0.90465  0.33868  1.0000
  H   H2127     1.0  0.55159  0.95944  0.33760  1.0000
  C   C1330     1.0  0.69215  0.91522  0.62591  1.0000
  H   H2128     1.0  0.83377  0.74028  0.39075  1.0000
  H   H2129     1.0  0.66198  0.86392  0.38048  1.0000
  H   H2130     1.0  0.76701  0.95835  0.42504  1.0000
  H   H2131     1.0  0.68699  0.94951  0.38727  1.0000
  S   S547      1.0  0.68281  0.87392  0.31819  1.0000
  H   H2132     1.0  0.85585  0.86344  0.39500  1.0000
  H   H2133     1.0  0.82467  0.84982  0.55415  1.0000
  C   C1331     1.0  0.76277  0.91499  0.50640  1.0000
  C   C1332     1.0  0.76918  0.91873  0.48662  1.0000
  C   C1333     1.0  0.76151  0.91091  0.47434  1.0000
  C   C1334     1.0  0.74730  0.89938  0.48175  1.0000
  C   C1335     1.0  0.74135  0.89511  0.50160  1.0000
  C   C1336     1.0  0.74906  0.90291  0.51393  1.0000
  H   H2134     1.0  0.77982  0.92804  0.48073  1.0000
  H   H2135     1.0  0.76628  0.91418  0.45910  1.0000
  H   H2136     1.0  0.73037  0.88616  0.50742  1.0000
  H   H2137     1.0  0.74399  0.90000  0.52917  1.0000
  H   H2138     1.0  0.71800  0.94242  0.35279  1.0000
  H   H2139     1.0  0.56792  0.92856  0.31241  1.0000
  Fe  Fe275     1.0  0.49922  0.86015  0.31438  1.0000
  N   N135      1.0  0.97468  0.75875  0.50046  1.0000
  H   H2140     1.0  0.80543  0.76160  0.43294  1.0000
  C   C1337     1.0  0.83485  0.77696  0.39182  1.0000
  H   H2141     1.0  0.71915  0.93287  0.49720  1.0000
  Fe  Fe276     1.0  0.88894  0.75282  0.39659  1.0000
  N   N136      1.0  0.82097  0.76503  0.40402  1.0000
  S   S548      1.0  0.52779  0.84258  0.32082  1.0000
  C   C1338     1.0  0.85099  0.83128  0.59551  1.0000
  C   C1339     1.0  0.83753  0.82100  0.59282  1.0000
  C   C1340     1.0  0.81812  0.83000  0.59236  1.0000
  C   C1341     1.0  0.81206  0.84949  0.59405  1.0000
  C   C1342     1.0  0.82563  0.85995  0.59617  1.0000
  C   C1343     1.0  0.84494  0.85080  0.59714  1.0000
  H   H2142     1.0  0.84195  0.80597  0.59167  1.0000
  H   H2143     1.0  0.80772  0.82179  0.59076  1.0000
  H   H2144     1.0  0.82115  0.87493  0.59756  1.0000
  H   H2145     1.0  0.85523  0.85883  0.59931  1.0000
  C   C1344     1.0  0.88803  0.75851  0.51327  1.0000
  C   C1345     1.0  0.97495  0.76799  0.58392  1.0000
  H   H2146     1.0  0.72801  0.97195  0.35764  1.0000
  C   C1346     1.0  0.58420  0.96885  0.31471  1.0000
  C   C1347     1.0  0.68783  0.88480  0.33594  1.0000
  C   C1348     1.0  0.69499  0.89894  0.36680  1.0000
  H   H2147     1.0  0.96009  0.76897  0.59122  1.0000
  N   N137      1.0  0.71551  0.95880  0.47644  1.0000
  H   H2148     1.0  0.70462  0.95706  0.33484  1.0000
  H   H2149     1.0  0.67351  0.85427  0.35939  1.0000
  C   C1349     1.0  0.53624  0.87090  0.33635  1.0000
  C   C1350     1.0  0.80312  0.76878  0.39569  1.0000
  C   C1351     1.0  0.97903  0.77236  0.56401  1.0000
  C   C1352     1.0  0.71337  0.98002  0.35535  1.0000
  H   H2150     1.0  0.66794  0.96952  0.36305  1.0000
  Fe  Fe277     1.0  0.89227  0.76866  0.55684  1.0000
  S   S549      1.0  0.91960  0.74939  0.56365  1.0000
  C   C1353     1.0  0.70379  0.95150  0.35043  1.0000
  S   S550      1.0  0.69801  0.90760  0.38681  1.0000
  H   H2151     1.0  0.82671  0.88932  0.51223  1.0000
  C   C1354     1.0  0.72069  0.94825  0.49492  1.0000
  S   S551      1.0  0.87731  0.76640  0.58750  1.0000
  C   C1355     1.0  0.87768  0.83426  0.41428  1.0000
  H   H2152     1.0  0.87395  0.87120  0.41755  1.0000
  H   H2153     1.0  0.86341  0.83936  0.42287  1.0000
  H   H2154     1.0  0.66675  0.91653  0.36601  1.0000
  C   C1356     1.0  0.88772  0.86511  0.40883  1.0000
  H   H2155     1.0  0.81466  0.83994  0.52785  1.0000
  H   H2156     1.0  0.78960  0.85455  0.55231  1.0000
  S   S552      1.0  0.91767  0.77496  0.59671  1.0000
  H   H2157     1.0  0.84350  0.74123  0.41109  1.0000
  N   N138      1.0  0.64313  0.85277  0.36759  1.0000
  C   C1357     1.0  0.66230  0.85228  0.37246  1.0000
  C   C1358     1.0  0.62900  0.84856  0.38524  1.0000
  C   C1359     1.0  0.64486  0.83827  0.35543  1.0000
  C   C1360     1.0  0.63633  0.87205  0.35709  1.0000
  S   S553      1.0  0.87558  0.76665  0.53446  1.0000
  S   S554      1.0  0.87425  0.75249  0.42715  1.0000
  H   H2158     1.0  0.80634  0.76538  0.38100  1.0000
  H   H2159     1.0  0.61434  0.84906  0.38198  1.0000
  H   H2160     1.0  0.63351  0.83403  0.39348  1.0000
  H   H2161     1.0  0.62749  0.85925  0.39470  1.0000
  H   H2162     1.0  0.65551  0.84111  0.34200  1.0000
  H   H2163     1.0  0.63071  0.83843  0.35123  1.0000
  H   H2164     1.0  0.64989  0.82350  0.36285  1.0000
  H   H2165     1.0  0.63538  0.88353  0.36549  1.0000
  H   H2166     1.0  0.62174  0.87309  0.35346  1.0000
  H   H2167     1.0  0.64642  0.87540  0.34349  1.0000
  C   C1361     1.0  0.82484  0.86449  0.54549  1.0000
  C   C1362     1.0  0.81546  0.85467  0.51950  1.0000
  H   H2168     1.0  0.82134  0.87476  0.55571  1.0000
  H   H2169     1.0  0.83995  0.86500  0.53782  1.0000
  S   S555      1.0  0.58505  0.88944  0.33917  1.0000
  H   H2170     1.0  0.80512  0.85777  0.50929  1.0000
  H   H2171     1.0  0.80153  0.89242  0.51043  1.0000
  N   N139      1.0  0.88475  0.84990  0.39953  1.0000
  C   C1363     1.0  0.90332  0.84212  0.38818  1.0000
  C   C1364     1.0  0.87029  0.85803  0.38684  1.0000
  H   H2172     1.0  0.91452  0.83546  0.39732  1.0000
  H   H2173     1.0  0.90933  0.85347  0.37700  1.0000
  H   H2174     1.0  0.90154  0.83069  0.38084  1.0000
  H   H2175     1.0  0.87489  0.87022  0.37581  1.0000
  H   H2176     1.0  0.86813  0.84703  0.37920  1.0000
  H   H2177     1.0  0.89307  0.87716  0.39812  1.0000
  H   H2178     1.0  0.81012  0.83017  0.44239  1.0000
  C   C1365     1.0  0.74263  0.95498  0.63922  1.0000
  C   C1366     1.0  0.88817  0.75671  0.48021  1.0000
  H   H2179     1.0  0.66620  0.93668  0.62609  1.0000
  H   H2180     1.0  0.68507  0.96481  0.48783  1.0000
  H   H2181     1.0  0.82849  0.79254  0.39009  1.0000
  C   C1367     1.0  0.67418  0.89902  0.34410  1.0000
  H   H2182     1.0  0.91318  0.74260  0.52486  1.0000
  C   C1368     1.0  0.76654  0.98262  0.59444  1.0000
  H   H2183     1.0  0.75171  0.94542  0.62935  1.0000
  C   C1369     1.0  0.90625  0.74466  0.47936  1.0000
  C   C1370     1.0  0.81618  0.77000  0.42336  1.0000
  C   C1371     1.0  0.97875  0.77858  0.49673  1.0000
  Fe  Fe278     1.0  0.92974  0.77612  0.56554  1.0000
  C   C1372     1.0  0.90626  0.74664  0.51242  1.0000
  H   H2184     1.0  0.79234  0.75992  0.40445  1.0000
  C   C1373     1.0  0.79100  0.86885  0.54318  1.0000
  H   H2185     1.0  0.95478  0.77621  0.41191  1.0000
  S   S556      1.0  0.90344  0.79563  0.55588  1.0000
  H   H2186     1.0  0.97400  0.73830  0.42177  1.0000
  H   H2187     1.0  0.77994  0.87244  0.53368  1.0000
  H   H2188     1.0  0.78716  0.87951  0.55293  1.0000
  H   H2189     1.0  0.89858  0.85941  0.41849  1.0000
  S   S557      1.0  0.87740  0.74022  0.37607  1.0000
  H   H2190     1.0  0.71598  0.86700  0.33686  1.0000
  C   C1374     1.0  0.70530  0.87800  0.34305  1.0000
  C   C1375     1.0  0.67762  0.90583  0.35959  1.0000
  C   C1376     1.0  0.95391  0.75882  0.50855  1.0000
  N   N140      1.0  0.69863  0.96733  0.36154  1.0000
  H   H2191     1.0  0.52078  0.87500  0.34068  1.0000
  H   H2192     1.0  0.79172  0.85868  0.42421  1.0000
  C   C1377     1.0  0.70896  0.88516  0.35831  1.0000
  H   H2193     1.0  0.74124  0.97495  0.58854  1.0000
  C   C1378     1.0  0.91526  0.73956  0.49552  1.0000
  C   C1379     1.0  0.98668  0.74645  0.51417  1.0000
  C   C1380     1.0  0.57636  0.86026  0.32545  1.0000
  Fe  Fe279     1.0  0.89019  0.79249  0.58695  1.0000
  H   H2194     1.0  0.88803  0.82800  0.42436  1.0000
  C   C1381     1.0  0.54907  0.88114  0.34048  1.0000
  C   C1382     1.0  0.74655  0.97972  0.41065  1.0000
  H   H2195     1.0  0.58537  0.96560  0.33010  1.0000
  H   H2196     1.0  0.72346  0.94877  0.61416  1.0000
  C   C1383     1.0  0.54347  0.85512  0.32703  1.0000
  C   C1384     1.0  0.72816  0.94971  0.46078  1.0000
  S   S558      1.0  0.96018  0.77985  0.55048  1.0000
  H   H2197     1.0  0.71135  0.95454  0.50712  1.0000
  H   H2198     1.0  0.73600  0.94861  0.49567  1.0000
  H   H2199     1.0  0.76843  0.97860  0.44826  1.0000
  C   C1385     1.0  0.56357  0.84957  0.32201  1.0000
  C   C1386     1.0  0.75834  0.97260  0.42453  1.0000
  H   H2200     1.0  0.59182  0.85612  0.32107  1.0000
  H   H2201     1.0  0.83965  0.77300  0.37737  1.0000
  C   C1387     1.0  0.56913  0.87599  0.33480  1.0000
  H   H2202     1.0  0.97548  0.78469  0.51011  1.0000
  H   H2203     1.0  0.74452  0.96997  0.63245  1.0000
  H   H2204     1.0  0.74373  0.94961  0.46075  1.0000
  H   H2205     1.0  0.95045  0.74403  0.51197  1.0000
  C   C1388     1.0  0.97940  0.75114  0.48240  1.0000
  H   H2206     1.0  0.69282  0.94179  0.35470  1.0000
  C   C1389     1.0  0.67396  0.92425  0.63426  1.0000
  H   H2207     1.0  0.96993  0.78832  0.48652  1.0000
  Fe  Fe280     1.0  0.61139  0.88955  0.31619  1.0000
  H   H2208     1.0  0.98331  0.75167  0.52803  1.0000
  H   H2209     1.0  0.54342  0.89323  0.34782  1.0000
  C   C1390     1.0  0.67946  0.97859  0.35838  1.0000
  H   H2210     1.0  0.69939  0.95525  0.62669  1.0000
  H   H2211     1.0  0.72486  0.95744  0.44658  1.0000
  C   C1391     1.0  0.71460  0.95771  0.62468  1.0000
  H   H2212     1.0  0.57881  0.93283  0.33083  1.0000
  H   H2213     1.0  0.72817  0.92251  0.64178  1.0000
  H   H2214     1.0  0.94971  0.76484  0.52199  1.0000
  H   H2215     1.0  0.81008  0.78559  0.42295  1.0000
  H   H2216     1.0  0.99014  0.76567  0.41333  1.0000
  H   H2217     1.0  0.79609  0.78418  0.39474  1.0000
  H   H2218     1.0  0.69272  0.94304  0.47799  1.0000
  H   H2219     1.0  0.97350  0.74261  0.38723  1.0000
  C   C1392     1.0  0.99013  0.76271  0.59448  1.0000
  H   H2220     1.0  0.97652  0.73619  0.48469  1.0000
  N   N141      1.0  0.57053  0.95813  0.31058  1.0000
  S   S559      1.0  0.91755  0.73580  0.45822  1.0000
  C   C1393     1.0  0.57767  0.93728  0.31545  1.0000
  H   H2221     1.0  0.94440  0.76767  0.49847  1.0000
  H   H2222     1.0  0.71490  0.97303  0.61805  1.0000
  C   C1394     1.0  0.71816  0.97901  0.47388  1.0000
  H   H2223     1.0  0.54546  0.97886  0.31874  1.0000
  H   H2224     1.0  0.69424  0.97076  0.39087  1.0000
  H   H2225     1.0  0.71597  0.89190  0.63015  1.0000
  C   C1395     1.0  0.70200  0.89906  0.63651  1.0000
  H   H2226     1.0  0.54045  0.95539  0.31918  1.0000
  C   C1396     1.0  0.69792  0.95923  0.38204  1.0000
  C   C1397     1.0  0.55114  0.96315  0.32205  1.0000
  H   H2227     1.0  0.71218  0.95058  0.38481  1.0000
  H   H2228     1.0  0.56926  0.83723  0.31502  1.0000
  H   H2229     1.0  0.67948  0.98476  0.34298  1.0000
  H   H2230     1.0  0.57954  0.98464  0.31083  1.0000
  C   C1398     1.0  0.99347  0.78986  0.36770  1.0000
  Fe  Fe281     1.0  0.59619  0.92755  0.70957  1.0000
  S   S560      1.0  0.59893  0.93733  0.73598  1.0000
  S   S561      1.0  0.56663  0.93857  0.70133  1.0000
  Fe  Fe282     1.0  0.63867  0.90885  0.70273  1.0000
  S   S562      1.0  0.64425  0.91723  0.72882  1.0000
  Fe  Fe283     1.0  0.61602  0.90763  0.74334  1.0000
  S   S563      1.0  0.61018  0.89190  0.77411  1.0000
  Fe  Fe284     1.0  0.62662  0.94589  0.71895  1.0000
  S   S564      1.0  0.63749  0.97365  0.71665  1.0000
  S   S565      1.0  0.61143  0.89720  0.71799  1.0000
  S   S566      1.0  0.62289  0.93814  0.69190  1.0000
  H   H2231     1.0  0.54693  0.97766  0.70455  1.0000
  N   N142      1.0  0.67519  0.85768  0.74945  1.0000
  H   H2232     1.0  0.74882  0.95136  0.65259  1.0000
  C   C1399     1.0  0.66270  0.74500  0.94911  1.0000
  H   H2233     1.0  0.65458  0.84067  0.74756  1.0000
  H   H2234     1.0  0.55046  0.76634  0.86152  1.0000
  H   H2235     1.0  0.57054  0.88138  0.73642  1.0000
  H   H2236     1.0  0.57411  0.91107  0.76039  1.0000
  H   H2237     1.0  0.56119  0.91532  0.74084  1.0000
  H   H2238     1.0  0.51185  0.79469  0.89198  1.0000
  C   C1400     1.0  0.56002  0.91046  0.75655  1.0000
  C   C1401     1.0  0.52690  0.89531  0.70565  1.0000
  H   H2239     1.0  0.52018  0.80616  0.76568  1.0000
  S   S567      1.0  0.64326  0.78982  0.96320  1.0000
  H   H2240     1.0  0.53566  0.89619  0.74256  1.0000
  H   H2241     1.0  0.62828  0.79664  0.89918  1.0000
  N   N143      1.0  0.55531  0.89085  0.76247  1.0000
  H   H2242     1.0  0.66595  0.86556  0.72217  1.0000
  H   H2243     1.0  0.54706  0.78667  0.89445  1.0000
  Fe  Fe285     1.0  0.63919  0.75037  0.86060  1.0000
  C   C1402     1.0  0.62314  0.79288  0.91434  1.0000
  H   H2244     1.0  0.65609  0.86786  0.77375  1.0000
  H   H2245     1.0  0.52440  0.90042  0.76601  1.0000
  H   H2246     1.0  0.54355  0.73820  0.88752  1.0000
  H   H2247     1.0  0.68408  0.87816  0.72454  1.0000
  C   C1403     1.0  0.61901  0.82651  0.79608  1.0000
  C   C1404     1.0  0.67919  0.86394  0.72853  1.0000
  C   C1405     1.0  0.57019  0.87745  0.75208  1.0000
  H   H2248     1.0  0.56008  0.76292  0.89260  1.0000
  H   H2249     1.0  0.52538  0.77073  0.85928  1.0000
  C   C1406     1.0  0.51154  0.77899  0.89488  1.0000
  H   H2250     1.0  0.72634  0.92805  0.66507  1.0000
  N   N144      1.0  0.53057  0.76783  0.88792  1.0000
  H   H2251     1.0  0.69921  0.86862  0.75407  1.0000
  C   C1407     1.0  0.55165  0.92181  0.70243  1.0000
  C   C1408     1.0  0.55931  0.90229  0.70299  1.0000
  H   H2252     1.0  0.61312  0.83413  0.82400  1.0000
  C   C1409     1.0  0.51925  0.91489  0.70487  1.0000
  C   C1410     1.0  0.53163  0.92812  0.70321  1.0000
  H   H2253     1.0  0.57479  0.89743  0.70190  1.0000
  H   H2254     1.0  0.52564  0.94324  0.70271  1.0000
  C   C1411     1.0  0.69321  0.85501  0.75727  1.0000
  H   H2255     1.0  0.53621  0.78962  0.86324  1.0000
  H   H2256     1.0  0.70106  0.87918  0.66328  1.0000
  H   H2257     1.0  0.54774  0.76086  0.80100  1.0000
  C   C1412     1.0  0.51346  0.79404  0.76433  1.0000
  H   H2258     1.0  0.65154  0.92424  0.65925  1.0000
  H   H2259     1.0  0.66407  0.75855  0.93864  1.0000
  C   C1413     1.0  0.66779  0.83929  0.75387  1.0000
  S   S568      1.0  0.62687  0.75161  0.83434  1.0000
  H   H2260     1.0  0.64715  0.87572  0.75165  1.0000
  C   C1414     1.0  0.62044  0.83373  0.77641  1.0000
  C   C1415     1.0  0.61751  0.85368  0.76947  1.0000
  C   C1416     1.0  0.61320  0.86665  0.78217  1.0000
  C   C1417     1.0  0.61134  0.85946  0.80187  1.0000
  C   C1418     1.0  0.61423  0.83948  0.80882  1.0000
  H   H2261     1.0  0.62397  0.82377  0.76647  1.0000
  H   H2262     1.0  0.61877  0.85896  0.75428  1.0000
  H   H2263     1.0  0.60795  0.86938  0.81184  1.0000
  C   C1419     1.0  0.63621  0.74002  0.93598  1.0000
  C   C1420     1.0  0.63471  0.79362  0.92748  1.0000
  C   C1421     1.0  0.62820  0.78889  0.94718  1.0000
  C   C1422     1.0  0.60992  0.78353  0.95369  1.0000
  H   H2264     1.0  0.70463  0.84388  0.75109  1.0000
  C   C1423     1.0  0.53584  0.77393  0.86708  1.0000
  C   C1424     1.0  0.69353  0.89188  0.65527  1.0000
  Fe  Fe286     1.0  0.60464  0.77869  0.87673  1.0000
  Fe  Fe287     1.0  0.59812  0.75057  0.85373  1.0000
  H   H2265     1.0  0.69489  0.96435  0.65893  1.0000
  H   H2266     1.0  0.56751  0.86238  0.75657  1.0000
  H   H2267     1.0  0.54202  0.76686  0.91326  1.0000
  H   H2268     1.0  0.58491  0.87765  0.75464  1.0000
  Fe  Fe288     1.0  0.61914  0.78379  0.83384  1.0000
  H   H2269     1.0  0.51721  0.79214  0.74914  1.0000
  S   S569      1.0  0.63381  0.78255  0.85890  1.0000
  S   S570      1.0  0.58946  0.78784  0.90471  1.0000
  S   S571      1.0  0.58940  0.78247  0.85172  1.0000
  H   H2270     1.0  0.49577  0.97619  0.68810  1.0000
  C   C1425     1.0  0.60470  0.78793  0.92084  1.0000
  C   C1426     1.0  0.59811  0.78333  0.94054  1.0000
  C   C1427     1.0  0.66050  0.87249  0.75810  1.0000
  H   H2271     1.0  0.55154  0.86990  0.78821  1.0000
  H   H2272     1.0  0.55291  0.87393  0.70503  1.0000
  H   H2273     1.0  0.58387  0.77950  0.94553  1.0000
  S   S572      1.0  0.62424  0.80128  0.80373  1.0000
  S   S573      1.0  0.61103  0.74676  0.87992  1.0000
  C   C1428     1.0  0.54554  0.77122  0.89749  1.0000
  C   C1429     1.0  0.54626  0.75147  0.81474  1.0000
  H   H2274     1.0  0.66381  0.83445  0.76955  1.0000
  H   H2275     1.0  0.57406  0.75403  0.82032  1.0000
  H   H2276     1.0  0.60480  0.77992  0.96884  1.0000
  H   H2277     1.0  0.71562  0.96211  0.67000  1.0000
  H   H2278     1.0  0.69055  0.85343  0.72140  1.0000
  H   H2279     1.0  0.71165  0.98094  0.64996  1.0000
  H   H2280     1.0  0.67717  0.73891  0.95319  1.0000
  S   S574      1.0  0.51054  0.74841  0.80829  1.0000
  C   C1430     1.0  0.67531  0.90094  0.66362  1.0000
  C   C1431     1.0  0.54694  0.88905  0.70463  1.0000
  H   H2281     1.0  0.53234  0.87618  0.76151  1.0000
  C   C1432     1.0  0.52934  0.74712  0.89220  1.0000
  S   S575      1.0  0.66500  0.89143  0.68711  1.0000
  H   H2282     1.0  0.63728  0.75306  0.92475  1.0000
  H   H2283     1.0  0.50701  0.77464  0.91055  1.0000
  H   H2284     1.0  0.69057  0.85040  0.77307  1.0000
  H   H2285     1.0  0.66594  0.88629  0.75593  1.0000
  H   H2286     1.0  0.65278  0.74905  0.96216  1.0000
  H   H2287     1.0  0.67873  0.82763  0.74804  1.0000
  C   C1433     1.0  0.53607  0.89087  0.75800  1.0000
  C   C1434     1.0  0.56115  0.74762  0.82566  1.0000
  S   S576      1.0  0.51164  0.87833  0.70882  1.0000
  H   H2288     1.0  0.50380  0.91981  0.70568  1.0000
  H   H2289     1.0  0.56947  0.88438  0.78693  1.0000
  C   C1435     1.0  0.66564  0.91725  0.65308  1.0000
  H   H2290     1.0  0.54878  0.92113  0.76356  1.0000
  C   C1436     1.0  0.55505  0.88464  0.78321  1.0000
  H   H2291     1.0  0.56882  0.98171  0.68829  1.0000
  H   H2292     1.0  0.54419  0.89456  0.79154  1.0000
  H   H2293     1.0  0.51852  0.74398  0.88478  1.0000
  H   H2294     1.0  0.49998  0.77668  0.88786  1.0000
  H   H2295     1.0  0.59546  0.98163  0.72736  1.0000
  H   H2296     1.0  0.57227  0.80429  0.97121  1.0000
  C   C1437     1.0  0.52939  0.74336  0.82169  1.0000
  H   H2297     1.0  0.64878  0.79790  0.92235  1.0000
  H   H2298     1.0  0.62558  0.74448  0.94846  1.0000
  C   C1438     1.0  0.71054  0.96563  0.65603  1.0000
  H   H2299     1.0  0.70487  0.93053  0.65506  1.0000
  H   H2300     1.0  0.54406  0.79368  0.96468  1.0000
  C   C1439     1.0  0.72031  0.93258  0.65161  1.0000
  H   H2301     1.0  0.52044  0.78072  0.77300  1.0000
  H   H2302     1.0  0.67085  0.73884  0.91286  1.0000
  H   H2303     1.0  0.52477  0.74213  0.90775  1.0000
  H   H2304     1.0  0.49553  0.78785  0.80018  1.0000
  C   C1440     1.0  0.55948  0.73505  0.84320  1.0000
