data_image0
_chemical_formula_structural       FeS2FeSFeSFeS3FeHNH2FeHCHSCH2SH2C5H3C6H4C6H6CHC2H4CH4SHSH2SFeNC3H4CH2C2SHSNCH3SH2SH2FeC2SH2CH2FeCH4CFeCH4CH4FeH2N2S2HC2H4CHS3H2S2HCHCHCH2FeS3HFeSFeS2NC2HFeS2FeSFeS2HFeS2C6H4SH3SC4HCH2C7H2CHCH5CH2FeH2C6HC2NCH2C2HCHCSCSC6H4CH3C2SH5FeC2HCHNFeCSH2CNC4H10CHC2NSFeH3FeH4CH6C2HNSHFeHC3H3FeCH2SH3SH2CFeSH4FeHCSH7FeHSHFeH3FeNSHFeS2FeS2FeSFeS3HSHFeS2FeS2FeSFeS3HSH2C2H3S2FeS2FeS2FeSFeS3FeS2FeS2C6H4C7H3C6SH7C2H2C2H2C6H5C3H3CH2C8H3C6H4C6H4C2NH5C7H4NC4H12C3H6NC3H7C4H4CSCNCHNCH5NH4CSH2CH3FeH5NH3CH2CH5SC2H4CH3CH2CH2FeH2FeH6C2H3CH2C2H3CNHSHNHCSHNHFeHCHFeH2CH2CH3CH3C3H3CH2CH2C2H2NCHCH2CS2H5SH2CSCHSHCH3CFeS2FeS2FeCFeS6FeSFeSFeHS2FeH2SC2HSCHC5H5C6H4C6H4CHC2H2CHCSC4H3CHCHFeHCH5C2H3SH2FeHNSH2FeHSCH3CH3CNC4H12FeHSHCH4SH2C2H3C2HCH2CSNH2NSH4CHCHC2NH2CH2CHSHCFe2S2FeS2FeSFeS3H2CSHSH2CHFeCSH3SNCHCH2NH3C6H4C6H4C4H4CH7C6H2CHCH3CHCH2SC2HFeCSH6CH4CHCHCH2CHC3NSHCNH5FeC3SHS2H3NHCH2SHCH6CSHS2H2SN2HFeH2FeSHCH3CFeSHFeH3CH2CFeS2CSHFeSFeS3FeS2FeS2FeSFeS3C2HCH2C3H4C6H3C6H4C6H6C2HC4H3C6H4C2H2C2SH5C4HC9H4CH3SHCHFeNHFe2CNHSCFeSH4CH3CH2SHFeH6FeH6NC4H14C2HSHCHSNC2NHCHCHSHCHCH3FeC4H3CNC3H7SH2CHC2H6SCHNH7CH2NCH8SCFeS2FeS2Fe2S3FeS2FeSNFeSFeS3CSFeCSH5FeS2FeS2FeSFeS3FeS2CH2FeSH2SH2S2CH2FeHSH2CH2C5H3C6H9C6H4SC6H6CH2C5H2C6H4C6H5C6H4SCH2SH7CH2NFeHC2H2CHCH4CH6NCH3NC3H11CHNC2H2CSH2NCH2NCHC3H2CH4SHC2HNH2CSHCHC3H5NH5CHCHSHC2H5SH4SH2CH2CH4C2H2FeHCH2CNH4CH3NC2H2C2HSCH2CH2CHCH3C2H2C2SH2CHNH2CSFeCH4SHFeSFeS2FeSFeS3FeS2HCFeSH2C2SHFeS2CSCH2FeSHSHC2HCH3CH5C5H6SH2C6H5CHCSC6H4C6H4C2H6C3H2CHCNHC3H2CH4FeHSCH2C2FeC3H3C2HNC3H9NHSCHCHCH5NSFe3H2S2CH3CHCFeH4C4H2CH3NHCNCH5C2NH2SH5FeS2FeS2FeSFeS3H3SH4FeHC2SFeS4C3H2SH3CFeCHCFeCFeS2C2H2SNCHC2FeH3CH2C3H2CSHCFe2H2FeSC6H4C6H4CHC4H4C6H5C2FeC3NC4H12NC4H12NC4H13FeSHCNHCHCSHS2H2CH2NC4H15C2H4CH2CHCH2S2H2FeC3HS3CSCSNCNCSHCFeSH3CNSHCH5S2C2H2CSHCH3CNSH2CSH2FeH3CFeC3H2C3HCNC3SCH3CH3FeHCH4SHFeHSH2SCH2C2H3CH2SH2CH2C2H2CH2SH2NHSH2FeS3HCH2S3CFeS2FeS2FeSFeS3CSC8H4C6H4C3HC2FeC6H4SC7H7C2H5CNH4SCHFeSH3CH2SH2CFeNC6NH6CHFe2H4FeH2CH2CHSH2CS2NC4H12NC4H12NC4H15C3HCH3CSCFeC2H4CH4CH2NHCSFeH3CH3CH5CHCH3SHCSH2CH3CH3NHFeCSNSCSC8H4CHSH2SH6CHS2HFeCHC4H5C2HCHSHCFeCH4CSHNHCFeH2SHSH3CH5FeH5FeS2FeS2FeSFeS3FeSFeS2FeSFeS3CSHFeHSFeSCSH6FeS2FeS2FeSFeS3CHFeSFeS2FeS2FeSFeS3H2NHCH2CHC7HCH2C6FeH3C8H5C2H2C6H4C6H2C6H4C6H2FeHC6H4CHC2HCHC2HC4H2FeC6H4CH3CHCH3CH8CH10NC3SH3SHCSHCNC4H12SH2CH3S3HC3NHCH6CH4C3H3NHCNH3FeC3H3SHC3SH4CH2FeH3CH6SC2HCSNSHCNC2H4FeH2CH2SNH2SH2CSHCH3NCH4C2NCH2SCHSCH3CH5CHC3HCHC2H3CHN2FeH4CH5NCH2CHCSH2C3H2CH3FeH3CH4CHSH3CH4FeCH5CHCH2CHCHFeS2FeS2FeSFeS3HC4FeS2FeS2FeSFeS3HFeS2CFeSFe2HSFeHC2SCSFeSH3CHCH3SHCSH2SHFeCHC3H2CH3FeNFeSH5NH3NH6SH3SHSHCSHCSHCH5CFeH6SC7H4C6H4C6H4C6H4C6H4C6H4C3HNHC2HC2H3SH4SCNC4H15CH6C2HNCH2C2H5C2H5CHCH2CH5NC4H10NCH7SH2FeNH3SHC3HC2HSHCNH3C2FeC2SC4H2CSH2CS2FeS2FeS2FeSFeS3FeS2FeS2FeSFeS3HSCHSFeHSH4C6H4C6H4C6H4C2SH2SH2C6H3C7H2Fe2HCHCH4CH4C2SH2SCHCHC2H2CH6CH2C4H2C2H3NCHNCNC4H12SCSHCH5C2H6C2NSC2H3FeH2CHCSH2FeC2H4C3HC2HNC4H12NCH2CHFeHCS2CH2CH2NCH4CHN2H3CHCHCH2S2H3C3H10Fe2HCSHCHCH2NHC2SH2SC2H2CFeSHSFeSCHC3SH2CSHCH2FeHSHC3H6SCHFeH3C2HCFeSC2H2CH2CFeH2C2HCNH4CNCH4C3H2SC3H2SH2FeSFeS2FeSFeS3FeS2FeS2FeSFeS3HSC2FeS2FeSHSC2FeSFeSFeS2FeS2FeS2FeSFeS3HSHCHS2HFeS2FeS2FeSFeS3C6H2CH3C3H2C6H4C2H2CH3C2HC3HSH2C6H2C6H5C4H6NHCSC2HC6H5CH2CHC3HC4HCH2C6H2C6H5CNC4H13CH2NC4H12NC4H12NC4H12NCH4CHCFeCSH2SH2CHFe2CH3SHNH2SHSH7CHCHSC2HCHNHCH2CH4C3H2CHCH2C2NH2CH7CHCHC2HFeNC2SNH3C2H2CH3FeSHCHNCH5FeH3CH2CH6CH7CH5CH5SH2CNCH4CNSFeS2FeS2FeSFeHS3HC2FeHC2FeHSHC2HCHCHCH3SC2HFeSCSH3SH4CSHCHCH2CHC3HCNCNHCHC2HSHC2HCHCH3SHCH2CHC5H10NH4CH3CHCH2C2H4CHSCHFeHFeS2HSFeSHSHFeS2HSFeS2CH2FeSFe2SHSNFeS2FeSHFeSFeS3HCSH2SFeHCFeSH2SNFeHFeS2C3HCH2CSCH2CHCSHC3HFeH3FeNCH3FeNC6H4C4HCH4C6H4C3SC2HCH2C5H5C6H4CHCH3SH5SNCH4C6H5CH3SH2CHSHCFeHSCHCHSHNH2FeCHSH2NH4SH3CH3FeH2CH3C2H3C2HNC4H4CHCNFeH8CH2C2HS2CFeS2FeS2FeSFeS2HFeS2FeS2FeCFeS4FeS2FeS2CNFeS3FeS2FeS2FeSFeS3Fe2SCS2H2CH2C2HCNHC6H4SH2C6H4CSC4H4C6H4C6H4CHSHC4H2C6H4C6H5C6H3CH4CH3CHCHC2HCHNCHC2H7SH7NCH2C2H2CH5NH2CFeC2HNHCH2NHCH2FeH2CHCH4C2H3CNCH2CH4NC2HSH2NC4H12NC4H12C2SH4CHSH5CH2CH8CH3SH2CH2C2H2C2HCH11CHCFeC2SH6CHFeCS2FeSHFeS2Fe2S3HSFeHFeS2FeSCFeSFeHSHCHCNSH3SHC2H2FeC6H5C3HS2C6H5SCH3C6HC2HC6H5CH7SHFeCH2SNH2CH2CFeNH2SNHC5FeH7CSH6SH7SHCNC4HCH3SCH8CH4CH4CNC2HSFeS2FeS2FeSFeS3FeCSH3CH3SH2CSCHCHCH4FeCNH3NCH3CHCH3C2H5SH3C6H4C6H4C3H4C2H2FeSC2NSH3CH2CH5SFeSFeSH2SHC4H4NC2H2SC2H4CHC2HCHFeSH2SCFeS2CH2FeS2H4SCHFe2S2Fe2S2FeS2FeSFeS3FeHSFeS2FeSH2S2FeHSFeC2H4S2C3H5CHCH3C7H4C6H7FeCH4CSHSC2HC5H3CHC5SH3FeHFeC2HC2H2CH3C6H9C2HCSCH3NH2CHCNCNHCH2C2NH3FeHCH3CHCH10SNH2SC2H2SH2CNC4H16CNC4H7CHCSC2FeHSC2SH3SCHSHCH3NHFeS2FeS2FeSFeS3HFeS2FeS2FeSFeCS2CHCH4FeH2SCFeS2FeS2FeSFeS3FeSFeS2FeHS2C4HC6H4C6H5SHC6H5CH2SH2CSHC3H3C6H4C6H9C3HC3H3CHFeCHNC4H12CHCH2SHNH3C2NHC2HCHCH2CSH2CH3C2N2C4H12NC4H12SH2NC6H5CH4C2HNHC3H2CNHCFeNC4H12CHSFeHSHSHCH3CSCH4C2H5SFeH5C2H2SHCH2SH9C2H5C2H2SCHCH3C4FeH2CNSCH3CFeS2FeSCFeHFeS3HFeS2HNHFeSCHSHFeSFeS2FeS2C4H3C6H4FeHSC3H2C6H7CHSHCH2NH2SCH2CH3CFeCSH2C3HCFeNHSH3SCHCHC2H7CHCH5C4HC2HS2NH5FeSH4C2H3NHCH2CSFeH4C2H2C2H3C2HC2H3CHCH3CNH2CH12
_chemical_formula_sum              "Fe384 S768 H3072 N192 C1920"
_cell_length_a       75.9005
_cell_length_b       75.8136
_cell_length_c       75.7699
_cell_angle_alpha    75.1689
_cell_angle_beta     75.555
_cell_angle_gamma    75.434

_space_group_name_H-M_alt    "P 1"
_space_group_IT_number       1

loop_
  _space_group_symop_operation_xyz
  'x, y, z'

loop_
  _atom_site_type_symbol
  _atom_site_label
  _atom_site_symmetry_multiplicity
  _atom_site_fract_x
  _atom_site_fract_y
  _atom_site_fract_z
  _atom_site_occupancy
  Fe  Fe1       1.0  0.17389  0.42385  0.11399  1.0000
  S   S1        1.0  0.20458  0.41371  0.10543  1.0000
  S   S2        1.0  0.15474  0.40404  0.12849  1.0000
  Fe  Fe2       1.0  0.17730  0.46412  0.10436  1.0000
  S   S3        1.0  0.20826  0.45738  0.09602  1.0000
  Fe  Fe3       1.0  0.20252  0.43800  0.08097  1.0000
  S   S4        1.0  0.21705  0.44009  0.05068  1.0000
  Fe  Fe4       1.0  0.20713  0.43410  0.12121  1.0000
  S   S5        1.0  0.22247  0.42495  0.14517  1.0000
  S   S6        1.0  0.17151  0.44613  0.08821  1.0000
  S   S7        1.0  0.17644  0.44291  0.13094  1.0000
  Fe  Fe5       1.0  0.30434  0.44885  0.17211  1.0000
  H   H1        1.0  0.27221  0.46061  0.11752  1.0000
  N   N1        1.0  0.22889  0.39554  0.99504  1.0000
  H   H2        1.0  0.02103  0.40136  0.18765  1.0000
  H   H3        1.0  0.12035  0.44823  0.17796  1.0000
  Fe  Fe6       1.0  0.04447  0.42236  0.22922  1.0000
  H   H4        1.0  0.24028  0.46562  0.19857  1.0000
  C   C1        1.0  0.26603  0.45144  0.12967  1.0000
  H   H5        1.0  0.09970  0.41130  0.17784  1.0000
  S   S8        1.0  0.29352  0.43136  0.19938  1.0000
  C   C2        1.0  0.23912  0.38441  0.00979  1.0000
  H   H6        1.0  0.12381  0.44616  0.21039  1.0000
  H   H7        1.0  0.12114  0.41837  0.20027  1.0000
  S   S9        1.0  0.07811  0.44807  0.16569  1.0000
  H   H8        1.0  0.26132  0.46325  0.18124  1.0000
  H   H9        1.0  0.31799  0.40310  0.17909  1.0000
  C   C3        1.0  0.24214  0.43336  0.14494  1.0000
  C   C4        1.0  0.25005  0.42775  0.16088  1.0000
  C   C5        1.0  0.26586  0.43395  0.16125  1.0000
  C   C6        1.0  0.27390  0.44582  0.14563  1.0000
  C   C7        1.0  0.25012  0.44529  0.12933  1.0000
  H   H10       1.0  0.24391  0.41849  0.17298  1.0000
  H   H11       1.0  0.27184  0.42944  0.17356  1.0000
  H   H12       1.0  0.24412  0.44966  0.11699  1.0000
  C   C8        1.0  0.13337  0.41614  0.13871  1.0000
  C   C9        1.0  0.12354  0.40772  0.15571  1.0000
  C   C10       1.0  0.10692  0.41772  0.16450  1.0000
  C   C11       1.0  0.09959  0.43578  0.15578  1.0000
  C   C12       1.0  0.10927  0.44406  0.13865  1.0000
  C   C13       1.0  0.12634  0.43441  0.13031  1.0000
  H   H13       1.0  0.12905  0.39361  0.16224  1.0000
  H   H14       1.0  0.22146  0.47695  0.17410  1.0000
  H   H15       1.0  0.10368  0.45805  0.13188  1.0000
  H   H16       1.0  0.13392  0.44098  0.11721  1.0000
  C   C14       1.0  0.20363  0.44277  0.03384  1.0000
  C   C15       1.0  0.18579  0.43880  0.03885  1.0000
  C   C16       1.0  0.17575  0.44033  0.02505  1.0000
  C   C17       1.0  0.18354  0.44560  0.00613  1.0000
  C   C18       1.0  0.20122  0.44994  0.00113  1.0000
  C   C19       1.0  0.21121  0.44852  0.01494  1.0000
  H   H17       1.0  0.17988  0.43409  0.05332  1.0000
  H   H18       1.0  0.16207  0.43696  0.02907  1.0000
  H   H19       1.0  0.32292  0.41984  0.14589  1.0000
  H   H20       1.0  0.22491  0.45184  0.01096  1.0000
  H   H21       1.0  0.16852  0.42038  0.17238  1.0000
  H   H22       1.0  0.14193  0.40620  0.20855  1.0000
  C   C20       1.0  0.00196  0.41396  0.22714  1.0000
  H   H23       1.0  0.02275  0.43299  0.16784  1.0000
  C   C21       1.0  0.16441  0.42802  0.18402  1.0000
  C   C22       1.0  0.13914  0.44253  0.20558  1.0000
  H   H24       1.0  0.14454  0.45566  0.20149  1.0000
  H   H25       1.0  0.19000  0.48362  0.04068  1.0000
  H   H26       1.0  0.01441  0.43304  0.20403  1.0000
  H   H27       1.0  0.20256  0.38873  0.01005  1.0000
  C   C23       1.0  0.13658  0.41535  0.19618  1.0000
  H   H28       1.0  0.23799  0.39253  0.02055  1.0000
  H   H29       1.0  0.04441  0.43729  0.15279  1.0000
  H   H30       1.0  0.15426  0.48085  0.14033  1.0000
  H   H31       1.0  0.02476  0.40639  0.15345  1.0000
  S   S10       1.0  0.30320  0.47342  0.18401  1.0000
  H   H32       1.0  0.04186  0.43393  0.17737  1.0000
  S   S11       1.0  0.27256  0.46685  0.23373  1.0000
  H   H33       1.0  0.26789  0.48954  0.15559  1.0000
  H   H34       1.0  0.14086  0.45807  0.16928  1.0000
  S   S12       1.0  0.07383  0.41254  0.21488  1.0000
  Fe  Fe7       1.0  0.29467  0.45494  0.21156  1.0000
  N   N2        1.0  0.04500  0.40890  0.16761  1.0000
  C   C24       1.0  0.06539  0.40459  0.16577  1.0000
  C   C25       1.0  0.04008  0.40322  0.15248  1.0000
  C   C26       1.0  0.03643  0.39868  0.18584  1.0000
  H   H35       1.0  0.07235  0.41249  0.15242  1.0000
  H   H36       1.0  0.06941  0.40850  0.17717  1.0000
  H   H37       1.0  0.07124  0.38949  0.16631  1.0000
  H   H38       1.0  0.04501  0.38799  0.15305  1.0000
  C   C27       1.0  0.31421  0.39198  0.17454  1.0000
  H   H39       1.0  0.03959  0.40285  0.19761  1.0000
  H   H40       1.0  0.14047  0.40722  0.18498  1.0000
  C   C28       1.0  0.13579  0.44475  0.17416  1.0000
  C   C29       1.0  0.23272  0.48413  0.16521  1.0000
  S   S13       1.0  0.08078  0.45386  0.21467  1.0000
  H   H41       1.0  0.23599  0.42096  0.99606  1.0000
  S   S14       1.0  0.04049  0.44989  0.20956  1.0000
  N   N3        1.0  0.14399  0.43267  0.18999  1.0000
  C   C30       1.0  0.31931  0.40798  0.14233  1.0000
  H   H42       1.0  0.13949  0.43783  0.16206  1.0000
  H   H43       1.0  0.14489  0.43370  0.21786  1.0000
  H   H44       1.0  0.13807  0.48057  0.99643  1.0000
  S   S15       1.0  0.29379  0.45380  0.14558  1.0000
  H   H45       1.0  0.23358  0.37160  0.01705  1.0000
  H   H46       1.0  0.04156  0.38337  0.18744  1.0000
  S   S16       1.0  0.02159  0.40589  0.23772  1.0000
  H   H47       1.0  0.17050  0.44077  0.17894  1.0000
  H   H48       1.0  0.22356  0.48341  0.03450  1.0000
  Fe  Fe8       1.0  0.07034  0.44109  0.19681  1.0000
  C   C31       1.0  0.03813  0.42915  0.16634  1.0000
  C   C32       1.0  0.20906  0.40106  0.00342  1.0000
  S   S17       1.0  0.32370  0.44328  0.21653  1.0000
  H   H49       1.0  0.17113  0.41904  0.19562  1.0000
  H   H50       1.0  0.04643  0.41062  0.13855  1.0000
  C   C33       1.0  0.00223  0.42726  0.21048  1.0000
  H   H51       1.0  0.32663  0.40728  0.12778  1.0000
  H   H52       1.0  0.20724  0.40910  0.01438  1.0000
  Fe  Fe9       1.0  0.32347  0.42103  0.20197  1.0000
  C   C34       1.0  0.25106  0.47316  0.18920  1.0000
  H   H53       1.0  0.31759  0.37886  0.18489  1.0000
  H   H54       1.0  0.24219  0.47444  0.15650  1.0000
  H   H55       1.0  0.29890  0.39545  0.17542  1.0000
  H   H56       1.0  0.25845  0.47704  0.19819  1.0000
  C   C35       1.0  0.18817  0.49072  0.05237  1.0000
  Fe  Fe10      1.0  0.05103  0.45978  0.22941  1.0000
  C   C36       1.0  0.25079  0.44197  0.23612  1.0000
  H   H57       1.0  0.30411  0.41165  0.14248  1.0000
  H   H58       1.0  0.30422  0.37768  0.15047  1.0000
  H   H59       1.0  0.16696  0.48658  0.99992  1.0000
  H   H60       1.0  0.25933  0.43897  0.22317  1.0000
  C   C37       1.0  0.31940  0.37502  0.15017  1.0000
  H   H61       1.0  0.00499  0.44987  0.23498  1.0000
  H   H62       1.0  0.18926  0.47967  0.06515  1.0000
  H   H63       1.0  0.32308  0.36148  0.15983  1.0000
  H   H64       1.0  0.25416  0.38006  0.00397  1.0000
  Fe  Fe11      1.0  0.08227  0.42599  0.23402  1.0000
  H   H65       1.0  0.22287  0.47954  0.05892  1.0000
  H   H66       1.0  0.20095  0.40998  0.99280  1.0000
  N   N4        1.0  0.24280  0.48978  0.17655  1.0000
  N   N5        1.0  0.32439  0.39030  0.15550  1.0000
  S   S18       1.0  0.17095  0.44625  0.98918  1.0000
  S   S19       1.0  0.03546  0.48655  0.23800  1.0000
  H   H67       1.0  0.32679  0.37339  0.13584  1.0000
  C   C38       1.0  0.22095  0.49061  0.04629  1.0000
  C   C39       1.0  0.31074  0.41212  0.26469  1.0000
  H   H68       1.0  0.15348  0.35930  0.34668  1.0000
  H   H69       1.0  0.18221  0.00719  0.46283  1.0000
  H   H70       1.0  0.01709  0.16527  0.43572  1.0000
  H   H71       1.0  0.04143  0.15900  0.45431  1.0000
  C   C40       1.0  0.22225  0.12981  0.47483  1.0000
  H   H72       1.0  0.05539  0.12750  0.42064  1.0000
  S   S20       1.0  0.20693  0.26594  0.42383  1.0000
  S   S21       1.0  0.23962  0.15867  0.47066  1.0000
  S   S22       1.0  0.27981  0.22965  0.45630  1.0000
  H   H73       1.0  0.28835  0.42487  0.24003  1.0000
  H   H74       1.0  0.11715  0.12344  0.40466  1.0000
  S   S23       1.0  0.20496  0.04899  0.45621  1.0000
  S   S24       1.0  0.16258  0.07701  0.43602  1.0000
  H   H75       1.0  0.28041  0.42071  0.29108  1.0000
  C   C41       1.0  0.12834  0.12630  0.44448  1.0000
  H   H76       1.0  0.13581  0.37423  0.32159  1.0000
  C   C42       1.0  0.05044  0.17386  0.41799  1.0000
  H   H77       1.0  0.07126  0.25833  0.48752  1.0000
  C   C43       1.0  0.19534  0.21510  0.44213  1.0000
  H   H78       1.0  0.11979  0.09001  0.48096  1.0000
  H   H79       1.0  0.20473  0.10602  0.44470  1.0000
  Fe  Fe12      1.0  0.17299  0.46431  0.31879  1.0000
  S   S25       1.0  0.18306  0.27617  0.47200  1.0000
  S   S26       1.0  0.07030  0.19227  0.44827  1.0000
  S   S27       1.0  0.15389  0.44804  0.34094  1.0000
  H   H80       1.0  0.20312  0.37503  0.47149  1.0000
  Fe  Fe13      1.0  0.06003  0.17918  0.47789  1.0000
  S   S28       1.0  0.23679  0.07856  0.46180  1.0000
  Fe  Fe14      1.0  0.08790  0.20431  0.46014  1.0000
  S   S29       1.0  0.09048  0.23426  0.44977  1.0000
  S   S30       1.0  0.16655  0.45561  0.29525  1.0000
  N   N6        1.0  0.29197  0.40850  0.26691  1.0000
  C   C44       1.0  0.17623  0.20560  0.47220  1.0000
  C   C45       1.0  0.29116  0.38936  0.27760  1.0000
  H   H81       1.0  0.27855  0.43664  0.26924  1.0000
  Fe  Fe15      1.0  0.17885  0.42450  0.34140  1.0000
  S   S31       1.0  0.17284  0.41283  0.31964  1.0000
  S   S32       1.0  0.18938  0.40492  0.36635  1.0000
  Fe  Fe16      1.0  0.19040  0.43178  0.29930  1.0000
  S   S33       1.0  0.20952  0.42156  0.27456  1.0000
  Fe  Fe17      1.0  0.14950  0.43766  0.31736  1.0000
  S   S34       1.0  0.12053  0.43718  0.31506  1.0000
  S   S35       1.0  0.19845  0.44173  0.32103  1.0000
  H   H82       1.0  0.13622  0.40918  0.34820  1.0000
  Fe  Fe18      1.0  0.15948  0.32165  0.44278  1.0000
  S   S36       1.0  0.14458  0.34862  0.42695  1.0000
  S   S37       1.0  0.15731  0.29342  0.44000  1.0000
  C   C46       1.0  0.17661  0.38906  0.38237  1.0000
  C   C47       1.0  0.15721  0.39317  0.38673  1.0000
  C   C48       1.0  0.14752  0.38065  0.40043  1.0000
  C   C49       1.0  0.15717  0.36385  0.40962  1.0000
  C   C50       1.0  0.17655  0.35968  0.40507  1.0000
  C   C51       1.0  0.18623  0.37235  0.39168  1.0000
  H   H83       1.0  0.14975  0.40627  0.37999  1.0000
  H   H84       1.0  0.13252  0.38405  0.40406  1.0000
  H   H85       1.0  0.18413  0.34670  0.41180  1.0000
  H   H86       1.0  0.20125  0.36912  0.38836  1.0000
  S   S38       1.0  0.10213  0.15149  0.42599  1.0000
  H   H87       1.0  0.08813  0.44135  0.30011  1.0000
  H   H88       1.0  0.02279  0.14176  0.43264  1.0000
  H   H89       1.0  0.20220  0.22634  0.43251  1.0000
  S   S39       1.0  0.11233  0.18061  0.45788  1.0000
  C   C52       1.0  0.23694  0.43175  0.24551  1.0000
  C   C53       1.0  0.22572  0.43549  0.26237  1.0000
  C   C54       1.0  0.22803  0.44982  0.26957  1.0000
  C   C55       1.0  0.24204  0.45988  0.26028  1.0000
  H   H90       1.0  0.00692  0.20887  0.43404  1.0000
  C   C56       1.0  0.25369  0.45569  0.24375  1.0000
  H   H91       1.0  0.21925  0.45292  0.28246  1.0000
  H   H92       1.0  0.24411  0.47063  0.26614  1.0000
  C   C57       1.0  0.10505  0.24212  0.45951  1.0000
  C   C58       1.0  0.00203  0.44988  0.25009  1.0000
  C   C59       1.0  0.01740  0.19471  0.45908  1.0000
  C   C60       1.0  0.99885  0.17395  0.48113  1.0000
  C   C61       1.0  0.11676  0.26801  0.46266  1.0000
  C   C62       1.0  0.10669  0.26083  0.45390  1.0000
  C   C63       1.0  0.11636  0.37155  0.35685  1.0000
  H   H93       1.0  0.11751  0.28260  0.45858  1.0000
  H   H94       1.0  0.09980  0.26992  0.44302  1.0000
  C   C64       1.0  0.12403  0.23763  0.48241  1.0000
  H   H95       1.0  0.29818  0.40067  0.24035  1.0000
  C   C65       1.0  0.24886  0.25676  0.45125  1.0000
  H   H96       1.0  0.19490  0.35408  0.48372  1.0000
  H   H97       1.0  0.31459  0.41020  0.27840  1.0000
  H   H98       1.0  0.18906  0.48282  0.34521  1.0000
  H   H99       1.0  0.02930  0.20126  0.45518  1.0000
  H   H100      1.0  0.21679  0.36063  0.44385  1.0000
  C   C66       1.0  0.19839  0.22471  0.46902  1.0000
  H   H101      1.0  0.16367  0.24284  0.46883  1.0000
  H   H102      1.0  0.32150  0.40264  0.25654  1.0000
  Fe  Fe19      1.0  0.17592  0.06583  0.46100  1.0000
  H   H103      1.0  0.14817  0.36830  0.36752  1.0000
  H   H104      1.0  0.20817  0.33991  0.45610  1.0000
  C   C67       1.0  0.14882  0.37232  0.35220  1.0000
  C   C68       1.0  0.13193  0.38711  0.32731  1.0000
  C   C69       1.0  0.14607  0.09799  0.43400  1.0000
  C   C70       1.0  0.13725  0.10317  0.41877  1.0000
  C   C71       1.0  0.12395  0.11967  0.41645  1.0000
  C   C72       1.0  0.11935  0.13122  0.42930  1.0000
  H   H105      1.0  0.20504  0.23639  0.46021  1.0000
  C   C73       1.0  0.14172  0.10963  0.44685  1.0000
  C   C74       1.0  0.25465  0.12523  0.45965  1.0000
  N   N7        1.0  0.04620  0.15513  0.42623  1.0000
  C   C75       1.0  0.25485  0.23180  0.43471  1.0000
  H   H106      1.0  0.14865  0.10583  0.45851  1.0000
  H   H107      1.0  0.17498  0.34204  0.47049  1.0000
  C   C76       1.0  0.17085  0.23768  0.45591  1.0000
  C   C77       1.0  0.27806  0.42203  0.27685  1.0000
  H   H108      1.0  0.22398  0.27757  0.44792  1.0000
  C   C78       1.0  0.04990  0.14911  0.44535  1.0000
  H   H109      1.0  0.17697  0.24920  0.44599  1.0000
  C   C79       1.0  0.23257  0.26483  0.44420  1.0000
  S   S40       1.0  0.08203  0.15316  0.47758  1.0000
  C   C80       1.0  0.20453  0.35398  0.44723  1.0000
  S   S41       1.0  0.15207  0.31497  0.47422  1.0000
  C   C81       1.0  0.11262  0.42218  0.26297  1.0000
  C   C82       1.0  0.09742  0.43056  0.27489  1.0000
  C   C83       1.0  0.10002  0.43524  0.29075  1.0000
  C   C84       1.0  0.11786  0.43195  0.29458  1.0000
  C   C85       1.0  0.13314  0.42405  0.28239  1.0000
  C   C86       1.0  0.13049  0.41901  0.26674  1.0000
  H   H110      1.0  0.08359  0.43305  0.27213  1.0000
  H   H111      1.0  0.20973  0.21239  0.47173  1.0000
  H   H112      1.0  0.14697  0.42149  0.28517  1.0000
  H   H113      1.0  0.14233  0.41253  0.25759  1.0000
  C   C87       1.0  0.18331  0.38376  0.44435  1.0000
  H   H114      1.0  0.16900  0.35365  0.44831  1.0000
  H   H115      1.0  0.01293  0.45577  0.25274  1.0000
  H   H116      1.0  0.26749  0.13027  0.45434  1.0000
  C   C88       1.0  0.22149  0.11191  0.47333  1.0000
  C   C89       1.0  0.05808  0.14183  0.41477  1.0000
  S   S42       1.0  0.10972  0.41505  0.24359  1.0000
  H   H117      1.0  0.15909  0.36407  0.46822  1.0000
  H   H118      1.0  0.11328  0.48114  0.26833  1.0000
  H   H119      1.0  0.31160  0.42665  0.25711  1.0000
  H   H120      1.0  0.30145  0.37886  0.27036  1.0000
  H   H121      1.0  0.25278  0.26340  0.46031  1.0000
  Fe  Fe20      1.0  0.09370  0.16737  0.44894  1.0000
  C   C90       1.0  0.12460  0.48215  0.27474  1.0000
  C   C91       1.0  0.12499  0.25655  0.47726  1.0000
  H   H122      1.0  0.12502  0.13538  0.45429  1.0000
  C   C92       1.0  0.25990  0.24008  0.44672  1.0000
  H   H123      1.0  0.11293  0.21590  0.47786  1.0000
  N   N8        1.0  0.18521  0.22075  0.45981  1.0000
  Fe  Fe21      1.0  0.18758  0.28555  0.44109  1.0000
  C   C93       1.0  0.23727  0.10074  0.46475  1.0000
  S   S43       1.0  0.28213  0.18220  0.44074  1.0000
  H   H124      1.0  0.23518  0.23377  0.41779  1.0000
  H   H125      1.0  0.14061  0.09428  0.40877  1.0000
  C   C94       1.0  0.11409  0.23038  0.47350  1.0000
  N   N9        1.0  0.20861  0.10666  0.41555  1.0000
  C   C95       1.0  0.19702  0.11155  0.43307  1.0000
  C   C96       1.0  0.21400  0.08618  0.41794  1.0000
  C   C97       1.0  0.22551  0.11462  0.41082  1.0000
  C   C98       1.0  0.19786  0.11419  0.40052  1.0000
  H   H126      1.0  0.18416  0.10572  0.43707  1.0000
  H   H127      1.0  0.22211  0.08000  0.42922  1.0000
  H   H128      1.0  0.20158  0.07967  0.42164  1.0000
  H   H129      1.0  0.22275  0.08193  0.40499  1.0000
  H   H130      1.0  0.22199  0.13005  0.40905  1.0000
  H   H131      1.0  0.23466  0.11118  0.39768  1.0000
  H   H132      1.0  0.23381  0.10907  0.42204  1.0000
  H   H133      1.0  0.20612  0.11073  0.38705  1.0000
  H   H134      1.0  0.19342  0.12961  0.39839  1.0000
  H   H135      1.0  0.18503  0.10831  0.40387  1.0000
  C   C99       1.0  0.25382  0.10745  0.45794  1.0000
  H   H136      1.0  0.14247  0.39577  0.31994  1.0000
  C   C100      1.0  0.22763  0.25655  0.43211  1.0000
  C   C101      1.0  0.00464  0.19914  0.44721  1.0000
  N   N10       1.0  0.13069  0.38286  0.34771  1.0000
  S   S44       1.0  0.29430  0.14472  0.47192  1.0000
  Fe  Fe22      1.0  0.09860  0.16851  0.48667  1.0000
  H   H137      1.0  0.16011  0.23509  0.44974  1.0000
  H   H138      1.0  0.16619  0.20224  0.46566  1.0000
  H   H139      1.0  0.11219  0.40900  0.35089  1.0000
  Fe  Fe23      1.0  0.28628  0.19851  0.45968  1.0000
  H   H140      1.0  0.10249  0.37911  0.35380  1.0000
  H   H141      1.0  0.19269  0.12690  0.43184  1.0000
  H   H142      1.0  0.16831  0.20957  0.48559  1.0000
  H   H143      1.0  0.26351  0.21924  0.43076  1.0000
  C   C102      1.0  0.12554  0.40044  0.35453  1.0000
  H   H144      1.0  0.15986  0.38068  0.34623  1.0000
  H   H145      1.0  0.17892  0.37606  0.48194  1.0000
  H   H146      1.0  0.11979  0.35818  0.35202  1.0000
  H   H147      1.0  0.13808  0.47706  0.26586  1.0000
  H   H148      1.0  0.19128  0.22880  0.48254  1.0000
  H   H149      1.0  0.29419  0.38728  0.29171  1.0000
  C   C103      1.0  0.01464  0.18191  0.47597  1.0000
  C   C104      1.0  0.19135  0.36780  0.47421  1.0000
  H   H150      1.0  0.12401  0.39779  0.36991  1.0000
  N   N11       1.0  0.18781  0.36539  0.45672  1.0000
  S   S45       1.0  0.19032  0.31422  0.44130  1.0000
  H   H151      1.0  0.18041  0.38231  0.43111  1.0000
  Fe  Fe24      1.0  0.18281  0.30557  0.47244  1.0000
  H   H152      1.0  0.26608  0.09887  0.45130  1.0000
  C   C105      1.0  0.02644  0.15571  0.42682  1.0000
  C   C106      1.0  0.23887  0.24013  0.42725  1.0000
  C   C107      1.0  0.23884  0.13649  0.46801  1.0000
  H   H153      1.0  0.11849  0.39515  0.32345  1.0000
  H   H154      1.0  0.11506  0.36807  0.37228  1.0000
  H   H155      1.0  0.19498  0.39131  0.44055  1.0000
  Fe  Fe25      1.0  0.15290  0.28609  0.47114  1.0000
  C   C108      1.0  0.17202  0.35588  0.46112  1.0000
  H   H156      1.0  0.07310  0.14114  0.41399  1.0000
  H   H157      1.0  0.21001  0.13840  0.48149  1.0000
  S   S46       1.0  0.05317  0.43284  0.25034  1.0000
  H   H158      1.0  0.27714  0.38625  0.27946  1.0000
  H   H159      1.0  0.17077  0.39274  0.45108  1.0000
  H   H160      1.0  0.12369  0.47229  0.28848  1.0000
  S   S47       1.0  0.16614  0.04563  0.48688  1.0000
  H   H161      1.0  0.26365  0.42007  0.27824  1.0000
  H   H162      1.0  0.00359  0.43508  0.25769  1.0000
  C   C109      1.0  0.18349  0.99261  0.46950  1.0000
  Fe  Fe26      1.0  0.21068  0.06683  0.47282  1.0000
  S   S48       1.0  0.27007  0.18305  0.48511  1.0000
  H   H163      1.0  0.06529  0.17387  0.41729  1.0000
  H   H164      1.0  0.06473  0.14831  0.44539  1.0000
  H   H165      1.0  0.04773  0.17892  0.40359  1.0000
  H   H166      1.0  0.10685  0.11347  0.47994  1.0000
  Fe  Fe27      1.0  0.26812  0.16509  0.46665  1.0000
  H   H167      1.0  0.18582  0.21208  0.43474  1.0000
  C   C110      1.0  0.28791  0.41054  0.24836  1.0000
  S   S49       1.0  0.18215  0.08471  0.47593  1.0000
  H   H168      1.0  0.05565  0.14595  0.40025  1.0000
  H   H169      1.0  0.20641  0.20242  0.44452  1.0000
  H   H170      1.0  0.20239  0.35194  0.43392  1.0000
  H   H171      1.0  0.20873  0.10680  0.47884  1.0000
  H   H172      1.0  0.04183  0.18426  0.42633  1.0000
  H   H173      1.0  0.29822  0.23527  0.48440  1.0000
  H   H174      1.0  0.04659  0.13516  0.45214  1.0000
  Fe  Fe28      1.0  0.30881  0.16331  0.44720  1.0000
  H   H175      1.0  0.02294  0.16074  0.41272  1.0000
  S   S50       1.0  0.31407  0.18105  0.46440  1.0000
  H   H176      1.0  0.18668  0.19261  0.47554  1.0000
  Fe  Fe29      1.0  0.19584  0.03047  0.48352  1.0000
  H   H177      1.0  0.23499  0.42083  0.23980  1.0000
  H   H178      1.0  0.27389  0.40784  0.24942  1.0000
  H   H179      1.0  0.26494  0.24853  0.48869  1.0000
  Fe  Fe30      1.0  0.29733  0.16415  0.48856  1.0000
  N   N12       1.0  0.11357  0.09958  0.50665  1.0000
  S   S51       1.0  0.15879  0.06879  0.52873  1.0000
  H   H180      1.0  0.23043  0.07941  0.64015  1.0000
  Fe  Fe31      1.0  0.19195  0.11484  0.58504  1.0000
  S   S52       1.0  0.21753  0.10607  0.59740  1.0000
  S   S53       1.0  0.19438  0.12251  0.55404  1.0000
  Fe  Fe32      1.0  0.16596  0.11127  0.62254  1.0000
  S   S54       1.0  0.18914  0.10190  0.63828  1.0000
  S   S55       1.0  0.13642  0.11206  0.63762  1.0000
  Fe  Fe33      1.0  0.20156  0.12458  0.61730  1.0000
  S   S56       1.0  0.21177  0.14579  0.62614  1.0000
  Fe  Fe34      1.0  0.20285  0.08414  0.61709  1.0000
  S   S57       1.0  0.21869  0.05457  0.62368  1.0000
  S   S58       1.0  0.17719  0.13534  0.60309  1.0000
  S   S59       1.0  0.17857  0.09150  0.60314  1.0000
  H   H181      1.0  0.16176  0.32782  0.50398  1.0000
  S   S60       1.0  0.11631  0.15475  0.50781  1.0000
  H   H182      1.0  0.09554  0.09431  0.49154  1.0000
  Fe  Fe35      1.0  0.08437  0.21089  0.61014  1.0000
  S   S61       1.0  0.06473  0.23872  0.60863  1.0000
  S   S62       1.0  0.08020  0.18932  0.63640  1.0000
  Fe  Fe36      1.0  0.10405  0.22024  0.57020  1.0000
  S   S63       1.0  0.08587  0.24838  0.56541  1.0000
  S   S64       1.0  0.12797  0.21330  0.54715  1.0000
  Fe  Fe37      1.0  0.09023  0.25006  0.59302  1.0000
  S   S65       1.0  0.09777  0.27708  0.59255  1.0000
  Fe  Fe38      1.0  0.06234  0.23418  0.58128  1.0000
  S   S66       1.0  0.03574  0.24220  0.57014  1.0000
  S   S67       1.0  0.11006  0.22262  0.59687  1.0000
  S   S68       1.0  0.08031  0.20558  0.58372  1.0000
  H   H183      1.0  0.05048  0.24888  0.49606  1.0000
  S   S69       1.0  0.30068  0.15395  0.51857  1.0000
  H   H184      1.0  0.13508  0.10702  0.51550  1.0000
  H   H185      1.0  0.28863  0.23303  0.69353  1.0000
  C   C111      1.0  0.29928  0.16856  0.54839  1.0000
  C   C112      1.0  0.12808  0.39246  0.71647  1.0000
  H   H186      1.0  0.17102  0.03560  0.55977  1.0000
  H   H187      1.0  0.27377  0.20252  0.52125  1.0000
  H   H188      1.0  0.21451  0.23159  0.65440  1.0000
  S   S70       1.0  0.21604  0.46961  0.70119  1.0000
  S   S71       1.0  0.21499  0.37835  0.69485  1.0000
  Fe  Fe39      1.0  0.17207  0.30196  0.62400  1.0000
  S   S72       1.0  0.18986  0.30183  0.59563  1.0000
  S   S73       1.0  0.15943  0.27646  0.63612  1.0000
  Fe  Fe40      1.0  0.17833  0.34004  0.62523  1.0000
  S   S74       1.0  0.19595  0.34293  0.59638  1.0000
  S   S75       1.0  0.17167  0.36492  0.63911  1.0000
  Fe  Fe41      1.0  0.17503  0.33142  0.58870  1.0000
  S   S76       1.0  0.16173  0.34199  0.56342  1.0000
  Fe  Fe42      1.0  0.20899  0.31303  0.60616  1.0000
  S   S77       1.0  0.24004  0.30349  0.59913  1.0000
  S   S78       1.0  0.15606  0.33113  0.61669  1.0000
  S   S79       1.0  0.19259  0.31061  0.63546  1.0000
  Fe  Fe43      1.0  0.30438  0.16447  0.62140  1.0000
  S   S80       1.0  0.28977  0.19104  0.60568  1.0000
  S   S81       1.0  0.29748  0.13695  0.62249  1.0000
  Fe  Fe44      1.0  0.29277  0.20423  0.62779  1.0000
  S   S82       1.0  0.26956  0.22286  0.64349  1.0000
  S   S83       1.0  0.30443  0.17702  0.64504  1.0000
  C   C113      1.0  0.24820  0.28101  0.61137  1.0000
  C   C114      1.0  0.23875  0.27418  0.62921  1.0000
  C   C115      1.0  0.24561  0.25642  0.63904  1.0000
  C   C116      1.0  0.26167  0.24520  0.63090  1.0000
  C   C117      1.0  0.27109  0.25193  0.61301  1.0000
  C   C118      1.0  0.26448  0.26993  0.60335  1.0000
  H   H189      1.0  0.22637  0.28271  0.63561  1.0000
  H   H190      1.0  0.23841  0.25136  0.65297  1.0000
  H   H191      1.0  0.28352  0.24335  0.60664  1.0000
  H   H192      1.0  0.27186  0.27519  0.58957  1.0000
  C   C119      1.0  0.20270  0.37490  0.67941  1.0000
  C   C120      1.0  0.20508  0.35690  0.67622  1.0000
  C   C121      1.0  0.19550  0.35355  0.66408  1.0000
  C   C122      1.0  0.18367  0.36826  0.65483  1.0000
  C   C123      1.0  0.18130  0.38626  0.65800  1.0000
  C   C124      1.0  0.19085  0.38960  0.67016  1.0000
  C   C125      1.0  0.23255  0.07513  0.68539  1.0000
  H   H193      1.0  0.19715  0.33959  0.66198  1.0000
  H   H194      1.0  0.17225  0.39774  0.65079  1.0000
  H   H195      1.0  0.29749  0.20592  0.66772  1.0000
  C   C126      1.0  0.18871  0.31786  0.51134  1.0000
  C   C127      1.0  0.16988  0.32631  0.51430  1.0000
  C   C128      1.0  0.16168  0.33352  0.53045  1.0000
  C   C129      1.0  0.17212  0.33187  0.54390  1.0000
  C   C130      1.0  0.19077  0.32287  0.54121  1.0000
  C   C131      1.0  0.19910  0.31610  0.52484  1.0000
  S   S84       1.0  0.03076  0.17532  0.49078  1.0000
  H   H196      1.0  0.14725  0.34055  0.53250  1.0000
  H   H197      1.0  0.19892  0.32167  0.55148  1.0000
  H   H198      1.0  0.21369  0.30964  0.52257  1.0000
  H   H199      1.0  0.27308  0.12480  0.53236  1.0000
  H   H200      1.0  0.26015  0.22556  0.49538  1.0000
  H   H201      1.0  0.30492  0.20096  0.68949  1.0000
  H   H202      1.0  0.29954  0.17813  0.57266  1.0000
  C   C132      1.0  0.32529  0.19071  0.52961  1.0000
  C   C133      1.0  0.18736  0.00913  0.62645  1.0000
  H   H203      1.0  0.04503  0.22954  0.52864  1.0000
  H   H204      1.0  0.19490  0.25839  0.61289  1.0000
  C   C134      1.0  0.20672  0.00509  0.62424  1.0000
  C   C135      1.0  0.25398  0.08621  0.65769  1.0000
  H   H205      1.0  0.14875  0.16830  0.50669  1.0000
  H   H206      1.0  0.21797  0.07346  0.69163  1.0000
  C   C136      1.0  0.11506  0.27625  0.60473  1.0000
  C   C137      1.0  0.12084  0.26051  0.61794  1.0000
  C   C138      1.0  0.13442  0.26058  0.62765  1.0000
  C   C139      1.0  0.14256  0.27620  0.62384  1.0000
  C   C140      1.0  0.13714  0.29162  0.61022  1.0000
  C   C141      1.0  0.12323  0.29178  0.60097  1.0000
  H   H207      1.0  0.11447  0.24852  0.62107  1.0000
  H   H208      1.0  0.13840  0.24863  0.63826  1.0000
  H   H209      1.0  0.14337  0.30366  0.60699  1.0000
  H   H210      1.0  0.11870  0.30411  0.59100  1.0000
  H   H211      1.0  0.99666  0.16393  0.49409  1.0000
  C   C142      1.0  0.01214  0.19734  0.59613  1.0000
  C   C143      1.0  0.02481  0.20941  0.58994  1.0000
  C   C144      1.0  0.02048  0.22648  0.57781  1.0000
  H   H212      1.0  0.01551  0.18420  0.60563  1.0000
  H   H213      1.0  0.03782  0.20555  0.59471  1.0000
  H   H214      1.0  0.12586  0.39723  0.70187  1.0000
  C   C145      1.0  0.26001  0.13478  0.52977  1.0000
  H   H215      1.0  0.08515  0.10778  0.52015  1.0000
  H   H216      1.0  0.23819  0.05870  0.65618  1.0000
  C   C146      1.0  0.21472  0.47646  0.73567  1.0000
  C   C147      1.0  0.11921  0.17245  0.51707  1.0000
  C   C148      1.0  0.13692  0.17604  0.51478  1.0000
  C   C149      1.0  0.13938  0.18937  0.52331  1.0000
  C   C150      1.0  0.12424  0.19861  0.53463  1.0000
  C   C151      1.0  0.10647  0.19534  0.53652  1.0000
  C   C152      1.0  0.10388  0.18258  0.52737  1.0000
  C   C153      1.0  0.21169  0.00442  0.55243  1.0000
  H   H217      1.0  0.15314  0.19188  0.52186  1.0000
  H   H218      1.0  0.09475  0.20255  0.54514  1.0000
  H   H219      1.0  0.09016  0.17987  0.52904  1.0000
  C   C154      1.0  0.23573  0.14332  0.62430  1.0000
  C   C155      1.0  0.24210  0.15668  0.62949  1.0000
  C   C156      1.0  0.26109  0.15483  0.62879  1.0000
  C   C157      1.0  0.27375  0.13949  0.62307  1.0000
  C   C158      1.0  0.26743  0.12609  0.61786  1.0000
  C   C159      1.0  0.24841  0.12808  0.61833  1.0000
  H   H220      1.0  0.23231  0.16843  0.63421  1.0000
  H   H221      1.0  0.26587  0.16511  0.63302  1.0000
  H   H222      1.0  0.27723  0.11425  0.61337  1.0000
  H   H223      1.0  0.24357  0.11778  0.61423  1.0000
  C   C160      1.0  0.12168  0.13395  0.63831  1.0000
  C   C161      1.0  0.12794  0.15060  0.62989  1.0000
  C   C162      1.0  0.11531  0.16778  0.62922  1.0000
  C   C163      1.0  0.09651  0.16828  0.63727  1.0000
  C   C164      1.0  0.09044  0.15168  0.64622  1.0000
  C   C165      1.0  0.10294  0.13457  0.64657  1.0000
  H   H224      1.0  0.14244  0.15027  0.62387  1.0000
  H   H225      1.0  0.12011  0.18064  0.62265  1.0000
  H   H226      1.0  0.07595  0.15204  0.65263  1.0000
  H   H227      1.0  0.09803  0.12177  0.65317  1.0000
  C   C166      1.0  0.17760  0.02726  0.62770  1.0000
  C   C167      1.0  0.18711  0.04128  0.62674  1.0000
  N   N13       1.0  0.23944  0.35275  0.61707  1.0000
  H   H228      1.0  0.16262  0.03047  0.62954  1.0000
  H   H229      1.0  0.17939  0.05509  0.62809  1.0000
  H   H230      1.0  0.06711  0.21456  0.52240  1.0000
  H   H231      1.0  0.26404  0.14645  0.51831  1.0000
  H   H232      1.0  0.21438  0.99111  0.62351  1.0000
  C   C168      1.0  0.20647  0.03725  0.62460  1.0000
  C   C169      1.0  0.16856  0.08391  0.53556  1.0000
  C   C170      1.0  0.16122  0.08883  0.55287  1.0000
  C   C171      1.0  0.16913  0.10076  0.55850  1.0000
  C   C172      1.0  0.18420  0.10796  0.54679  1.0000
  C   C173      1.0  0.19129  0.10335  0.52929  1.0000
  C   C174      1.0  0.18362  0.09113  0.52379  1.0000
  H   H233      1.0  0.14957  0.08328  0.56200  1.0000
  H   H234      1.0  0.16330  0.10468  0.57176  1.0000
  H   H235      1.0  0.20293  0.10889  0.52013  1.0000
  H   H236      1.0  0.18949  0.08724  0.51049  1.0000
  N   N14       1.0  0.12496  0.14581  0.57736  1.0000
  C   C175      1.0  0.14122  0.14531  0.56183  1.0000
  C   C176      1.0  0.10827  0.14567  0.57075  1.0000
  C   C177      1.0  0.12199  0.16295  0.58451  1.0000
  C   C178      1.0  0.12833  0.12930  0.59238  1.0000
  H   H237      1.0  0.15430  0.14409  0.56662  1.0000
  H   H238      1.0  0.13972  0.15818  0.55091  1.0000
  H   H239      1.0  0.14305  0.13343  0.55502  1.0000
  H   H240      1.0  0.09582  0.14590  0.58226  1.0000
  H   H241      1.0  0.10517  0.15805  0.55962  1.0000
  H   H242      1.0  0.11010  0.13310  0.56497  1.0000
  H   H243      1.0  0.10965  0.16393  0.59608  1.0000
  H   H244      1.0  0.11964  0.17569  0.57347  1.0000
  H   H245      1.0  0.13424  0.16343  0.58983  1.0000
  H   H246      1.0  0.14075  0.12897  0.59783  1.0000
  H   H247      1.0  0.13069  0.11611  0.58750  1.0000
  H   H248      1.0  0.11636  0.12923  0.60439  1.0000
  C   C179      1.0  0.22355  0.36866  0.61837  1.0000
  C   C180      1.0  0.25512  0.35664  0.62275  1.0000
  C   C181      1.0  0.23394  0.33571  0.62952  1.0000
  H   H249      1.0  0.21941  0.37165  0.63264  1.0000
  H   H250      1.0  0.26733  0.34489  0.62199  1.0000
  H   H251      1.0  0.25962  0.36943  0.61366  1.0000
  H   H252      1.0  0.25121  0.35882  0.63735  1.0000
  H   H253      1.0  0.24529  0.32324  0.62825  1.0000
  H   H254      1.0  0.23021  0.33699  0.64435  1.0000
  N   N15       1.0  0.24722  0.12580  0.52489  1.0000
  C   C182      1.0  0.24205  0.11054  0.54047  1.0000
  C   C183      1.0  0.23033  0.13976  0.52123  1.0000
  C   C184      1.0  0.25646  0.11817  0.50804  1.0000
  H   H255      1.0  0.23494  0.11582  0.55341  1.0000
  H   H256      1.0  0.23224  0.10362  0.53725  1.0000
  H   H257      1.0  0.22060  0.13368  0.51686  1.0000
  H   H258      1.0  0.09390  0.25270  0.50794  1.0000
  H   H259      1.0  0.22260  0.14531  0.53387  1.0000
  H   H260      1.0  0.28653  0.21011  0.53392  1.0000
  H   H261      1.0  0.09024  0.23818  0.53070  1.0000
  C   C185      1.0  0.32558  0.22713  0.68028  1.0000
  C   C186      1.0  0.27505  0.21478  0.52606  1.0000
  C   C187      1.0  0.21535  0.48383  0.71665  1.0000
  C   C188      1.0  0.30512  0.17889  0.55801  1.0000
  H   H262      1.0  0.21913  0.25309  0.61410  1.0000
  H   H263      1.0  0.99831  0.17739  0.51976  1.0000
  H   H264      1.0  0.99953  0.19920  0.52387  1.0000
  H   H265      1.0  0.15556  0.26195  0.56238  1.0000
  C   C189      1.0  0.31677  0.12863  0.57626  1.0000
  S   S85       1.0  0.32051  0.21131  0.61310  1.0000
  C   C190      1.0  0.20498  0.25174  0.62229  1.0000
  N   N16       1.0  0.31094  0.22637  0.67091  1.0000
  C   C191      1.0  0.31630  0.23343  0.65066  1.0000
  H   H266      1.0  0.21831  0.00709  0.56280  1.0000
  N   N17       1.0  0.20375  0.23206  0.63055  1.0000
  C   C192      1.0  0.12165  0.27673  0.53687  1.0000
  H   H267      1.0  0.15131  0.28937  0.51462  1.0000
  H   H268      1.0  0.13255  0.30768  0.53803  1.0000
  H   H269      1.0  0.10947  0.27753  0.54865  1.0000
  H   H270      1.0  0.12332  0.26344  0.53230  1.0000
  H   H271      1.0  0.11825  0.28832  0.52505  1.0000
  N   N18       1.0  0.06778  0.24373  0.51618  1.0000
  H   H272      1.0  0.10270  0.07508  0.52152  1.0000
  H   H273      1.0  0.11921  0.08031  0.53180  1.0000
  H   H274      1.0  0.31150  0.11619  0.58525  1.0000
  H   H275      1.0  0.26923  0.10754  0.51026  1.0000
  C   C193      1.0  0.00353  0.23133  0.57179  1.0000
  S   S86       1.0  0.07561  0.19330  0.48990  1.0000
  H   H276      1.0  0.18846  0.01406  0.52847  1.0000
  H   H277      1.0  0.25441  0.09970  0.54363  1.0000
  C   C194      1.0  0.31946  0.18030  0.51995  1.0000
  H   H278      1.0  0.26205  0.21884  0.53607  1.0000
  H   H279      1.0  0.16776  0.01084  0.54556  1.0000
  H   H280      1.0  0.07266  0.23388  0.49080  1.0000
  Fe  Fe45      1.0  0.20870  0.44136  0.71396  1.0000
  H   H281      1.0  0.12211  0.40445  0.72358  1.0000
  H   H282      1.0  0.19206  0.03394  0.56739  1.0000
  H   H283      1.0  0.14819  0.35804  0.71407  1.0000
  H   H284      1.0  0.29412  0.21203  0.49176  1.0000
  H   H285      1.0  0.14529  0.24818  0.55304  1.0000
  N   N19       1.0  0.27863  0.23039  0.51024  1.0000
  H   H286      1.0  0.25833  0.09525  0.66464  1.0000
  H   H287      1.0  0.23117  0.01582  0.62192  1.0000
  H   H288      1.0  0.09558  0.22804  0.51076  1.0000
  C   C195      1.0  0.18315  0.00652  0.54274  1.0000
  H   H289      1.0  0.25353  0.14062  0.54249  1.0000
  H   H290      1.0  0.29436  0.25281  0.67588  1.0000
  C   C196      1.0  0.28142  0.24584  0.51716  1.0000
  H   H291      1.0  0.24710  0.11150  0.50379  1.0000
  H   H292      1.0  0.32201  0.22193  0.69560  1.0000
  H   H293      1.0  0.06235  0.22475  0.54243  1.0000
  H   H294      1.0  0.16863  0.00426  0.57949  1.0000
  H   H295      1.0  0.04266  0.26303  0.52431  1.0000
  S   S87       1.0  0.20455  0.04662  0.49982  1.0000
  C   C197      1.0  0.21622  0.01909  0.62344  1.0000
  C   C198      1.0  0.18634  0.03057  0.55674  1.0000
  H   H296      1.0  0.06297  0.27320  0.51484  1.0000
  H   H297      1.0  0.21460  0.07101  0.66065  1.0000
  H   H298      1.0  0.30532  0.23346  0.64325  1.0000
  H   H299      1.0  0.10210  0.11298  0.52998  1.0000
  C   C199      1.0  0.22922  0.07286  0.65523  1.0000
  H   H300      1.0  0.11993  0.38138  0.72351  1.0000
  H   H301      1.0  0.15297  0.41292  0.71451  1.0000
  H   H302      1.0  0.28423  0.25781  0.50553  1.0000
  C   C200      1.0  0.09869  0.11226  0.51674  1.0000
  H   H303      1.0  0.24960  0.24194  0.51038  1.0000
  H   H304      1.0  0.28914  0.16004  0.55576  1.0000
  C   C201      1.0  0.13121  0.10615  0.50254  1.0000
  H   H305      1.0  0.21767  0.01190  0.53837  1.0000
  H   H306      1.0  0.26368  0.07244  0.65926  1.0000
  Fe  Fe46      1.0  0.17567  0.42380  0.73436  1.0000
  H   H307      1.0  0.18928  0.40360  0.67213  1.0000
  H   H308      1.0  0.23369  0.34692  0.59299  1.0000
  Fe  Fe47      1.0  0.31858  0.19548  0.59223  1.0000
  H   H309      1.0  0.17057  0.36437  0.70754  1.0000
  H   H310      1.0  0.23174  0.22423  0.63529  1.0000
  H   H311      1.0  0.23641  0.08339  0.69353  1.0000
  H   H312      1.0  0.19006  0.00231  0.58645  1.0000
  H   H313      1.0  0.22171  0.33280  0.62603  1.0000
  H   H314      1.0  0.24156  0.06098  0.68736  1.0000
  C   C202      1.0  0.30866  0.20690  0.67435  1.0000
  C   C203      1.0  0.30663  0.16897  0.52943  1.0000
  H   H315      1.0  0.31858  0.24794  0.64752  1.0000
  H   H316      1.0  0.15414  0.37398  0.69250  1.0000
  H   H317      1.0  0.29343  0.24136  0.52439  1.0000
  C   C204      1.0  0.05789  0.26057  0.52360  1.0000
  H   H318      1.0  0.15666  0.40587  0.69280  1.0000
  H   H319      1.0  0.22690  0.38161  0.60858  1.0000
  C   C205      1.0  0.15426  0.27746  0.52631  1.0000
  C   C206      1.0  0.22224  0.10291  0.66354  1.0000
  H   H320      1.0  0.20745  0.10210  0.66970  1.0000
  H   H321      1.0  0.13136  0.26138  0.56993  1.0000
  H   H322      1.0  0.21109  0.36589  0.61511  1.0000
  C   C207      1.0  0.13550  0.29519  0.54917  1.0000
  N   N20       1.0  0.14801  0.38560  0.71702  1.0000
  H   H323      1.0  0.15692  0.26449  0.52089  1.0000
  S   S88       1.0  0.22898  0.41394  0.71710  1.0000
  H   H324      1.0  0.18668  0.99139  0.54240  1.0000
  N   N21       1.0  0.13862  0.27775  0.54248  1.0000
  H   H325      1.0  0.12346  0.29605  0.56105  1.0000
  C   C208      1.0  0.14297  0.26159  0.55758  1.0000
  S   S89       1.0  0.18865  0.43044  0.70404  1.0000
  H   H326      1.0  0.26896  0.25103  0.52725  1.0000
  N   N22       1.0  0.23450  0.08427  0.66548  1.0000
  H   H327      1.0  0.14288  0.09656  0.49552  1.0000
  Fe  Fe48      1.0  0.17544  0.06287  0.50139  1.0000
  H   H328      1.0  0.20163  0.26015  0.63323  1.0000
  C   C209      1.0  0.06023  0.22742  0.52788  1.0000
  H   H329      1.0  0.22621  0.11225  0.67043  1.0000
  Fe  Fe49      1.0  0.20745  0.40236  0.71012  1.0000
  H   H330      1.0  0.16727  0.27840  0.52998  1.0000
  H   H331      1.0  0.14781  0.29625  0.55407  1.0000
  C   C210      1.0  0.29318  0.23800  0.67829  1.0000
  H   H332      1.0  0.21421  0.34544  0.68336  1.0000
  H   H333      1.0  0.24948  0.36249  0.58782  1.0000
  C   C211      1.0  0.24518  0.34996  0.59768  1.0000
  H   H334      1.0  0.25698  0.33788  0.59625  1.0000
  H   H335      1.0  0.17424  0.23716  0.63230  1.0000
  H   H336      1.0  0.20717  0.20660  0.62132  1.0000
  C   C212      1.0  0.11566  0.08058  0.51831  1.0000
  H   H337      1.0  0.30927  0.14067  0.58290  1.0000
  H   H338      1.0  0.25595  0.09261  0.64256  1.0000
  H   H339      1.0  0.19175  0.03890  0.54294  1.0000
  C   C213      1.0  0.31827  0.18990  0.54873  1.0000
  C   C214      1.0  0.08774  0.24057  0.51638  1.0000
  C   C215      1.0  0.20803  0.22151  0.61556  1.0000
  H   H340      1.0  0.18090  0.23923  0.65257  1.0000
  H   H341      1.0  0.21663  0.20906  0.64957  1.0000
  H   H342      1.0  0.19809  0.22735  0.60591  1.0000
  C   C216      1.0  0.15817  0.40078  0.70759  1.0000
  H   H343      1.0  0.28189  0.23769  0.67141  1.0000
  H   H344      1.0  0.22288  0.10990  0.64865  1.0000
  C   C217      1.0  0.18475  0.23112  0.64133  1.0000
  H   H345      1.0  0.18324  0.21653  0.64790  1.0000
  H   H346      1.0  0.22229  0.22191  0.60717  1.0000
  C   C218      1.0  0.21723  0.22387  0.64301  1.0000
  C   C219      1.0  0.26259  0.23689  0.50084  1.0000
  H   H347      1.0  0.05986  0.25925  0.53798  1.0000
  H   H348      1.0  0.23374  0.15178  0.50996  1.0000
  N   N23       1.0  0.19127  0.01039  0.55684  1.0000
  C   C220      1.0  0.15552  0.36980  0.70739  1.0000
  H   H349      1.0  0.17328  0.39604  0.70768  1.0000
  C   C221      1.0  0.29550  0.22404  0.49689  1.0000
  H   H350      1.0  0.12703  0.07069  0.51127  1.0000
  H   H351      1.0  0.00016  0.24448  0.56232  1.0000
  C   C222      1.0  0.06538  0.24635  0.49684  1.0000
  S   S90       1.0  0.20374  0.99920  0.49215  1.0000
  S   S91       1.0  0.13550  0.26599  0.48991  1.0000
  H   H352      1.0  0.15907  0.46999  0.73532  1.0000
  H   H353      1.0  0.31267  0.13122  0.56256  1.0000
  H   H354      1.0  0.09675  0.12670  0.50835  1.0000
  H   H355      1.0  0.13028  0.12027  0.49335  1.0000
  H   H356      1.0  0.32167  0.19776  0.66860  1.0000
  S   S92       1.0  0.19996  0.31043  0.49042  1.0000
  H   H357      1.0  0.26062  0.12933  0.49607  1.0000
  H   H358      1.0  0.13047  0.22869  0.49368  1.0000
  C   C223      1.0  0.18397  0.99997  0.57549  1.0000
  S   S93       1.0  0.32614  0.20261  0.56072  1.0000
  C   C224      1.0  0.15033  0.37947  0.73661  1.0000
  H   H359      1.0  0.30800  0.21963  0.50330  1.0000
  S   S94       1.0  0.17501  0.99182  0.62776  1.0000
  H   H360      1.0  0.32534  0.18059  0.50534  1.0000
  C   C225      1.0  0.10871  0.09931  0.48901  1.0000
  H   H361      1.0  0.17663  0.48125  0.73685  1.0000
  H   H362      1.0  0.99504  0.22957  0.61422  1.0000
  H   H363      1.0  0.16520  0.37402  0.73751  1.0000
  C   C226      1.0  0.99501  0.20238  0.59045  1.0000
  Fe  Fe50      1.0  0.05537  0.41900  0.86209  1.0000
  S   S95       1.0  0.06994  0.42531  0.83221  1.0000
  S   S96       1.0  0.02738  0.41101  0.87324  1.0000
  Fe  Fe51      1.0  0.08277  0.43288  0.87641  1.0000
  S   S97       1.0  0.09962  0.44031  0.84789  1.0000
  S   S98       1.0  0.08864  0.44083  0.90085  1.0000
  Fe  Fe52      1.0  0.07247  0.45169  0.83861  1.0000
  C   C227      1.0  0.32555  0.38829  0.77024  1.0000
  Fe  Fe53      1.0  0.09599  0.41329  0.84390  1.0000
  S   S99       1.0  0.12139  0.39569  0.82979  1.0000
  S   S100      1.0  0.05573  0.44657  0.86748  1.0000
  S   S101      1.0  0.08127  0.40459  0.87348  1.0000
  S   S102      1.0  0.30957  0.43051  0.84234  1.0000
  S   S103      1.0  0.21285  0.44289  0.90954  1.0000
  S   S104      1.0  0.24974  0.41004  0.93638  1.0000
  Fe  Fe54      1.0  0.29857  0.43487  0.79382  1.0000
  S   S105      1.0  0.29104  0.43889  0.76609  1.0000
  Fe  Fe55      1.0  0.28990  0.41729  0.83479  1.0000
  S   S106      1.0  0.27061  0.39931  0.85357  1.0000
  Fe  Fe56      1.0  0.29828  0.45625  0.82273  1.0000
  H   H364      1.0  0.22902  0.42130  0.97499  1.0000
  S   S107      1.0  0.27690  0.44360  0.81749  1.0000
  S   S108      1.0  0.30987  0.40730  0.81050  1.0000
  Fe  Fe57      1.0  0.18599  0.44533  0.95954  1.0000
  H   H365      1.0  0.26143  0.46181  0.85752  1.0000
  H   H366      1.0  0.24365  0.46165  0.90805  1.0000
  S   S109      1.0  0.19395  0.43688  0.74366  1.0000
  C   C228      1.0  0.25632  0.45695  0.87269  1.0000
  C   C229      1.0  0.28151  0.48924  0.77437  1.0000
  H   H367      1.0  0.18837  0.46890  0.86681  1.0000
  S   S110      1.0  0.22471  0.39954  0.77251  1.0000
  C   C230      1.0  0.99622  0.46285  0.86167  1.0000
  H   H368      1.0  0.25010  0.48175  0.79772  1.0000
  C   C231      1.0  0.27225  0.42837  0.76821  1.0000
  C   C232      1.0  0.26682  0.41552  0.78438  1.0000
  C   C233      1.0  0.25219  0.40672  0.78567  1.0000
  C   C234      1.0  0.24276  0.41095  0.77091  1.0000
  C   C235      1.0  0.26271  0.43276  0.75356  1.0000
  H   H369      1.0  0.15757  0.45360  0.76825  1.0000
  H   H370      1.0  0.27403  0.41211  0.79582  1.0000
  H   H371      1.0  0.24833  0.39649  0.79802  1.0000
  H   H372      1.0  0.13221  0.47871  0.81480  1.0000
  H   H373      1.0  0.15352  0.46658  0.78614  1.0000
  C   C236      1.0  0.25663  0.40427  0.91436  1.0000
  C   C237      1.0  0.27477  0.40455  0.90421  1.0000
  C   C238      1.0  0.27927  0.40301  0.88544  1.0000
  C   C239      1.0  0.26578  0.40056  0.87710  1.0000
  C   C240      1.0  0.24795  0.39944  0.88754  1.0000
  C   C241      1.0  0.24331  0.40155  0.90604  1.0000
  H   H374      1.0  0.28510  0.40668  0.91062  1.0000
  H   H375      1.0  0.29315  0.40357  0.87747  1.0000
  H   H376      1.0  0.23753  0.39745  0.88114  1.0000
  H   H377      1.0  0.22931  0.40123  0.91383  1.0000
  C   C242      1.0  0.12776  0.40593  0.80623  1.0000
  C   C243      1.0  0.11748  0.42295  0.79840  1.0000
  C   C244      1.0  0.12271  0.43089  0.77948  1.0000
  C   C245      1.0  0.13854  0.42212  0.76853  1.0000
  C   C246      1.0  0.14903  0.40531  0.77648  1.0000
  C   C247      1.0  0.14346  0.39708  0.79521  1.0000
  H   H378      1.0  0.10540  0.42992  0.80684  1.0000
  H   H379      1.0  0.11447  0.44384  0.77341  1.0000
  H   H380      1.0  0.16115  0.39838  0.76815  1.0000
  H   H381      1.0  0.15130  0.38381  0.80117  1.0000
  C   C248      1.0  0.11237  0.43701  0.90136  1.0000
  H   H382      1.0  0.28935  0.44079  0.88190  1.0000
  C   C249      1.0  0.14466  0.42495  0.88904  1.0000
  C   C250      1.0  0.12579  0.42807  0.88842  1.0000
  H   H383      1.0  0.15495  0.41778  0.87915  1.0000
  H   H384      1.0  0.12161  0.42319  0.87818  1.0000
  C   C251      1.0  0.01448  0.40684  0.85889  1.0000
  H   H385      1.0  0.12911  0.47246  0.75772  1.0000
  C   C252      1.0  0.15150  0.48074  0.87148  1.0000
  S   S111      1.0  0.06629  0.48022  0.82083  1.0000
  C   C253      1.0  0.01092  0.40266  0.82926  1.0000
  C   C254      1.0  0.02201  0.40546  0.84031  1.0000
  C   C255      1.0  0.23072  0.38436  0.98106  1.0000
  C   C256      1.0  0.15024  0.43071  0.90259  1.0000
  H   H386      1.0  0.01676  0.40157  0.81493  1.0000
  H   H387      1.0  0.03636  0.40640  0.83453  1.0000
  H   H388      1.0  0.22312  0.39240  0.96976  1.0000
  C   C257      1.0  0.25883  0.45637  0.90397  1.0000
  H   H389      1.0  0.10579  0.46565  0.81351  1.0000
  C   C258      1.0  0.26192  0.48399  0.88007  1.0000
  H   H390      1.0  0.02362  0.44257  0.84118  1.0000
  Fe  Fe58      1.0  0.21282  0.40900  0.74646  1.0000
  H   H391      1.0  0.17839  0.46384  0.89110  1.0000
  C   C259      1.0  0.18171  0.47532  0.87913  1.0000
  H   H392      1.0  0.20723  0.45448  0.98669  1.0000
  H   H393      1.0  0.32072  0.41715  0.74169  1.0000
  H   H394      1.0  0.12484  0.48538  0.77573  1.0000
  H   H395      1.0  0.14110  0.44431  0.92595  1.0000
  H   H396      1.0  0.99854  0.44770  0.86819  1.0000
  C   C260      1.0  0.10344  0.47983  0.81521  1.0000
  C   C261      1.0  0.28601  0.45629  0.87934  1.0000
  H   H397      1.0  0.32574  0.48047  0.82464  1.0000
  H   H398      1.0  0.29359  0.46070  0.88776  1.0000
  H   H399      1.0  0.14260  0.36822  0.74430  1.0000
  S   S112      1.0  0.17391  0.46208  0.93450  1.0000
  H   H400      1.0  0.24104  0.46221  0.87576  1.0000
  H   H401      1.0  0.24549  0.38024  0.97419  1.0000
  Fe  Fe59      1.0  0.20265  0.46747  0.92273  1.0000
  H   H402      1.0  0.15751  0.47482  0.85875  1.0000
  N   N24       1.0  0.26578  0.46340  0.88401  1.0000
  S   S113      1.0  0.21373  0.45331  0.94857  1.0000
  H   H403      1.0  0.29175  0.46159  0.86441  1.0000
  H   H404      1.0  0.22509  0.37146  0.98741  1.0000
  Fe  Fe60      1.0  0.22130  0.42782  0.93651  1.0000
  H   H405      1.0  0.14741  0.47937  0.97255  1.0000
  S   S114      1.0  0.17408  0.42649  0.90264  1.0000
  C   C262      1.0  0.11795  0.44303  0.91479  1.0000
  H   H406      1.0  0.26595  0.46054  0.91298  1.0000
  H   H407      1.0  0.00506  0.46925  0.86689  1.0000
  H   H408      1.0  0.23640  0.48624  0.78016  1.0000
  C   C263      1.0  0.99718  0.48606  0.83303  1.0000
  H   H409      1.0  0.07535  0.47954  0.85697  1.0000
  H   H410      1.0  0.24052  0.42781  0.74366  1.0000
  H   H411      1.0  0.19214  0.48145  0.88234  1.0000
  C   C264      1.0  0.23670  0.41239  0.98589  1.0000
  N   N25       1.0  0.18550  0.39741  0.82336  1.0000
  C   C265      1.0  0.18026  0.40971  0.83694  1.0000
  C   C266      1.0  0.20560  0.38930  0.82107  1.0000
  C   C267      1.0  0.18126  0.40834  0.80519  1.0000
  C   C268      1.0  0.17485  0.38231  0.83021  1.0000
  H   H412      1.0  0.18334  0.40191  0.85081  1.0000
  H   H413      1.0  0.16511  0.41591  0.83911  1.0000
  H   H414      1.0  0.18797  0.42132  0.83220  1.0000
  H   H415      1.0  0.20999  0.37992  0.81090  1.0000
  H   H416      1.0  0.21407  0.40031  0.81563  1.0000
  H   H417      1.0  0.20943  0.38106  0.83448  1.0000
  H   H418      1.0  0.18470  0.39937  0.79473  1.0000
  H   H419      1.0  0.18953  0.41947  0.79929  1.0000
  H   H420      1.0  0.16627  0.41500  0.80644  1.0000
  H   H421      1.0  0.17825  0.37286  0.82023  1.0000
  H   H422      1.0  0.15961  0.38797  0.83223  1.0000
  H   H423      1.0  0.17776  0.37371  0.84386  1.0000
  Fe  Fe61      1.0  0.18491  0.43595  0.92307  1.0000
  H   H424      1.0  0.26116  0.44095  0.90737  1.0000
  S   S115      1.0  0.28560  0.48488  0.82863  1.0000
  H   H425      1.0  0.08833  0.47377  0.87511  1.0000
  C   C269      1.0  0.08055  0.48554  0.86614  1.0000
  H   H426      1.0  0.10758  0.44986  0.92489  1.0000
  H   H427      1.0  0.15184  0.48604  0.90492  1.0000
  H   H428      1.0  0.25874  0.44146  0.87550  1.0000
  H   H429      1.0  0.05818  0.47243  0.89720  1.0000
  S   S116      1.0  0.19436  0.41847  0.94919  1.0000
  H   H430      1.0  0.02403  0.45907  0.81944  1.0000
  H   H431      1.0  0.26689  0.48979  0.86510  1.0000
  C   C270      1.0  0.13212  0.48473  0.76113  1.0000
  C   C271      1.0  0.13688  0.43990  0.91541  1.0000
  H   H432      1.0  0.14512  0.39121  0.74413  1.0000
  H   H433      1.0  0.02974  0.46453  0.83875  1.0000
  H   H434      1.0  0.28809  0.47507  0.77171  1.0000
  C   C272      1.0  0.99593  0.40540  0.86630  1.0000
  C   C273      1.0  0.02034  0.45766  0.83483  1.0000
  H   H435      1.0  0.25648  0.46763  0.78045  1.0000
  C   C274      1.0  0.24788  0.42420  0.75498  1.0000
  H   H436      1.0  0.25149  0.40877  0.97887  1.0000
  H   H437      1.0  0.14744  0.46917  0.88305  1.0000
  C   C275      1.0  0.25084  0.48210  0.78278  1.0000
  S   S117      1.0  0.14509  0.43225  0.74494  1.0000
  N   N26       1.0  0.15234  0.48332  0.75874  1.0000
  H   H438      1.0  0.04465  0.48100  0.87928  1.0000
  H   H439      1.0  0.21164  0.48242  0.76271  1.0000
  N   N27       1.0  0.00059  0.46587  0.84111  1.0000
  S   S118      1.0  0.31915  0.44962  0.79743  1.0000
  H   H440      1.0  0.00062  0.48884  0.81755  1.0000
  H   H441      1.0  0.26894  0.48072  0.74784  1.0000
  H   H442      1.0  0.31203  0.39817  0.77295  1.0000
  H   H443      1.0  0.28144  0.48892  0.78917  1.0000
  C   C276      1.0  0.05149  0.48531  0.88840  1.0000
  H   H444      1.0  0.17724  0.48556  0.97610  1.0000
  C   C277      1.0  0.13996  0.48913  0.98200  1.0000
  H   H445      1.0  0.32308  0.37739  0.76423  1.0000
  C   C278      1.0  0.21250  0.48823  0.74799  1.0000
  C   C279      1.0  0.11841  0.48730  0.81567  1.0000
  N   N28       1.0  0.16481  0.48945  0.87591  1.0000
  H   H446      1.0  0.26673  0.44280  0.74107  1.0000
  H   H447      1.0  0.24677  0.48980  0.88349  1.0000
  C   C280      1.0  0.08542  0.49059  0.81728  1.0000
  H   H448      1.0  0.26894  0.48932  0.88830  1.0000
  H   H449      1.0  0.17531  0.46474  0.76978  1.0000
  C   C281      1.0  0.16005  0.46630  0.77131  1.0000
  H   H450      1.0  0.24341  0.48759  0.92112  1.0000
  S   S119      1.0  0.19302  0.39513  0.74004  1.0000
  H   H451      1.0  0.21610  0.46166  0.74089  1.0000
  C   C282      1.0  0.16135  0.48234  0.73921  1.0000
  Fe  Fe62      1.0  0.09088  0.55552  0.23325  1.0000
  Fe  Fe63      1.0  0.22422  0.55712  0.15696  1.0000
  S   S120      1.0  0.19484  0.56274  0.17267  1.0000
  S   S121      1.0  0.24665  0.54494  0.17374  1.0000
  Fe  Fe64      1.0  0.21247  0.56516  0.11945  1.0000
  S   S122      1.0  0.18214  0.57105  0.13219  1.0000
  S   S123      1.0  0.22339  0.56822  0.08850  1.0000
  Fe  Fe65      1.0  0.19047  0.58691  0.14885  1.0000
  S   S124      1.0  0.17384  0.61573  0.14985  1.0000
  Fe  Fe66      1.0  0.18960  0.54627  0.15460  1.0000
  S   S125      1.0  0.17377  0.52337  0.16715  1.0000
  S   S126      1.0  0.22049  0.58290  0.13463  1.0000
  S   S127      1.0  0.21920  0.53891  0.14038  1.0000
  H   H452      1.0  0.13589  0.58368  0.15441  1.0000
  H   H453      1.0  0.30034  0.54239  0.17655  1.0000
  C   C283      1.0  0.02093  0.55246  0.21228  1.0000
  S   S128      1.0  0.09985  0.62165  0.21101  1.0000
  H   H454      1.0  0.03014  0.60299  0.23401  1.0000
  S   S129      1.0  0.30089  0.60271  0.23428  1.0000
  H   H455      1.0  0.30371  0.57145  0.15366  1.0000
  H   H456      1.0  0.16741  0.61446  0.11280  1.0000
  C   C284      1.0  0.22975  0.50282  0.18767  1.0000
  H   H457      1.0  0.32036  0.52542  0.18203  1.0000
  Fe  Fe67      1.0  0.30660  0.58937  0.20977  1.0000
  C   C285      1.0  0.07909  0.51023  0.21012  1.0000
  S   S130      1.0  0.28924  0.60023  0.18758  1.0000
  H   H458      1.0  0.23697  0.50754  0.19623  1.0000
  H   H459      1.0  0.10361  0.54131  0.17529  1.0000
  H   H460      1.0  0.12387  0.55956  0.19308  1.0000
  S   S131      1.0  0.31116  0.56011  0.22648  1.0000
  N   N29       1.0  0.18562  0.62252  0.08674  1.0000
  C   C286      1.0  0.13948  0.63383  0.22993  1.0000
  H   H461      1.0  0.22819  0.57332  0.04896  1.0000
  C   C287      1.0  0.10345  0.55651  0.17034  1.0000
  H   H462      1.0  0.12660  0.55558  0.13711  1.0000
  H   H463      1.0  0.18753  0.55738  0.09743  1.0000
  N   N30       1.0  0.20213  0.50240  0.04876  1.0000
  H   H464      1.0  0.18601  0.52564  0.03298  1.0000
  H   H465      1.0  0.17625  0.64690  0.06697  1.0000
  H   H466      1.0  0.20072  0.60031  0.10441  1.0000
  C   C288      1.0  0.25676  0.56119  0.17852  1.0000
  C   C289      1.0  0.26543  0.55616  0.19388  1.0000
  C   C290      1.0  0.27478  0.56839  0.19722  1.0000
  C   C291      1.0  0.27574  0.58560  0.18506  1.0000
  C   C292      1.0  0.26664  0.59083  0.16997  1.0000
  C   C293      1.0  0.25710  0.57868  0.16674  1.0000
  H   H467      1.0  0.26509  0.54268  0.20310  1.0000
  H   H468      1.0  0.28138  0.56438  0.20908  1.0000
  H   H469      1.0  0.26726  0.60417  0.16057  1.0000
  H   H470      1.0  0.25045  0.58265  0.15485  1.0000
  C   C294      1.0  0.15335  0.61680  0.16688  1.0000
  C   C295      1.0  0.14807  0.60062  0.17852  1.0000
  C   C296      1.0  0.13149  0.60189  0.19194  1.0000
  C   C297      1.0  0.12024  0.61931  0.19381  1.0000
  C   C298      1.0  0.12555  0.63542  0.18210  1.0000
  C   C299      1.0  0.14203  0.63417  0.16867  1.0000
  H   H471      1.0  0.15676  0.58716  0.17720  1.0000
  H   H472      1.0  0.12748  0.58939  0.20072  1.0000
  H   H473      1.0  0.11693  0.64894  0.18343  1.0000
  H   H474      1.0  0.14605  0.64672  0.15969  1.0000
  C   C300      1.0  0.17149  0.51452  0.14886  1.0000
  C   C301      1.0  0.17734  0.52344  0.13049  1.0000
  C   C302      1.0  0.17433  0.51744  0.11573  1.0000
  C   C303      1.0  0.00404  0.60278  0.22757  1.0000
  H   H475      1.0  0.13299  0.53773  0.18591  1.0000
  H   H476      1.0  0.12849  0.60227  0.23260  1.0000
  H   H477      1.0  0.18422  0.53496  0.12758  1.0000
  H   H478      1.0  0.17879  0.52444  0.10154  1.0000
  C   C304      1.0  0.06472  0.52464  0.23663  1.0000
  H   H479      1.0  0.09001  0.50863  0.19801  1.0000
  H   H480      1.0  0.17323  0.63663  0.10953  1.0000
  H   H481      1.0  0.19264  0.60538  0.06632  1.0000
  H   H482      1.0  0.13756  0.50957  0.00732  1.0000
  H   H483      1.0  0.19242  0.64966  0.07936  1.0000
  H   H484      1.0  0.16845  0.61601  0.07147  1.0000
  H   H485      1.0  0.14607  0.55589  0.17759  1.0000
  C   C305      1.0  0.18589  0.56400  0.05155  1.0000
  C   C306      1.0  0.18031  0.55989  0.07099  1.0000
  C   C307      1.0  0.19197  0.56055  0.08249  1.0000
  C   C308      1.0  0.20919  0.56554  0.07459  1.0000
  C   C309      1.0  0.21488  0.56943  0.05517  1.0000
  C   C310      1.0  0.20327  0.56866  0.04367  1.0000
  H   H486      1.0  0.16691  0.55615  0.07718  1.0000
  H   H487      1.0  0.21010  0.52636  0.02887  1.0000
  C   C311      1.0  0.18881  0.63970  0.07295  1.0000
  H   H488      1.0  0.06464  0.49117  0.20578  1.0000
  C   C312      1.0  0.16309  0.49918  0.15249  1.0000
  H   H489      1.0  0.15855  0.49227  0.16671  1.0000
  H   H490      1.0  0.14759  0.55293  0.14528  1.0000
  H   H491      1.0  0.01605  0.56336  0.22085  1.0000
  C   C313      1.0  0.20261  0.61349  0.09429  1.0000
  H   H492      1.0  0.13067  0.63528  0.21968  1.0000
  C   C314      1.0  0.12172  0.58045  0.15861  1.0000
  H   H493      1.0  0.00612  0.61269  0.21449  1.0000
  H   H494      1.0  0.11480  0.58630  0.14644  1.0000
  S   S132      1.0  0.21117  0.56484  0.99222  1.0000
  C   C315      1.0  0.25773  0.49901  0.16416  1.0000
  C   C316      1.0  0.99894  0.53440  0.23269  1.0000
  H   H495      1.0  0.15162  0.59658  0.23692  1.0000
  Fe  Fe68      1.0  0.09190  0.59563  0.23012  1.0000
  C   C317      1.0  0.13176  0.55309  0.18106  1.0000
  S   S133      1.0  0.17753  0.54326  0.99465  1.0000
  H   H496      1.0  0.15701  0.63408  0.09704  1.0000
  H   H497      1.0  0.20044  0.63656  0.06117  1.0000
  H   H498      1.0  0.09509  0.56340  0.18196  1.0000
  H   H499      1.0  0.23185  0.49898  0.04342  1.0000
  H   H500      1.0  0.17377  0.49911  0.05461  1.0000
  H   H501      1.0  0.13395  0.53529  0.15395  1.0000
  C   C318      1.0  0.05135  0.50136  0.23087  1.0000
  H   H502      1.0  0.21471  0.60980  0.08312  1.0000
  H   H503      1.0  0.18487  0.52025  0.06702  1.0000
  H   H504      1.0  0.09603  0.56160  0.15850  1.0000
  H   H505      1.0  0.20634  0.62253  0.10170  1.0000
  C   C319      1.0  0.07920  0.52223  0.22131  1.0000
  H   H506      1.0  0.17827  0.59664  0.08780  1.0000
  C   C320      1.0  0.19909  0.51148  0.06468  1.0000
  H   H507      1.0  0.11384  0.58805  0.16988  1.0000
  C   C321      1.0  0.13308  0.55063  0.14960  1.0000
  H   H508      1.0  0.20298  0.51058  0.01922  1.0000
  H   H509      1.0  0.03288  0.54253  0.21760  1.0000
  C   C322      1.0  0.17011  0.62717  0.10213  1.0000
  H   H510      1.0  0.99536  0.56371  0.19089  1.0000
  C   C323      1.0  0.01302  0.52824  0.20203  1.0000
  C   C324      1.0  0.31470  0.53593  0.17057  1.0000
  C   C325      1.0  0.16608  0.50206  0.11929  1.0000
  N   N31       1.0  0.12250  0.56018  0.16490  1.0000
  S   S134      1.0  0.17074  0.56344  0.03758  1.0000
  H   H511      1.0  0.31376  0.52833  0.16018  1.0000
  C   C326      1.0  0.06495  0.50008  0.21472  1.0000
  N   N32       1.0  0.00589  0.54291  0.21312  1.0000
  H   H512      1.0  0.20764  0.57204  0.02872  1.0000
  H   H513      1.0  0.01828  0.53415  0.18716  1.0000
  H   H514      1.0  0.00194  0.52074  0.20254  1.0000
  H   H515      1.0  0.02625  0.55940  0.19778  1.0000
  H   H516      1.0  0.02462  0.51766  0.20736  1.0000
  Fe  Fe69      1.0  0.18133  0.56599  0.00656  1.0000
  C   C327      1.0  0.18100  0.60963  0.07767  1.0000
  C   C328      1.0  0.13974  0.51677  0.99240  1.0000
  C   C329      1.0  0.20023  0.51684  0.03168  1.0000
  S   S135      1.0  0.09767  0.53380  0.21626  1.0000
  H   H517      1.0  0.31620  0.55781  0.13655  1.0000
  S   S136      1.0  0.07065  0.58195  0.22598  1.0000
  S   S137      1.0  0.11304  0.56932  0.23460  1.0000
  H   H518      1.0  0.15417  0.62934  0.22307  1.0000
  H   H519      1.0  0.20049  0.50103  0.07785  1.0000
  H   H520      1.0  0.22324  0.51556  0.17860  1.0000
  N   N33       1.0  0.32638  0.55005  0.16211  1.0000
  H   H521      1.0  0.25205  0.51168  0.15445  1.0000
  C   C330      1.0  0.31779  0.56420  0.14761  1.0000
  H   H522      1.0  0.20914  0.52070  0.06238  1.0000
  H   H523      1.0  0.26552  0.50357  0.17227  1.0000
  S   S138      1.0  0.16343  0.49406  0.10067  1.0000
  H   H524      1.0  0.13792  0.64792  0.23270  1.0000
  C   C331      1.0  0.16063  0.49277  0.13764  1.0000
  H   H525      1.0  0.32623  0.57509  0.14089  1.0000
  H   H526      1.0  0.14698  0.52830  0.99090  1.0000
  H   H527      1.0  0.31400  0.56575  0.18356  1.0000
  H   H528      1.0  0.12588  0.52348  0.98885  1.0000
  H   H529      1.0  0.21835  0.49631  0.19726  1.0000
  H   H530      1.0  0.22615  0.49638  0.15563  1.0000
  C   C332      1.0  0.01769  0.59723  0.23856  1.0000
  S   S139      1.0  0.07978  0.55081  0.26391  1.0000
  H   H531      1.0  0.24657  0.64812  0.45234  1.0000
  S   S140      1.0  0.12053  0.55610  0.28363  1.0000
  S   S141      1.0  0.07819  0.74903  0.47192  1.0000
  H   H532      1.0  0.10372  0.52177  0.29091  1.0000
  H   H533      1.0  0.00379  0.80182  0.45283  1.0000
  S   S142      1.0  0.06311  0.80401  0.46114  1.0000
  N   N34       1.0  0.12312  0.50138  0.27678  1.0000
  N   N35       1.0  0.23786  0.80126  0.45388  1.0000
  H   H534      1.0  0.12899  0.93716  0.43437  1.0000
  Fe  Fe70      1.0  0.03901  0.81018  0.48445  1.0000
  H   H535      1.0  0.01895  0.75853  0.43395  1.0000
  H   H536      1.0  0.16066  0.61484  0.25498  1.0000
  Fe  Fe71      1.0  0.07957  0.81452  0.47580  1.0000
  S   S143      1.0  0.10152  0.83094  0.45926  1.0000
  H   H537      1.0  0.12326  0.93447  0.48501  1.0000
  C   C333      1.0  0.26000  0.64316  0.44330  1.0000
  H   H538      1.0  0.10524  0.71550  0.46755  1.0000
  H   H539      1.0  0.10830  0.55988  0.38129  1.0000
  H   H540      1.0  0.13543  0.89739  0.45768  1.0000
  C   C334      1.0  0.17614  0.98072  0.46297  1.0000
  Fe  Fe72      1.0  0.20306  0.87902  0.46762  1.0000
  S   S144      1.0  0.22582  0.86358  0.44856  1.0000
  H   H541      1.0  0.14364  0.63294  0.26463  1.0000
  Fe  Fe73      1.0  0.29326  0.76696  0.48267  1.0000
  H   H542      1.0  0.08998  0.92677  0.47381  1.0000
  H   H543      1.0  0.10966  0.61666  0.26837  1.0000
  H   H544      1.0  0.21315  0.78974  0.46298  1.0000
  C   C335      1.0  0.03691  0.78267  0.43912  1.0000
  H   H545      1.0  0.25594  0.96160  0.48155  1.0000
  H   H546      1.0  0.14244  0.74245  0.47513  1.0000
  C   C336      1.0  0.29086  0.63400  0.26545  1.0000
  Fe  Fe74      1.0  0.18098  0.71476  0.44117  1.0000
  S   S145      1.0  0.20779  0.70168  0.42503  1.0000
  S   S146      1.0  0.16043  0.73583  0.42584  1.0000
  C   C337      1.0  0.12433  0.51402  0.25826  1.0000
  S   S147      1.0  0.21862  0.67966  0.46558  1.0000
  H   H547      1.0  0.26298  0.68412  0.41226  1.0000
  Fe  Fe75      1.0  0.22114  0.70689  0.44587  1.0000
  S   S148      1.0  0.24898  0.71508  0.43557  1.0000
  Fe  Fe76      1.0  0.20367  0.67515  0.44539  1.0000
  S   S149      1.0  0.21558  0.65037  0.43148  1.0000
  S   S150      1.0  0.19471  0.72294  0.45995  1.0000
  S   S151      1.0  0.17543  0.68787  0.46012  1.0000
  Fe  Fe77      1.0  0.19060  0.57134  0.35153  1.0000
  S   S152      1.0  0.16260  0.58555  0.36487  1.0000
  S   S153      1.0  0.19898  0.53984  0.35742  1.0000
  Fe  Fe78      1.0  0.20147  0.60783  0.33055  1.0000
  S   S154      1.0  0.17423  0.62507  0.34165  1.0000
  S   S155      1.0  0.22276  0.62149  0.30888  1.0000
  Fe  Fe79      1.0  0.17748  0.60591  0.36913  1.0000
  S   S156      1.0  0.16685  0.61751  0.39554  1.0000
  Fe  Fe80      1.0  0.16171  0.60350  0.33647  1.0000
  S   S157      1.0  0.13509  0.61149  0.32555  1.0000
  S   S158      1.0  0.20582  0.58998  0.35838  1.0000
  S   S159      1.0  0.18873  0.58798  0.32277  1.0000
  C   C338      1.0  0.24674  0.85821  0.47507  1.0000
  C   C339      1.0  0.17991  0.50702  0.32506  1.0000
  H   H548      1.0  0.16218  0.69878  0.42320  1.0000
  C   C340      1.0  0.13212  0.93459  0.44850  1.0000
  H   H549      1.0  0.26888  0.63287  0.45245  1.0000
  H   H550      1.0  0.11745  0.90720  0.44440  1.0000
  C   C341      1.0  0.19199  0.52732  0.34460  1.0000
  C   C342      1.0  0.18439  0.53647  0.32888  1.0000
  C   C343      1.0  0.17849  0.52632  0.31913  1.0000
  H   H551      1.0  0.25638  0.53157  0.27046  1.0000
  H   H552      1.0  0.09325  0.50743  0.28263  1.0000
  H   H553      1.0  0.18295  0.55136  0.32426  1.0000
  H   H554      1.0  0.17257  0.53344  0.30702  1.0000
  C   C344      1.0  0.27222  0.57898  0.28722  1.0000
  C   C345      1.0  0.26495  0.57686  0.30638  1.0000
  C   C346      1.0  0.24941  0.58965  0.31309  1.0000
  C   C347      1.0  0.24146  0.60485  0.30068  1.0000
  C   C348      1.0  0.24875  0.60699  0.28156  1.0000
  C   C349      1.0  0.26390  0.59388  0.27482  1.0000
  H   H555      1.0  0.27139  0.56539  0.31606  1.0000
  H   H556      1.0  0.24385  0.58802  0.32790  1.0000
  H   H557      1.0  0.24245  0.61863  0.27192  1.0000
  C   C350      1.0  0.20192  0.64123  0.42163  1.0000
  C   C351      1.0  0.18314  0.64140  0.42936  1.0000
  C   C352      1.0  0.17263  0.63396  0.42126  1.0000
  C   C353      1.0  0.18079  0.62630  0.40537  1.0000
  C   C354      1.0  0.19959  0.62607  0.39766  1.0000
  C   C355      1.0  0.21015  0.63338  0.40588  1.0000
  H   H558      1.0  0.17678  0.64695  0.44178  1.0000
  H   H559      1.0  0.15814  0.63398  0.42741  1.0000
  H   H560      1.0  0.20602  0.62013  0.38547  1.0000
  H   H561      1.0  0.22473  0.63299  0.39993  1.0000
  C   C356      1.0  0.25458  0.72561  0.45099  1.0000
  C   C357      1.0  0.24298  0.72672  0.46834  1.0000
  C   C358      1.0  0.24711  0.73587  0.48024  1.0000
  C   C359      1.0  0.26284  0.74394  0.47484  1.0000
  C   C360      1.0  0.27475  0.74242  0.45771  1.0000
  C   C361      1.0  0.27060  0.73325  0.44578  1.0000
  H   H562      1.0  0.23073  0.72065  0.47257  1.0000
  H   H563      1.0  0.09594  0.93690  0.44947  1.0000
  H   H564      1.0  0.28693  0.74862  0.45349  1.0000
  H   H565      1.0  0.27964  0.73234  0.43238  1.0000
  H   H566      1.0  0.16911  0.98623  0.45133  1.0000
  H   H567      1.0  0.22193  0.54925  0.31935  1.0000
  C   C362      1.0  0.24635  0.85568  0.45752  1.0000
  C   C363      1.0  0.19394  0.50789  0.35027  1.0000
  H   H568      1.0  0.01008  0.52377  0.23878  1.0000
  C   C364      1.0  0.27858  0.84082  0.47262  1.0000
  C   C365      1.0  0.27817  0.83815  0.45514  1.0000
  C   C366      1.0  0.26221  0.84589  0.44744  1.0000
  C   C367      1.0  0.14562  0.61928  0.26072  1.0000
  H   H569      1.0  0.27946  0.68061  0.43762  1.0000
  H   H570      1.0  0.29033  0.83047  0.44738  1.0000
  H   H571      1.0  0.26213  0.84417  0.43373  1.0000
  C   C368      1.0  0.10096  0.74538  0.45894  1.0000
  C   C369      1.0  0.10901  0.76052  0.44865  1.0000
  C   C370      1.0  0.12724  0.75746  0.43837  1.0000
  C   C371      1.0  0.13772  0.73933  0.43897  1.0000
  C   C372      1.0  0.12986  0.72420  0.44972  1.0000
  C   C373      1.0  0.11138  0.72722  0.45945  1.0000
  H   H572      1.0  0.10110  0.77459  0.44834  1.0000
  H   H573      1.0  0.13329  0.76921  0.43011  1.0000
  H   H574      1.0  0.13785  0.71017  0.45024  1.0000
  H   H575      1.0  0.26531  0.80698  0.44271  1.0000
  C   C374      1.0  0.11169  0.84131  0.47150  1.0000
  C   C375      1.0  0.19286  0.98544  0.48435  1.0000
  H   H576      1.0  0.27874  0.63609  0.30134  1.0000
  H   H577      1.0  0.23434  0.56486  0.30158  1.0000
  C   C376      1.0  0.13589  0.85717  0.47181  1.0000
  C   C377      1.0  0.12786  0.84829  0.46254  1.0000
  S   S160      1.0  0.17062  0.49552  0.31316  1.0000
  H   H578      1.0  0.22167  0.81168  0.47812  1.0000
  H   H579      1.0  0.14836  0.86245  0.46480  1.0000
  H   H580      1.0  0.13416  0.84681  0.44838  1.0000
  H   H581      1.0  0.17813  0.71718  0.39407  1.0000
  H   H582      1.0  0.03562  0.78460  0.42441  1.0000
  C   C378      1.0  0.24690  0.54328  0.27654  1.0000
  C   C379      1.0  0.28749  0.62252  0.29864  1.0000
  C   C380      1.0  0.12400  0.92103  0.48117  1.0000
  C   C381      1.0  0.25767  0.79547  0.44556  1.0000
  H   H583      1.0  0.25669  0.63570  0.43400  1.0000
  C   C382      1.0  0.18727  0.95467  0.48625  1.0000
  C   C383      1.0  0.02105  0.75683  0.44836  1.0000
  C   C384      1.0  0.13838  0.50200  0.28536  1.0000
  C   C385      1.0  0.12455  0.57217  0.29444  1.0000
  C   C386      1.0  0.14211  0.56987  0.29842  1.0000
  C   C387      1.0  0.14559  0.58209  0.30767  1.0000
  C   C388      1.0  0.13140  0.59659  0.31312  1.0000
  C   C389      1.0  0.11391  0.59915  0.30876  1.0000
  C   C390      1.0  0.11047  0.58696  0.29940  1.0000
  H   H584      1.0  0.15307  0.55869  0.29419  1.0000
  H   H585      1.0  0.15917  0.58017  0.31070  1.0000
  H   H586      1.0  0.10290  0.61039  0.31293  1.0000
  H   H587      1.0  0.09682  0.58873  0.29646  1.0000
  C   C391      1.0  0.23639  0.80685  0.47161  1.0000
  H   H588      1.0  0.25009  0.52554  0.32189  1.0000
  H   H589      1.0  0.99611  0.56847  0.27510  1.0000
  H   H590      1.0  0.13257  0.59134  0.25559  1.0000
  S   S161      1.0  0.08019  0.59484  0.26063  1.0000
  H   H591      1.0  0.23003  0.78018  0.44473  1.0000
  C   C392      1.0  0.22910  0.81714  0.44083  1.0000
  H   H592      1.0  0.26893  0.59521  0.26001  1.0000
  Fe  Fe81      1.0  0.17938  0.91620  0.47441  1.0000
  N   N36       1.0  0.23953  0.53715  0.29662  1.0000
  H   H593      1.0  0.24273  0.79510  0.48182  1.0000
  Fe  Fe82      1.0  0.19098  0.69521  0.47820  1.0000
  Fe  Fe83      1.0  0.30845  0.80114  0.48086  1.0000
  C   C393      1.0  0.22901  0.52236  0.29934  1.0000
  N   N37       1.0  0.02147  0.77481  0.45229  1.0000
  H   H594      1.0  0.23453  0.86554  0.48306  1.0000
  S   S162      1.0  0.29852  0.83133  0.48232  1.0000
  C   C394      1.0  0.99842  0.57791  0.26174  1.0000
  Fe  Fe84      1.0  0.07039  0.77669  0.48039  1.0000
  S   S163      1.0  0.03072  0.57924  0.27074  1.0000
  H   H595      1.0  0.11166  0.64048  0.25890  1.0000
  H   H596      1.0  0.26473  0.78358  0.45504  1.0000
  H   H597      1.0  0.25332  0.66514  0.41081  1.0000
  H   H598      1.0  0.29459  0.61578  0.31058  1.0000
  C   C395      1.0  0.31194  0.60650  0.27771  1.0000
  H   H599      1.0  0.11290  0.51407  0.25142  1.0000
  H   H600      1.0  0.27791  0.61356  0.29862  1.0000
  H   H601      1.0  0.23239  0.96026  0.48335  1.0000
  C   C396      1.0  0.28674  0.65161  0.42063  1.0000
  H   H602      1.0  0.21478  0.55859  0.29735  1.0000
  H   H603      1.0  0.10349  0.54741  0.36639  1.0000
  S   S164      1.0  0.30674  0.78697  0.45879  1.0000
  H   H604      1.0  0.28436  0.64424  0.41073  1.0000
  Fe  Fe85      1.0  0.30782  0.57360  0.25056  1.0000
  H   H605      1.0  0.03760  0.76191  0.47359  1.0000
  H   H606      1.0  0.19528  0.69687  0.38954  1.0000
  H   H607      1.0  0.28121  0.62552  0.26457  1.0000
  H   H608      1.0  0.10515  0.62757  0.24555  1.0000
  H   H609      1.0  0.12339  0.52861  0.25936  1.0000
  H   H610      1.0  0.25937  0.79102  0.43223  1.0000
  Fe  Fe86      1.0  0.10000  0.56733  0.26474  1.0000
  H   H611      1.0  0.25503  0.55436  0.27406  1.0000
  H   H612      1.0  0.23553  0.54900  0.26854  1.0000
  H   H613      1.0  0.00958  0.75054  0.45815  1.0000
  H   H614      1.0  0.14682  0.92705  0.44780  1.0000
  H   H615      1.0  0.02486  0.78511  0.47471  1.0000
  H   H616      1.0  0.01285  0.76612  0.48194  1.0000
  N   N38       1.0  0.13242  0.54377  0.36673  1.0000
  C   C397      1.0  0.13526  0.55948  0.35084  1.0000
  C   C398      1.0  0.11266  0.54663  0.37610  1.0000
  C   C399      1.0  0.14414  0.54280  0.38002  1.0000
  C   C400      1.0  0.13760  0.52619  0.35990  1.0000
  H   H617      1.0  0.15008  0.55803  0.34366  1.0000
  H   H618      1.0  0.12694  0.56039  0.34032  1.0000
  H   H619      1.0  0.13770  0.50984  0.24877  1.0000
  H   H620      1.0  0.10997  0.53508  0.38824  1.0000
  H   H621      1.0  0.14269  0.53086  0.39202  1.0000
  H   H622      1.0  0.14046  0.55574  0.38566  1.0000
  H   H623      1.0  0.15913  0.54105  0.37325  1.0000
  H   H624      1.0  0.13512  0.51404  0.37139  1.0000
  H   H625      1.0  0.15257  0.52333  0.35338  1.0000
  H   H626      1.0  0.12969  0.52669  0.34916  1.0000
  H   H627      1.0  0.25980  0.67426  0.45443  1.0000
  H   H628      1.0  0.16146  0.66760  0.39305  1.0000
  H   H629      1.0  0.23649  0.82891  0.43707  1.0000
  H   H630      1.0  0.28214  0.65908  0.45458  1.0000
  C   C401      1.0  0.18785  0.49774  0.34056  1.0000
  C   C402      1.0  0.22710  0.55315  0.30405  1.0000
  H   H631      1.0  0.13784  0.49272  0.29942  1.0000
  S   S165      1.0  0.29169  0.56293  0.27907  1.0000
  H   H632      1.0  0.29643  0.64162  0.42916  1.0000
  C   C403      1.0  0.01477  0.58501  0.25582  1.0000
  H   H633      1.0  0.17233  0.68097  0.37180  1.0000
  S   S166      1.0  0.01015  0.82325  0.47868  1.0000
  N   N39       1.0  0.26908  0.65882  0.43247  1.0000
  C   C404      1.0  0.27284  0.66854  0.44534  1.0000
  C   C405      1.0  0.05092  0.51400  0.24159  1.0000
  N   N40       1.0  0.11928  0.92395  0.46273  1.0000
  H   H634      1.0  0.21690  0.52745  0.29229  1.0000
  C   C406      1.0  0.02432  0.77180  0.47149  1.0000
  H   H635      1.0  0.23786  0.51014  0.29368  1.0000
  C   C407      1.0  0.10512  0.50741  0.28882  1.0000
  H   H636      1.0  0.19993  0.50070  0.36237  1.0000
  S   S167      1.0  0.16968  0.94663  0.46258  1.0000
  H   H637      1.0  0.29389  0.66312  0.41225  1.0000
  C   C408      1.0  0.13683  0.60181  0.24292  1.0000
  H   H638      1.0  0.03431  0.74664  0.44984  1.0000
  C   C409      1.0  0.17825  0.96166  0.47119  1.0000
  H   H639      1.0  0.30589  0.65068  0.28371  1.0000
  H   H640      1.0  0.28246  0.64794  0.26731  1.0000
  H   H641      1.0  0.18180  0.71007  0.37232  1.0000
  Fe  Fe87      1.0  0.06079  0.57846  0.25691  1.0000
  C   C410      1.0  0.11428  0.62656  0.25538  1.0000
  C   C411      1.0  0.18119  0.70484  0.38754  1.0000
  C   C412      1.0  0.25672  0.67200  0.42055  1.0000
  C   C413      1.0  0.12103  0.90567  0.45816  1.0000
  H   H642      1.0  0.03719  0.79654  0.44140  1.0000
  H   H643      1.0  0.13115  0.57310  0.35531  1.0000
  H   H644      1.0  0.09819  0.94829  0.46667  1.0000
  C   C414      1.0  0.22829  0.78557  0.45755  1.0000
  N   N41       1.0  0.16704  0.69317  0.39584  1.0000
  C   C415      1.0  0.14861  0.70424  0.39283  1.0000
  C   C416      1.0  0.16660  0.68685  0.41604  1.0000
  C   C417      1.0  0.17179  0.67680  0.38708  1.0000
  H   H645      1.0  0.14472  0.71672  0.39930  1.0000
  H   H646      1.0  0.13760  0.69587  0.39911  1.0000
  H   H647      1.0  0.14837  0.70924  0.37773  1.0000
  H   H648      1.0  0.15675  0.67725  0.42269  1.0000
  H   H649      1.0  0.18055  0.67939  0.41887  1.0000
  H   H650      1.0  0.26464  0.51754  0.30159  1.0000
  H   H651      1.0  0.18558  0.66810  0.38926  1.0000
  S   S168      1.0  0.17526  0.89464  0.46103  1.0000
  H   H652      1.0  0.24371  0.81842  0.46947  1.0000
  H   H653      1.0  0.24335  0.67770  0.42908  1.0000
  C   C418      1.0  0.25514  0.52982  0.30661  1.0000
  H   H654      1.0  0.22352  0.51727  0.31439  1.0000
  C   C419      1.0  0.31363  0.63666  0.28137  1.0000
  C   C420      1.0  0.09998  0.93446  0.46318  1.0000
  H   H655      1.0  0.26366  0.54046  0.30447  1.0000
  H   H656      1.0  0.22922  0.81316  0.42764  1.0000
  H   H657      1.0  0.23391  0.77376  0.46810  1.0000
  H   H658      1.0  0.05064  0.77346  0.44085  1.0000
  H   H659      1.0  0.13775  0.51630  0.28714  1.0000
  H   H660      1.0  0.04027  0.51524  0.25397  1.0000
  S   S169      1.0  0.20827  0.90183  0.47837  1.0000
  C   C421      1.0  0.00368  0.78799  0.45034  1.0000
  H   H661      1.0  0.30297  0.59743  0.27664  1.0000
  N   N42       1.0  0.13406  0.62038  0.24724  1.0000
  H   H662      1.0  0.13144  0.94832  0.45172  1.0000
  H   H663      1.0  0.13834  0.91292  0.48126  1.0000
  H   H664      1.0  0.21442  0.82264  0.44702  1.0000
  H   H665      1.0  0.11177  0.89713  0.46883  1.0000
  H   H666      1.0  0.30058  0.63596  0.25173  1.0000
  H   H667      1.0  0.25069  0.94584  0.47027  1.0000
  H   H668      1.0  0.14201  0.60905  0.27379  1.0000
  C   C422      1.0  0.24671  0.95177  0.48304  1.0000
  H   H669      1.0  0.15225  0.49751  0.27677  1.0000
  H   H670      1.0  0.06431  0.53433  0.24497  1.0000
  N   N43       1.0  0.30098  0.62493  0.28080  1.0000
  C   C423      1.0  0.26293  0.85106  0.48247  1.0000
  H   H671      1.0  0.10366  0.49801  0.30282  1.0000
  H   H672      1.0  0.00079  0.79033  0.43614  1.0000
  H   H673      1.0  0.32169  0.63015  0.29262  1.0000
  H   H674      1.0  0.32389  0.63875  0.26799  1.0000
  H   H675      1.0  0.31941  0.59902  0.28923  1.0000
  H   H676      1.0  0.32255  0.60781  0.26460  1.0000
  H   H677      1.0  0.27204  0.91976  0.48695  1.0000
  H   H678      1.0  0.14587  0.71861  0.48750  1.0000
  S   S170      1.0  0.31993  0.74760  0.48760  1.0000
  C   C424      1.0  0.14581  0.73310  0.48832  1.0000
  Fe  Fe88      1.0  0.10979  0.82580  0.59328  1.0000
  S   S171      1.0  0.08946  0.85270  0.59507  1.0000
  S   S172      1.0  0.12150  0.81655  0.56615  1.0000
  Fe  Fe89      1.0  0.11249  0.81760  0.63367  1.0000
  S   S173      1.0  0.09255  0.84394  0.63915  1.0000
  S   S174      1.0  0.12689  0.79623  0.65472  1.0000
  Fe  Fe90      1.0  0.07581  0.83681  0.62212  1.0000
  Fe  Fe91      1.0  0.10795  0.85747  0.61171  1.0000
  S   S175      1.0  0.11624  0.88553  0.60362  1.0000
  S   S176      1.0  0.09469  0.80940  0.61895  1.0000
  S   S177      1.0  0.12936  0.83166  0.60771  1.0000
  Fe  Fe92      1.0  0.19016  0.92408  0.62561  1.0000
  S   S178      1.0  0.21677  0.91804  0.60540  1.0000
  S   S179      1.0  0.17503  0.90089  0.64133  1.0000
  Fe  Fe93      1.0  0.19244  0.96485  0.62070  1.0000
  S   S180      1.0  0.21940  0.96231  0.60011  1.0000
  N   N44       1.0  0.30243  0.82066  0.54005  1.0000
  Fe  Fe94      1.0  0.20645  0.94581  0.58810  1.0000
  S   S181      1.0  0.20605  0.95237  0.55770  1.0000
  Fe  Fe95      1.0  0.22734  0.93492  0.61932  1.0000
  S   S182      1.0  0.25459  0.92386  0.62850  1.0000
  S   S183      1.0  0.17877  0.95042  0.60710  1.0000
  S   S184      1.0  0.20145  0.93888  0.64114  1.0000
  C   C425      1.0  0.15061  0.88838  0.55316  1.0000
  S   S185      1.0  0.29268  0.78288  0.50387  1.0000
  Fe  Fe96      1.0  0.23196  0.58022  0.71627  1.0000
  C   C426      1.0  0.21321  0.51473  0.72219  1.0000
  S   S186      1.0  0.23622  0.59149  0.68511  1.0000
  H   H679      1.0  0.29375  0.83892  0.55960  1.0000
  H   H680      1.0  0.27525  0.69633  0.53703  1.0000
  H   H681      1.0  0.07580  0.77839  0.64495  1.0000
  H   H682      1.0  0.22086  0.93154  0.50185  1.0000
  H   H683      1.0  0.12017  0.96138  0.67966  1.0000
  Fe  Fe97      1.0  0.19491  0.71643  0.61403  1.0000
  S   S187      1.0  0.20873  0.68637  0.61429  1.0000
  S   S188      1.0  0.16370  0.72499  0.61991  1.0000
  Fe  Fe98      1.0  0.23126  0.73010  0.60043  1.0000
  S   S189      1.0  0.24795  0.70134  0.60004  1.0000
  S   S190      1.0  0.24666  0.75343  0.58726  1.0000
  Fe  Fe99      1.0  0.22601  0.69779  0.58686  1.0000
  S   S191      1.0  0.23642  0.68809  0.55968  1.0000
  Fe  Fe100     1.0  0.22935  0.69274  0.62739  1.0000
  S   S192      1.0  0.24177  0.67635  0.65245  1.0000
  S   S193      1.0  0.21052  0.72713  0.58556  1.0000
  S   S194      1.0  0.21432  0.72216  0.62895  1.0000
  Fe  Fe101     1.0  0.31279  0.83559  0.60490  1.0000
  S   S195      1.0  0.30134  0.82638  0.63523  1.0000
  S   S196      1.0  0.30063  0.86091  0.58544  1.0000
  C   C427      1.0  0.01186  0.83280  0.63026  1.0000
  H   H684      1.0  0.15946  0.84371  0.57699  1.0000
  H   H685      1.0  0.26636  0.85902  0.64213  1.0000
  Fe  Fe102     1.0  0.30208  0.79920  0.62819  1.0000
  S   S197      1.0  0.27716  0.78560  0.64039  1.0000
  H   H686      1.0  0.12177  0.94822  0.63508  1.0000
  H   H687      1.0  0.14561  0.93654  0.63251  1.0000
  S   S198      1.0  0.31111  0.80945  0.59768  1.0000
  H   H688      1.0  0.24799  0.72567  0.55617  1.0000
  H   H689      1.0  0.10309  0.74150  0.51603  1.0000
  S   S199      1.0  0.17910  0.69551  0.50858  1.0000
  S   S200      1.0  0.19096  0.86322  0.49544  1.0000
  C   C428      1.0  0.03115  0.82958  0.62373  1.0000
  H   H690      1.0  0.22731  0.95367  0.51768  1.0000
  H   H691      1.0  0.28320  0.81791  0.52483  1.0000
  Fe  Fe103     1.0  0.06271  0.79459  0.51352  1.0000
  H   H692      1.0  0.25755  0.70665  0.65998  1.0000
  S   S201      1.0  0.31998  0.75158  0.53781  1.0000
  H   H693      1.0  0.30825  0.70699  0.64476  1.0000
  H   H694      1.0  0.30338  0.72275  0.52453  1.0000
  C   C429      1.0  0.21491  0.50297  0.70992  1.0000
  H   H695      1.0  0.10706  0.96306  0.66231  1.0000
  H   H696      1.0  0.31162  0.79817  0.56151  1.0000
  C   C430      1.0  0.22025  0.69128  0.54541  1.0000
  C   C431      1.0  0.20111  0.69496  0.55245  1.0000
  C   C432      1.0  0.18856  0.69638  0.54101  1.0000
  C   C433      1.0  0.21420  0.69139  0.51524  1.0000
  C   C434      1.0  0.22673  0.68967  0.52675  1.0000
  H   H697      1.0  0.19600  0.69612  0.56686  1.0000
  H   H698      1.0  0.25878  0.73053  0.64946  1.0000
  H   H699      1.0  0.24151  0.68690  0.52120  1.0000
  C   C435      1.0  0.25477  0.76257  0.60207  1.0000
  C   C436      1.0  0.24601  0.76166  0.62075  1.0000
  C   C437      1.0  0.25287  0.76901  0.63233  1.0000
  C   C438      1.0  0.26867  0.77698  0.62536  1.0000
  C   C439      1.0  0.27753  0.77763  0.60672  1.0000
  C   C440      1.0  0.27046  0.77065  0.59505  1.0000
  H   H700      1.0  0.23380  0.75557  0.62621  1.0000
  H   H701      1.0  0.24594  0.76851  0.64673  1.0000
  H   H702      1.0  0.28996  0.78326  0.60132  1.0000
  H   H703      1.0  0.27741  0.77117  0.58064  1.0000
  H   H704      1.0  0.00326  0.84374  0.52246  1.0000
  H   H705      1.0  0.11495  0.92837  0.66642  1.0000
  H   H706      1.0  0.16742  0.66709  0.71796  1.0000
  H   H707      1.0  0.24595  0.87761  0.61047  1.0000
  H   H708      1.0  0.29723  0.72295  0.55784  1.0000
  C   C441      1.0  0.23871  0.61480  0.67570  1.0000
  C   C442      1.0  0.24516  0.62463  0.68526  1.0000
  C   C443      1.0  0.24647  0.64336  0.67772  1.0000
  C   C444      1.0  0.24108  0.65249  0.66072  1.0000
  C   C445      1.0  0.23482  0.64264  0.65103  1.0000
  C   C446      1.0  0.23377  0.62381  0.65846  1.0000
  H   H709      1.0  0.24930  0.61775  0.69839  1.0000
  H   H710      1.0  0.25147  0.65084  0.68522  1.0000
  H   H711      1.0  0.23075  0.64948  0.63785  1.0000
  H   H712      1.0  0.22889  0.61625  0.65092  1.0000
  S   S202      1.0  0.16593  0.90360  0.50308  1.0000
  C   C447      1.0  0.26900  0.90771  0.61555  1.0000
  C   C448      1.0  0.28237  0.89364  0.62347  1.0000
  C   C449      1.0  0.29253  0.87942  0.61406  1.0000
  C   C450      1.0  0.28962  0.87955  0.59651  1.0000
  C   C451      1.0  0.27688  0.89409  0.58821  1.0000
  C   C452      1.0  0.26645  0.90809  0.59779  1.0000
  H   H713      1.0  0.28445  0.89340  0.63716  1.0000
  H   H714      1.0  0.30253  0.86831  0.62042  1.0000
  H   H715      1.0  0.27468  0.89424  0.57460  1.0000
  H   H716      1.0  0.25645  0.91917  0.59145  1.0000
  H   H717      1.0  0.05559  0.76222  0.68323  1.0000
  H   H718      1.0  0.05178  0.77650  0.65048  1.0000
  C   C453      1.0  0.25704  0.73008  0.54251  1.0000
  H   H719      1.0  0.14394  0.89595  0.54111  1.0000
  H   H720      1.0  0.18171  0.62169  0.70251  1.0000
  C   C454      1.0  0.20481  0.89992  0.53984  1.0000
  C   C455      1.0  0.21566  0.91499  0.55852  1.0000
  C   C456      1.0  0.20503  0.93208  0.55140  1.0000
  C   C457      1.0  0.19415  0.93306  0.53864  1.0000
  C   C458      1.0  0.19409  0.91698  0.53280  1.0000
  H   H721      1.0  0.18567  0.94622  0.53338  1.0000
  H   H722      1.0  0.18579  0.91783  0.52283  1.0000
  C   C459      1.0  0.13703  0.77580  0.64611  1.0000
  C   C460      1.0  0.15581  0.76779  0.64599  1.0000
  C   C461      1.0  0.16412  0.75195  0.63830  1.0000
  C   C462      1.0  0.15354  0.74383  0.63112  1.0000
  C   C463      1.0  0.13461  0.75148  0.63186  1.0000
  C   C464      1.0  0.12644  0.76758  0.63907  1.0000
  H   H723      1.0  0.16402  0.77408  0.65150  1.0000
  H   H724      1.0  0.17869  0.74612  0.63788  1.0000
  H   H725      1.0  0.12634  0.74519  0.62642  1.0000
  H   H726      1.0  0.11188  0.77348  0.63940  1.0000
  C   C465      1.0  0.13332  0.88885  0.61377  1.0000
  C   C466      1.0  0.14246  0.90372  0.60520  1.0000
  C   C467      1.0  0.15581  0.90705  0.61318  1.0000
  C   C468      1.0  0.15971  0.89586  0.63009  1.0000
  C   C469      1.0  0.15071  0.88086  0.63858  1.0000
  C   C470      1.0  0.13769  0.87722  0.63032  1.0000
  H   H727      1.0  0.13919  0.91271  0.59234  1.0000
  H   H728      1.0  0.16288  0.91844  0.60635  1.0000
  H   H729      1.0  0.15371  0.87211  0.65163  1.0000
  H   H730      1.0  0.13070  0.86571  0.63700  1.0000
  H   H731      1.0  0.05395  0.81531  0.60581  1.0000
  C   C471      1.0  0.07751  0.79584  0.55008  1.0000
  C   C472      1.0  0.09108  0.80362  0.53620  1.0000
  C   C473      1.0  0.10485  0.80969  0.54114  1.0000
  C   C474      1.0  0.10475  0.80837  0.55992  1.0000
  C   C475      1.0  0.09121  0.80054  0.57371  1.0000
  C   C476      1.0  0.07767  0.79420  0.56881  1.0000
  H   H732      1.0  0.09088  0.80517  0.52168  1.0000
  H   H733      1.0  0.11521  0.81588  0.53040  1.0000
  H   H734      1.0  0.09122  0.79914  0.58817  1.0000
  H   H735      1.0  0.06725  0.78812  0.57955  1.0000
  S   S203      1.0  0.20583  0.88001  0.53179  1.0000
  C   C477      1.0  0.21545  0.89888  0.55284  1.0000
  H   H736      1.0  0.12831  0.92681  0.68355  1.0000
  H   H737      1.0  0.26834  0.91520  0.51192  1.0000
  S   S204      1.0  0.05472  0.82353  0.49724  1.0000
  H   H738      1.0  0.31464  0.75238  0.57636  1.0000
  H   H739      1.0  0.32104  0.82768  0.51396  1.0000
  H   H740      1.0  0.18862  0.67052  0.68663  1.0000
  H   H741      1.0  0.28008  0.74394  0.55452  1.0000
  H   H742      1.0  0.28768  0.84085  0.52038  1.0000
  H   H743      1.0  0.01735  0.82100  0.56783  1.0000
  H   H744      1.0  0.18870  0.94009  0.49282  1.0000
  C   C478      1.0  0.23555  0.92414  0.50126  1.0000
  H   H745      1.0  0.25248  0.72550  0.53181  1.0000
  H   H746      1.0  0.26314  0.85311  0.49602  1.0000
  N   N45       1.0  0.24778  0.93699  0.50004  1.0000
  Fe  Fe104     1.0  0.32008  0.76474  0.50758  1.0000
  H   H747      1.0  0.27156  0.69634  0.56125  1.0000
  C   C479      1.0  0.29324  0.71127  0.65069  1.0000
  C   C480      1.0  0.19508  0.69443  0.52242  1.0000
  H   H748      1.0  0.25245  0.71637  0.63726  1.0000
  H   H749      1.0  0.29743  0.79270  0.54876  1.0000
  C   C481      1.0  0.03911  0.81779  0.61107  1.0000
  H   H750      1.0  0.28126  0.68130  0.64879  1.0000
  C   C482      1.0  0.02783  0.80901  0.60535  1.0000
  H   H751      1.0  0.07928  0.76520  0.67755  1.0000
  H   H752      1.0  0.13087  0.85047  0.56414  1.0000
  H   H753      1.0  0.13880  0.91657  0.66355  1.0000
  H   H754      1.0  0.00545  0.79013  0.50804  1.0000
  C   C483      1.0  0.13546  0.94830  0.63788  1.0000
  H   H755      1.0  0.13979  0.96146  0.62954  1.0000
  H   H756      1.0  0.21937  0.69001  0.50093  1.0000
  H   H757      1.0  0.21803  0.88022  0.63592  1.0000
  H   H758      1.0  0.24649  0.86046  0.66083  1.0000
  H   H759      1.0  0.12541  0.97584  0.65700  1.0000
  H   H760      1.0  0.24064  0.85702  0.60718  1.0000
  N   N46       1.0  0.24111  0.85689  0.63550  1.0000
  C   C484      1.0  0.24798  0.86220  0.61522  1.0000
  H   H761      1.0  0.21727  0.64415  0.70841  1.0000
  H   H762      1.0  0.07113  0.80566  0.68100  1.0000
  H   H763      1.0  0.03588  0.81198  0.66518  1.0000
  N   N47       1.0  0.16585  0.77374  0.57535  1.0000
  C   C485      1.0  0.17713  0.77141  0.58944  1.0000
  C   C486      1.0  0.17342  0.75872  0.56471  1.0000
  C   C487      1.0  0.14643  0.77280  0.58470  1.0000
  H   H764      1.0  0.17122  0.78188  0.59843  1.0000
  H   H765      1.0  0.17772  0.75744  0.59877  1.0000
  H   H766      1.0  0.18817  0.75875  0.55769  1.0000
  H   H767      1.0  0.17293  0.74475  0.57403  1.0000
  H   H768      1.0  0.16532  0.76018  0.55386  1.0000
  H   H769      1.0  0.14044  0.78333  0.59362  1.0000
  H   H770      1.0  0.14544  0.75883  0.59371  1.0000
  H   H771      1.0  0.13732  0.77546  0.57445  1.0000
  H   H772      1.0  0.23962  0.83176  0.65649  1.0000
  H   H773      1.0  0.12770  0.72949  0.53462  1.0000
  H   H774      1.0  0.22451  0.91425  0.56794  1.0000
  C   C488      1.0  0.29945  0.80394  0.55464  1.0000
  H   H775      1.0  0.20141  0.66438  0.71498  1.0000
  N   N48       1.0  0.28146  0.71046  0.63816  1.0000
  C   C489      1.0  0.04009  0.79876  0.67508  1.0000
  C   C490      1.0  0.11146  0.85238  0.49895  1.0000
  H   H776      1.0  0.16496  0.89104  0.54997  1.0000
  H   H777      1.0  0.15311  0.94548  0.67580  1.0000
  C   C491      1.0  0.19038  0.65522  0.68812  1.0000
  S   S205      1.0  0.24548  0.55196  0.73078  1.0000
  H   H778      1.0  0.27321  0.83213  0.54199  1.0000
  H   H779      1.0  0.01634  0.84188  0.55004  1.0000
  N   N49       1.0  0.18883  0.64537  0.70782  1.0000
  C   C492      1.0  0.28831  0.72829  0.52464  1.0000
  H   H780      1.0  0.12947  0.76782  0.49229  1.0000
  H   H781      1.0  0.28436  0.73761  0.62176  1.0000
  N   N50       1.0  0.05952  0.78970  0.66865  1.0000
  C   C493      1.0  0.19178  0.62513  0.70891  1.0000
  H   H782      1.0  0.13774  0.71116  0.52182  1.0000
  C   C494      1.0  0.12119  0.96238  0.66453  1.0000
  C   C495      1.0  0.27978  0.70153  0.54734  1.0000
  C   C496      1.0  0.12888  0.92881  0.66836  1.0000
  H   H783      1.0  0.30073  0.71882  0.61295  1.0000
  H   H784      1.0  0.20423  0.65034  0.67974  1.0000
  C   C497      1.0  0.20301  0.64921  0.71583  1.0000
  H   H785      1.0  0.16867  0.64464  0.73344  1.0000
  H   H786      1.0  0.08679  0.79613  0.66219  1.0000
  H   H787      1.0  0.03812  0.80231  0.68890  1.0000
  H   H788      1.0  0.20594  0.61956  0.70158  1.0000
  S   S206      1.0  0.06027  0.78811  0.54426  1.0000
  H   H789      1.0  0.24232  0.93484  0.52973  1.0000
  C   C498      1.0  0.01754  0.82655  0.55269  1.0000
  C   C499      1.0  0.28586  0.82823  0.53150  1.0000
  H   H790      1.0  0.23594  0.91286  0.51397  1.0000
  N   N51       1.0  0.13245  0.73864  0.50480  1.0000
  H   H791      1.0  0.21563  0.50876  0.69519  1.0000
  H   H792      1.0  0.17981  0.65278  0.68163  1.0000
  C   C500      1.0  0.06141  0.78553  0.65016  1.0000
  S   S207      1.0  0.04518  0.78198  0.50259  1.0000
  H   H793      1.0  0.15003  0.86440  0.58634  1.0000
  C   C501      1.0  0.11356  0.73766  0.50371  1.0000
  H   H794      1.0  0.29464  0.69501  0.54734  1.0000
  C   C502      1.0  0.00851  0.81230  0.61188  1.0000
  C   C503      1.0  0.13758  0.72588  0.52190  1.0000
  C   C504      1.0  0.06459  0.77219  0.68200  1.0000
  H   H795      1.0  0.28710  0.80713  0.56571  1.0000
  H   H796      1.0  0.25437  0.74558  0.53917  1.0000
  H   H797      1.0  0.14684  0.75908  0.50639  1.0000
  H   H798      1.0  0.23716  0.83018  0.63399  1.0000
  H   H799      1.0  0.25952  0.82999  0.63794  1.0000
  N   N52       1.0  0.13466  0.94646  0.65794  1.0000
  H   H800      1.0  0.22387  0.88571  0.55818  1.0000
  H   H801      1.0  0.31817  0.82958  0.55503  1.0000
  H   H802      1.0  0.15789  0.79436  0.55182  1.0000
  H   H803      1.0  0.29103  0.72568  0.65304  1.0000
  H   H804      1.0  0.19172  0.77273  0.58288  1.0000
  C   C505      1.0  0.28228  0.72845  0.55735  1.0000
  H   H805      1.0  0.12258  0.76278  0.51721  1.0000
  C   C506      1.0  0.25110  0.86436  0.64546  1.0000
  H   H806      1.0  0.29952  0.68624  0.62903  1.0000
  S   S208      1.0  0.04478  0.83976  0.63259  1.0000
  H   H807      1.0  0.05813  0.79852  0.63969  1.0000
  C   C507      1.0  0.16641  0.79202  0.56255  1.0000
  C   C508      1.0  0.24445  0.83634  0.64124  1.0000
  H   H808      1.0  0.28465  0.72376  0.51337  1.0000
  H   H809      1.0  0.21296  0.85958  0.63262  1.0000
  H   H810      1.0  0.18083  0.79322  0.55519  1.0000
  H   H811      1.0  0.16067  0.80359  0.57023  1.0000
  H   H812      1.0  0.25074  0.95533  0.51618  1.0000
  S   S209      1.0  0.20294  0.57665  0.73079  1.0000
  H   H813      1.0  0.15838  0.95915  0.65270  1.0000
  H   H814      1.0  0.15911  0.64903  0.71293  1.0000
  H   H815      1.0  0.17381  0.69864  0.54669  1.0000
  H   H816      1.0  0.16356  0.93415  0.65662  1.0000
  S   S210      1.0  0.99460  0.80104  0.60465  1.0000
  H   H817      1.0  0.19024  0.61734  0.72359  1.0000
  H   H818      1.0  0.30799  0.84771  0.53792  1.0000
  C   C509      1.0  0.00367  0.82849  0.52660  1.0000
  H   H819      1.0  0.28631  0.74373  0.52095  1.0000
  H   H820      1.0  0.27400  0.72396  0.57140  1.0000
  C   C510      1.0  0.26171  0.71630  0.64659  1.0000
  H   H821      1.0  0.03406  0.79974  0.59573  1.0000
  H   H822      1.0  0.03023  0.78968  0.67620  1.0000
  H   H823      1.0  0.21529  0.86101  0.65520  1.0000
  H   H824      1.0  0.24873  0.87987  0.64159  1.0000
  C   C511      1.0  0.15322  0.94634  0.66090  1.0000
  C   C512      1.0  0.22099  0.86472  0.64001  1.0000
  H   H825      1.0  0.26310  0.85638  0.61131  1.0000
  H   H826      1.0  0.14270  0.89467  0.56532  1.0000
  Fe  Fe105     1.0  0.19427  0.88703  0.50584  1.0000
  H   H827      1.0  0.16149  0.84511  0.54333  1.0000
  C   C513      1.0  0.13149  0.86547  0.56008  1.0000
  H   H828      1.0  0.12563  0.87129  0.54721  1.0000
  H   H829      1.0  0.17288  0.86147  0.57213  1.0000
  C   C514      1.0  0.28608  0.72311  0.62001  1.0000
  N   N53       1.0  0.27684  0.72207  0.54298  1.0000
  H   H830      1.0  0.27693  0.72350  0.61042  1.0000
  H   H831      1.0  0.11281  0.72345  0.50282  1.0000
  H   H832      1.0  0.12210  0.87233  0.57125  1.0000
  H   H833      1.0  0.09123  0.83780  0.49688  1.0000
  C   C515      1.0  0.16212  0.86003  0.54121  1.0000
  H   H834      1.0  0.15716  0.86732  0.52813  1.0000
  H   H835      1.0  0.11464  0.91303  0.49232  1.0000
  H   H836      1.0  0.21267  0.52949  0.71690  1.0000
  N   N54       1.0  0.15070  0.86823  0.55710  1.0000
  C   C516      1.0  0.15861  0.85901  0.57389  1.0000
  C   C517      1.0  0.17016  0.65186  0.71849  1.0000
  H   H837      1.0  0.17692  0.86093  0.53903  1.0000
  H   H838      1.0  0.06839  0.81580  0.65752  1.0000
  C   C518      1.0  0.07201  0.80234  0.66729  1.0000
  C   C519      1.0  0.32592  0.75938  0.56883  1.0000
  H   H839      1.0  0.06321  0.77481  0.69613  1.0000
  S   S211      1.0  0.23593  0.59517  0.73649  1.0000
  C   C520      1.0  0.13286  0.75792  0.50523  1.0000
  H   H840      1.0  0.00560  0.84190  0.64003  1.0000
  H   H841      1.0  0.20217  0.64212  0.73072  1.0000
  C   C521      1.0  0.28477  0.69120  0.63537  1.0000
  H   H842      1.0  0.27595  0.69011  0.62611  1.0000
  H   H843      1.0  0.29007  0.70195  0.66455  1.0000
  C   C522      1.0  0.12751  0.85949  0.48994  1.0000
  H   H844      1.0  0.27677  0.93567  0.49836  1.0000
  C   C523      1.0  0.24183  0.94555  0.51661  1.0000
  H   H845      1.0  0.23790  0.73695  0.49353  1.0000
  H   H846      1.0  0.18725  0.98471  0.57598  1.0000
  H   H847      1.0  0.31703  0.80442  0.51943  1.0000
  C   C524      1.0  0.10366  0.84315  0.48984  1.0000
  C   C525      1.0  0.00429  0.80122  0.55144  1.0000
  H   H848      1.0  0.15177  0.72628  0.52318  1.0000
  H   H849      1.0  0.20112  0.96119  0.50462  1.0000
  C   C526      1.0  0.31878  0.81557  0.52560  1.0000
  C   C527      1.0  0.19437  0.96657  0.49287  1.0000
  S   S212      1.0  0.08873  0.78645  0.49324  1.0000
  H   H850      1.0  0.10917  0.74741  0.49118  1.0000
  H   H851      1.0  0.01676  0.82146  0.51862  1.0000
  C   C528      1.0  0.00056  0.82433  0.62426  1.0000
  H   H852      1.0  0.03143  0.82060  0.54508  1.0000
  N   N55       1.0  0.00245  0.82169  0.54689  1.0000
  H   H853      1.0  0.10495  0.85404  0.51303  1.0000
  H   H854      1.0  0.01807  0.79419  0.54451  1.0000
  C   C529      1.0  0.26710  0.92645  0.49926  1.0000
  S   S213      1.0  0.13593  0.87224  0.50138  1.0000
  Fe  Fe106     1.0  0.16359  0.88100  0.49010  1.0000
  C   C530      1.0  0.30570  0.83485  0.54847  1.0000
  H   H855      1.0  0.21582  0.98922  0.55248  1.0000
  H   H856      1.0  0.00317  0.79565  0.56670  1.0000
  H   H857      1.0  0.15591  0.49495  0.72930  1.0000
  H   H858      1.0  0.23963  0.91739  0.48901  1.0000
  S   S214      1.0  0.26610  0.75739  0.48902  1.0000
  H   H859      1.0  0.16023  0.73349  0.48881  1.0000
  Fe  Fe107     1.0  0.09221  0.55450  0.86417  1.0000
  S   S215      1.0  0.09850  0.56053  0.83300  1.0000
  Fe  Fe108     1.0  0.13257  0.55117  0.86663  1.0000
  S   S216      1.0  0.14183  0.55673  0.83563  1.0000
  S   S217      1.0  0.15693  0.54541  0.88062  1.0000
  Fe  Fe109     1.0  0.11607  0.57891  0.83563  1.0000
  S   S218      1.0  0.11437  0.60786  0.81855  1.0000
  Fe  Fe110     1.0  0.12347  0.53762  0.83616  1.0000
  S   S219      1.0  0.13380  0.51398  0.82101  1.0000
  S   S220      1.0  0.10801  0.57492  0.86671  1.0000
  S   S221      1.0  0.11607  0.53018  0.86727  1.0000
  Fe  Fe111     1.0  0.16869  0.56588  0.97115  1.0000
  S   S222      1.0  0.19741  0.56487  0.95410  1.0000
  S   S223      1.0  0.14404  0.56438  0.96019  1.0000
  H   H860      1.0  0.24907  0.49952  0.74740  1.0000
  C   C531      1.0  0.07260  0.50359  0.89001  1.0000
  Fe  Fe112     1.0  0.19952  0.58592  0.96901  1.0000
  S   S224      1.0  0.21257  0.60955  0.95057  1.0000
  H   H861      1.0  0.26330  0.54547  0.90170  1.0000
  H   H862      1.0  0.22499  0.54513  0.92601  1.0000
  C   C532      1.0  0.22214  0.51170  0.95532  1.0000
  C   C533      1.0  0.21163  0.50741  0.74131  1.0000
  S   S225      1.0  0.06330  0.55263  0.88077  1.0000
  H   H863      1.0  0.17670  0.50567  0.98473  1.0000
  Fe  Fe113     1.0  0.29929  0.58326  0.87990  1.0000
  S   S226      1.0  0.28959  0.61061  0.86179  1.0000
  S   S227      1.0  0.29403  0.57806  0.91113  1.0000
  C   C534      1.0  0.22574  0.58057  0.90762  1.0000
  S   S228      1.0  0.99807  0.58316  0.83621  1.0000
  C   C535      1.0  0.01545  0.57165  0.84911  1.0000
  H   H864      1.0  0.05072  0.50805  0.85453  1.0000
  H   H865      1.0  0.17152  0.61312  0.81763  1.0000
  Fe  Fe114     1.0  0.28263  0.59343  0.84530  1.0000
  S   S229      1.0  0.25592  0.60005  0.83463  1.0000
  H   H866      1.0  0.06867  0.51765  0.81990  1.0000
  S   S230      1.0  0.28974  0.56641  0.86511  1.0000
  H   H867      1.0  0.08300  0.51225  0.88213  1.0000
  C   C536      1.0  0.26457  0.56947  0.78746  1.0000
  C   C537      1.0  0.31889  0.49367  0.82854  1.0000
  H   H868      1.0  0.31742  0.55731  0.80551  1.0000
  C   C538      1.0  0.29081  0.51607  0.83642  1.0000
  H   H869      1.0  0.12578  0.49743  0.75190  1.0000
  H   H870      1.0  0.27585  0.52035  0.83848  1.0000
  H   H871      1.0  0.29442  0.54069  0.84295  1.0000
  C   C539      1.0  0.17112  0.60008  0.82848  1.0000
  H   H872      1.0  0.28570  0.55006  0.80087  1.0000
  H   H873      1.0  0.31866  0.64699  0.86945  1.0000
  H   H874      1.0  0.00564  0.49334  0.83777  1.0000
  H   H875      1.0  0.06315  0.59006  0.85492  1.0000
  H   H876      1.0  0.16199  0.59244  0.82523  1.0000
  C   C540      1.0  0.25040  0.58530  0.78868  1.0000
  C   C541      1.0  0.24749  0.59462  0.80333  1.0000
  C   C542      1.0  0.25888  0.58824  0.81661  1.0000
  C   C543      1.0  0.27272  0.57226  0.81552  1.0000
  C   C544      1.0  0.06555  0.60455  0.85007  1.0000
  H   H877      1.0  0.23693  0.60716  0.80395  1.0000
  H   H878      1.0  0.28146  0.56736  0.82572  1.0000
  H   H879      1.0  0.05570  0.64153  0.83927  1.0000
  H   H880      1.0  0.07589  0.63298  0.82319  1.0000
  H   H881      1.0  0.16103  0.50468  0.95088  1.0000
  H   H882      1.0  0.06233  0.55696  0.84175  1.0000
  S   S231      1.0  0.26967  0.55843  0.76847  1.0000
  H   H883      1.0  0.16424  0.60408  0.84209  1.0000
  H   H884      1.0  0.23360  0.53481  0.90594  1.0000
  C   C545      1.0  0.23573  0.60173  0.94025  1.0000
  C   C546      1.0  0.24630  0.58542  0.94895  1.0000
  C   C547      1.0  0.26447  0.57871  0.94019  1.0000
  C   C548      1.0  0.27187  0.58782  0.92236  1.0000
  C   C549      1.0  0.26131  0.60410  0.91356  1.0000
  C   C550      1.0  0.24339  0.61127  0.92269  1.0000
  H   H885      1.0  0.24054  0.57802  0.96251  1.0000
  H   H886      1.0  0.27258  0.56610  0.94705  1.0000
  H   H887      1.0  0.26692  0.61122  0.89979  1.0000
  H   H888      1.0  0.23521  0.62385  0.91590  1.0000
  H   H889      1.0  0.28943  0.65591  0.90406  1.0000
  C   C551      1.0  0.23614  0.50068  0.94464  1.0000
  H   H890      1.0  0.13997  0.52137  0.95626  1.0000
  C   C552      1.0  0.25479  0.55835  0.90632  1.0000
  S   S232      1.0  0.18954  0.61534  0.76167  1.0000
  C   C553      1.0  0.13451  0.60977  0.80144  1.0000
  C   C554      1.0  0.14581  0.59413  0.79488  1.0000
  C   C555      1.0  0.16268  0.59570  0.78228  1.0000
  C   C556      1.0  0.16813  0.61291  0.77630  1.0000
  C   C557      1.0  0.15660  0.62858  0.78249  1.0000
  C   C558      1.0  0.13977  0.62703  0.79498  1.0000
  H   H891      1.0  0.14151  0.58087  0.79940  1.0000
  H   H892      1.0  0.17148  0.58361  0.77730  1.0000
  H   H893      1.0  0.16081  0.64191  0.77785  1.0000
  H   H894      1.0  0.13107  0.63913  0.80000  1.0000
  C   C559      1.0  0.15299  0.55167  0.90229  1.0000
  C   C560      1.0  0.13502  0.55685  0.91228  1.0000
  C   C561      1.0  0.13241  0.56110  0.92989  1.0000
  C   C562      1.0  0.14772  0.56043  0.93746  1.0000
  C   C563      1.0  0.16566  0.55548  0.92729  1.0000
  C   C564      1.0  0.16827  0.55098  0.90984  1.0000
  H   H895      1.0  0.12313  0.55739  0.90657  1.0000
  H   H896      1.0  0.11849  0.56486  0.93771  1.0000
  H   H897      1.0  0.17752  0.55461  0.93307  1.0000
  H   H898      1.0  0.18218  0.54672  0.90226  1.0000
  C   C565      1.0  0.16862  0.49504  0.98546  1.0000
  C   C566      1.0  0.09749  0.51660  0.81921  1.0000
  H   H899      1.0  0.05699  0.61186  0.80651  1.0000
  H   H900      1.0  0.03259  0.60199  0.84570  1.0000
  H   H901      1.0  0.06076  0.59030  0.82293  1.0000
  H   H902      1.0  0.09508  0.53081  0.82061  1.0000
  H   H903      1.0  0.02363  0.56136  0.89321  1.0000
  H   H904      1.0  0.31753  0.52996  0.79417  1.0000
  C   C567      1.0  0.32205  0.56460  0.79093  1.0000
  C   C568      1.0  0.03614  0.61600  0.84015  1.0000
  C   C569      1.0  0.30131  0.52773  0.83885  1.0000
  H   H905      1.0  0.23259  0.59257  0.90038  1.0000
  H   H906      1.0  0.25437  0.51491  0.78838  1.0000
  C   C570      1.0  0.01176  0.56905  0.86854  1.0000
  H   H907      1.0  0.25371  0.55592  0.92166  1.0000
  C   C571      1.0  0.29953  0.49900  0.83132  1.0000
  N   N56       1.0  0.06516  0.49678  0.87731  1.0000
  H   H908      1.0  0.18753  0.51834  0.93166  1.0000
  C   C572      1.0  0.32189  0.53759  0.77965  1.0000
  C   C573      1.0  0.30687  0.62017  0.91232  1.0000
  C   C574      1.0  0.20466  0.51826  0.95052  1.0000
  H   H909      1.0  0.24664  0.55361  0.87563  1.0000
  H   H910      1.0  0.22472  0.56983  0.87674  1.0000
  C   C575      1.0  0.06063  0.63359  0.82789  1.0000
  H   H911      1.0  0.15739  0.51551  0.85730  1.0000
  H   H912      1.0  0.29193  0.62150  0.91230  1.0000
  H   H913      1.0  0.06141  0.51247  0.89840  1.0000
  H   H914      1.0  0.19378  0.52670  0.95879  1.0000
  Fe  Fe115     1.0  0.20781  0.59002  0.75188  1.0000
  H   H915      1.0  0.22468  0.57915  0.92281  1.0000
  S   S233      1.0  0.20819  0.52174  0.75735  1.0000
  C   C576      1.0  0.20112  0.51366  0.93516  1.0000
  H   H916      1.0  0.26266  0.56968  0.89980  1.0000
  H   H917      1.0  0.24582  0.57788  0.87358  1.0000
  C   C577      1.0  0.08255  0.50919  0.81859  1.0000
  C   C578      1.0  0.02650  0.56279  0.87824  1.0000
  Fe  Fe116     1.0  0.20633  0.54406  0.97860  1.0000
  C   C579      1.0  0.22625  0.54798  0.91063  1.0000
  C   C580      1.0  0.06357  0.60463  0.81871  1.0000
  C   C581      1.0  0.11536  0.50555  0.81821  1.0000
  H   H918      1.0  0.24007  0.51888  0.77155  1.0000
  H   H919      1.0  0.06022  0.61148  0.86219  1.0000
  H   H920      1.0  0.17963  0.51171  0.86325  1.0000
  C   C582      1.0  0.27529  0.56268  0.80124  1.0000
  C   C583      1.0  0.04840  0.56064  0.84928  1.0000
  H   H921      1.0  0.21194  0.55134  0.90783  1.0000
  N   N57       1.0  0.18994  0.58859  0.82905  1.0000
  C   C584      1.0  0.20142  0.59905  0.83396  1.0000
  C   C585      1.0  0.18858  0.57119  0.84318  1.0000
  C   C586      1.0  0.19860  0.58406  0.81055  1.0000
  H   H922      1.0  0.20284  0.61220  0.82348  1.0000
  H   H923      1.0  0.21573  0.59078  0.83456  1.0000
  H   H924      1.0  0.19527  0.60286  0.84776  1.0000
  H   H925      1.0  0.18003  0.56293  0.83987  1.0000
  H   H926      1.0  0.20250  0.56217  0.84408  1.0000
  H   H927      1.0  0.18185  0.57408  0.85729  1.0000
  H   H928      1.0  0.19027  0.57623  0.80633  1.0000
  H   H929      1.0  0.21286  0.57544  0.81039  1.0000
  H   H930      1.0  0.19979  0.59689  0.79952  1.0000
  N   N58       1.0  0.23629  0.56328  0.90135  1.0000
  H   H931      1.0  0.24206  0.59067  0.77807  1.0000
  S   S234      1.0  0.22664  0.51792  0.97416  1.0000
  C   C587      1.0  0.03376  0.56711  0.83956  1.0000
  H   H932      1.0  0.05391  0.64169  0.81599  1.0000
  C   C588      1.0  0.23843  0.56624  0.88093  1.0000
  H   H933      1.0  0.07888  0.60335  0.81393  1.0000
  C   C589      1.0  0.04490  0.55905  0.86856  1.0000
  H   H934      1.0  0.08082  0.60370  0.84618  1.0000
  H   H935      1.0  0.29774  0.63811  0.87914  1.0000
  H   H936      1.0  0.03664  0.56890  0.82455  1.0000
  H   H937      1.0  0.02881  0.62281  0.82838  1.0000
  H   H938      1.0  0.03019  0.62403  0.85141  1.0000
  N   N59       1.0  0.05645  0.61469  0.83421  1.0000
  S   S235      1.0  0.21862  0.56295  0.76969  1.0000
  Fe  Fe117     1.0  0.21678  0.54971  0.74699  1.0000
  Fe  Fe118     1.0  0.31854  0.60547  0.84468  1.0000
  Fe  Fe119     1.0  0.24645  0.56681  0.75256  1.0000
  H   H939      1.0  0.24968  0.49565  0.94834  1.0000
  H   H940      1.0  0.31426  0.60645  0.90879  1.0000
  S   S236      1.0  0.31061  0.59082  0.82628  1.0000
  S   S237      1.0  0.16977  0.58888  0.98440  1.0000
  C   C590      1.0  0.31257  0.63580  0.88005  1.0000
  H   H941      1.0  0.32519  0.56907  0.75408  1.0000
  H   H942      1.0  0.12597  0.49521  0.97856  1.0000
  H   H943      1.0  0.21134  0.58430  0.90500  1.0000
  C   C591      1.0  0.21509  0.50268  0.92449  1.0000
  H   H944      1.0  0.99764  0.57265  0.87598  1.0000
  C   C592      1.0  0.16984  0.50465  0.86019  1.0000
  Fe  Fe120     1.0  0.31817  0.56459  0.84712  1.0000
  H   H945      1.0  0.31973  0.62236  0.87578  1.0000
  H   H946      1.0  0.06578  0.52198  0.85650  1.0000
  H   H947      1.0  0.29059  0.49893  0.76548  1.0000
  H   H948      1.0  0.30574  0.65394  0.91840  1.0000
  C   C593      1.0  0.26319  0.49495  0.75082  1.0000
  C   C594      1.0  0.15336  0.51408  0.96063  1.0000
  C   C595      1.0  0.30450  0.65354  0.90418  1.0000
  C   C596      1.0  0.25456  0.51411  0.77386  1.0000
  H   H949      1.0  0.04396  0.52132  0.87255  1.0000
  H   H950      1.0  0.09071  0.49401  0.85710  1.0000
  C   C597      1.0  0.05597  0.51274  0.86468  1.0000
  H   H951      1.0  0.15021  0.51295  0.75410  1.0000
  H   H952      1.0  0.30940  0.57290  0.78561  1.0000
  H   H953      1.0  0.16155  0.52492  0.95876  1.0000
  N   N60       1.0  0.31461  0.63564  0.89898  1.0000
  H   H954      1.0  0.30803  0.61959  0.92682  1.0000
  C   C598      1.0  0.15581  0.49983  0.76332  1.0000
  N   N61       1.0  0.15042  0.50374  0.98014  1.0000
  C   C599      1.0  0.15629  0.49705  0.89292  1.0000
  H   H955      1.0  0.17096  0.49923  0.76162  1.0000
  H   H956      1.0  0.30905  0.54453  0.77402  1.0000
  H   H957      1.0  0.17642  0.49942  0.84714  1.0000
  H   H958      1.0  0.16620  0.50328  0.89691  1.0000
  H   H959      1.0  0.14920  0.50103  0.77798  1.0000
  C   C600      1.0  0.32064  0.52264  0.83593  1.0000
  C   C601      1.0  0.23263  0.49623  0.92918  1.0000
  N   N62       1.0  0.26253  0.49510  0.77046  1.0000
  H   H960      1.0  0.14387  0.50824  0.89087  1.0000
  H   H961      1.0  0.31003  0.66547  0.89429  1.0000
  S   S238      1.0  0.20973  0.49475  0.90717  1.0000
  H   H962      1.0  0.27194  0.50453  0.74105  1.0000
  H   H963      1.0  0.26273  0.52433  0.76435  1.0000
  H   H964      1.0  0.04032  0.49310  0.89781  1.0000
  H   H965      1.0  0.13859  0.49100  0.86891  1.0000
  H   H966      1.0  0.07943  0.49179  0.89984  1.0000
  Fe  Fe121     1.0  0.48397  0.16873  0.09970  1.0000
  S   S239      1.0  0.48369  0.19762  0.08293  1.0000
  S   S240      1.0  0.51099  0.15234  0.10699  1.0000
  Fe  Fe122     1.0  0.44422  0.17044  0.09996  1.0000
  S   S241      1.0  0.44038  0.19969  0.08314  1.0000
  S   S242      1.0  0.42126  0.15465  0.10627  1.0000
  Fe  Fe123     1.0  0.46794  0.18989  0.06562  1.0000
  S   S243      1.0  0.47431  0.20037  0.03436  1.0000
  Fe  Fe124     1.0  0.45639  0.20507  0.10184  1.0000
  S   S244      1.0  0.44959  0.23350  0.10911  1.0000
  S   S245      1.0  0.47057  0.16020  0.08088  1.0000
  S   S246      1.0  0.45786  0.17647  0.12029  1.0000
  H   H967      1.0  0.57387  0.30328  0.18881  1.0000
  H   H968      1.0  0.65799  0.39998  0.20293  1.0000
  H   H969      1.0  0.34963  0.35237  0.22662  1.0000
  S   S247      1.0  0.57344  0.99928  0.21229  1.0000
  H   H970      1.0  0.49885  0.12719  0.21306  1.0000
  H   H971      1.0  0.58799  0.23648  0.03897  1.0000
  H   H972      1.0  0.40629  0.16339  0.03926  1.0000
  H   H973      1.0  0.59144  0.27506  0.13305  1.0000
  Fe  Fe125     1.0  0.44188  0.07655  0.19086  1.0000
  H   H974      1.0  0.51427  0.01939  0.20112  1.0000
  C   C602      1.0  0.58900  0.20935  0.03417  1.0000
  C   C603      1.0  0.60356  0.15323  0.20143  1.0000
  S   S248      1.0  0.59151  0.17427  0.02850  1.0000
  Fe  Fe126     1.0  0.55786  0.20668  0.14377  1.0000
  S   S249      1.0  0.55423  0.23413  0.12399  1.0000
  S   S250      1.0  0.53270  0.19444  0.15749  1.0000
  S   S251      1.0  0.57023  0.21608  0.16271  1.0000
  S   S252      1.0  0.58525  0.19466  0.12717  1.0000
  C   C604      1.0  0.60007  0.28985  0.14927  1.0000
  C   C605      1.0  0.47263  0.35212  0.19614  1.0000
  C   C606      1.0  0.57037  0.28028  0.15711  1.0000
  H   H975      1.0  0.41956  0.02794  0.21050  1.0000
  H   H976      1.0  0.41450  0.04652  0.16132  1.0000
  S   S253      1.0  0.44038  0.31462  0.21885  1.0000
  H   H977      1.0  0.42449  0.19096  0.22086  1.0000
  H   H978      1.0  0.43279  0.20168  0.02282  1.0000
  H   H979      1.0  0.64601  0.33678  0.22896  1.0000
  C   C607      1.0  0.44991  0.20305  0.23141  1.0000
  Fe  Fe127     1.0  0.56898  0.31761  0.23195  1.0000
  C   C608      1.0  0.52195  0.31370  0.19790  1.0000
  H   H980      1.0  0.46738  0.38738  0.17674  1.0000
  C   C609      1.0  0.58821  0.21565  0.06433  1.0000
  Fe  Fe128     1.0  0.46385  0.29797  0.20180  1.0000
  C   C610      1.0  0.60388  0.16851  0.18616  1.0000
  Fe  Fe129     1.0  0.43972  0.27267  0.19837  1.0000
  S   S254      1.0  0.44315  0.24479  0.19077  1.0000
  S   S255      1.0  0.44776  0.29893  0.18035  1.0000
  C   C611      1.0  0.36647  0.38541  0.19128  1.0000
  C   C612      1.0  0.38358  0.37449  0.18446  1.0000
  H   H981      1.0  0.36289  0.39995  0.18481  1.0000
  H   H982      1.0  0.39298  0.38070  0.17260  1.0000
  S   S256      1.0  0.59711  0.23454  0.12496  1.0000
  N   N63       1.0  0.63533  0.22101  0.99005  1.0000
  C   C613      1.0  0.40116  0.04554  0.17148  1.0000
  H   H983      1.0  0.48177  0.37221  0.16171  1.0000
  C   C614      1.0  0.53240  0.31647  0.20952  1.0000
  C   C615      1.0  0.58765  0.28112  0.14527  1.0000
  Fe  Fe130     1.0  0.47942  0.07150  0.20058  1.0000
  H   H984      1.0  0.45150  0.35199  0.16152  1.0000
  H   H985      1.0  0.54576  0.32032  0.20364  1.0000
  H   H986      1.0  0.57810  0.03705  0.20551  1.0000
  C   C616      1.0  0.59528  0.29748  0.16525  1.0000
  H   H987      1.0  0.59108  0.17664  0.18213  1.0000
  H   H988      1.0  0.59050  0.14956  0.20915  1.0000
  C   C617      1.0  0.58981  0.19046  0.04214  1.0000
  C   C618      1.0  0.58848  0.19684  0.07242  1.0000
  C   C619      1.0  0.58939  0.18425  0.06130  1.0000
  H   H989      1.0  0.58839  0.19192  0.08714  1.0000
  H   H990      1.0  0.58995  0.16963  0.06754  1.0000
  C   C620      1.0  0.38863  0.35567  0.19294  1.0000
  S   S257      1.0  0.41005  0.34244  0.18345  1.0000
  H   H991      1.0  0.58898  0.21430  0.01954  1.0000
  C   C621      1.0  0.58836  0.22189  0.04521  1.0000
  Fe  Fe131     1.0  0.43272  0.28712  0.23370  1.0000
  Fe  Fe132     1.0  0.42358  0.31418  0.19849  1.0000
  H   H992      1.0  0.38014  0.33331  0.21492  1.0000
  H   H993      1.0  0.54312  0.06857  0.20258  1.0000
  Fe  Fe133     1.0  0.56871  0.24285  0.14165  1.0000
  S   S258      1.0  0.58259  0.33747  0.20809  1.0000
  C   C622      1.0  0.44878  0.23636  0.13171  1.0000
  C   C623      1.0  0.44500  0.25445  0.13509  1.0000
  C   C624      1.0  0.44354  0.25729  0.15308  1.0000
  C   C625      1.0  0.44578  0.24199  0.16780  1.0000
  C   C626      1.0  0.44996  0.22390  0.16437  1.0000
  C   C627      1.0  0.45152  0.22107  0.14636  1.0000
  H   H994      1.0  0.44288  0.26632  0.12378  1.0000
  H   H995      1.0  0.44025  0.27128  0.15560  1.0000
  H   H996      1.0  0.45183  0.21200  0.17568  1.0000
  H   H997      1.0  0.45454  0.20710  0.14387  1.0000
  C   C628      1.0  0.42517  0.10134  0.15132  1.0000
  C   C629      1.0  0.41681  0.10313  0.13629  1.0000
  C   C630      1.0  0.41555  0.11961  0.12270  1.0000
  C   C631      1.0  0.42298  0.13432  0.12380  1.0000
  C   C632      1.0  0.43133  0.13265  0.13885  1.0000
  C   C633      1.0  0.43219  0.11623  0.15276  1.0000
  H   H998      1.0  0.41124  0.09175  0.13514  1.0000
  H   H999      1.0  0.40895  0.12089  0.11119  1.0000
  H   H1000     1.0  0.43664  0.14418  0.14002  1.0000
  H   H1001     1.0  0.43804  0.11519  0.16466  1.0000
  C   C634      1.0  0.46667  0.17186  0.99090  1.0000
  H   H1002     1.0  0.49608  0.03394  0.21398  1.0000
  C   C635      1.0  0.47046  0.19904  0.99990  1.0000
  C   C636      1.0  0.47196  0.18878  0.01787  1.0000
  C   C637      1.0  0.47129  0.16984  0.02223  1.0000
  C   C638      1.0  0.46853  0.16145  0.00881  1.0000
  H   H1003     1.0  0.42590  0.01326  0.17460  1.0000
  H   H1004     1.0  0.47105  0.21367  0.99640  1.0000
  H   H1005     1.0  0.47287  0.16167  0.03593  1.0000
  H   H1006     1.0  0.46786  0.14684  0.01229  1.0000
  C   C639      1.0  0.51703  0.16432  0.12075  1.0000
  C   C640      1.0  0.53478  0.16839  0.11650  1.0000
  C   C641      1.0  0.53938  0.17848  0.12724  1.0000
  C   C642      1.0  0.52648  0.18381  0.14265  1.0000
  C   C643      1.0  0.50880  0.17960  0.14697  1.0000
  C   C644      1.0  0.50396  0.17015  0.13582  1.0000
  H   H1007     1.0  0.54480  0.16414  0.10466  1.0000
  H   H1008     1.0  0.55297  0.18194  0.12365  1.0000
  H   H1009     1.0  0.49878  0.18376  0.15885  1.0000
  H   H1010     1.0  0.49018  0.16719  0.13907  1.0000
  H   H1011     1.0  0.40323  0.19599  0.06993  1.0000
  C   C645      1.0  0.62022  0.14291  0.20676  1.0000
  C   C646      1.0  0.35407  0.37745  0.20639  1.0000
  Fe  Fe134     1.0  0.58274  0.22335  0.10883  1.0000
  C   C647      1.0  0.56533  0.28857  0.17261  1.0000
  C   C648      1.0  0.50461  0.30870  0.20533  1.0000
  C   C649      1.0  0.45638  0.00398  0.20460  1.0000
  N   N64       1.0  0.56476  0.13906  0.17150  1.0000
  C   C650      1.0  0.57043  0.15727  0.16465  1.0000
  C   C651      1.0  0.57113  0.12976  0.18911  1.0000
  C   C652      1.0  0.57318  0.12735  0.15747  1.0000
  C   C653      1.0  0.54431  0.14187  0.17476  1.0000
  H   H1012     1.0  0.56600  0.16454  0.15129  1.0000
  H   H1013     1.0  0.58578  0.15573  0.16221  1.0000
  H   H1014     1.0  0.56398  0.16663  0.17471  1.0000
  H   H1015     1.0  0.56699  0.11602  0.19471  1.0000
  H   H1016     1.0  0.58652  0.12741  0.18724  1.0000
  H   H1017     1.0  0.56493  0.13824  0.20000  1.0000
  H   H1018     1.0  0.56918  0.11347  0.16225  1.0000
  H   H1019     1.0  0.58862  0.12499  0.15463  1.0000
  H   H1020     1.0  0.56859  0.13403  0.14401  1.0000
  H   H1021     1.0  0.53744  0.15091  0.18508  1.0000
  H   H1022     1.0  0.53953  0.12843  0.18019  1.0000
  H   H1023     1.0  0.53903  0.14863  0.16172  1.0000
  N   N65       1.0  0.52992  0.20648  0.03701  1.0000
  C   C654      1.0  0.52539  0.19225  0.02964  1.0000
  C   C655      1.0  0.54567  0.21386  0.02401  1.0000
  C   C656      1.0  0.53511  0.19796  0.05535  1.0000
  C   C657      1.0  0.51360  0.22187  0.03887  1.0000
  H   H1024     1.0  0.51350  0.18643  0.03914  1.0000
  H   H1025     1.0  0.53741  0.18045  0.02798  1.0000
  H   H1026     1.0  0.52136  0.19828  0.01582  1.0000
  H   H1027     1.0  0.54983  0.22422  0.02941  1.0000
  H   H1028     1.0  0.55799  0.20250  0.02177  1.0000
  H   H1029     1.0  0.54213  0.22086  0.01017  1.0000
  H   H1030     1.0  0.52374  0.19186  0.06551  1.0000
  H   H1031     1.0  0.53841  0.20835  0.06145  1.0000
  H   H1032     1.0  0.54765  0.18655  0.05420  1.0000
  H   H1033     1.0  0.51629  0.23270  0.04480  1.0000
  H   H1034     1.0  0.50122  0.21678  0.04803  1.0000
  H   H1035     1.0  0.50968  0.22871  0.02512  1.0000
  N   N66       1.0  0.48992  0.10626  0.13864  1.0000
  C   C658      1.0  0.48342  0.12080  0.14991  1.0000
  C   C659      1.0  0.48249  0.08944  0.14891  1.0000
  C   C660      1.0  0.51045  0.10152  0.13497  1.0000
  C   C661      1.0  0.48339  0.11326  0.12081  1.0000
  H   H1036     1.0  0.48893  0.13362  0.14253  1.0000
  H   H1037     1.0  0.48803  0.11594  0.16351  1.0000
  H   H1038     1.0  0.46802  0.12492  0.15286  1.0000
  H   H1039     1.0  0.48721  0.07817  0.14083  1.0000
  H   H1040     1.0  0.48713  0.08381  0.16243  1.0000
  H   H1041     1.0  0.46705  0.09243  0.15196  1.0000
  H   H1042     1.0  0.51653  0.11394  0.12734  1.0000
  H   H1043     1.0  0.51594  0.09069  0.12638  1.0000
  H   H1044     1.0  0.51575  0.09608  0.14821  1.0000
  H   H1045     1.0  0.48858  0.12605  0.11276  1.0000
  H   H1046     1.0  0.46796  0.11686  0.12310  1.0000
  H   H1047     1.0  0.48824  0.10275  0.11185  1.0000
  H   H1048     1.0  0.61354  0.29030  0.14025  1.0000
  Fe  Fe135     1.0  0.59730  0.20667  0.14462  1.0000
  S   S259      1.0  0.33195  0.39041  0.21461  1.0000
  H   H1049     1.0  0.63389  0.23129  0.15227  1.0000
  C   C662      1.0  0.63128  0.36390  0.23382  1.0000
  N   N67       1.0  0.51515  0.01497  0.23009  1.0000
  H   H1050     1.0  0.61924  0.21003  0.18948  1.0000
  C   C663      1.0  0.53347  0.08136  0.20484  1.0000
  H   H1051     1.0  0.63499  0.25191  0.19223  1.0000
  C   C664      1.0  0.42034  0.20534  0.22357  1.0000
  S   S260      1.0  0.45787  0.27046  0.21845  1.0000
  H   H1052     1.0  0.37970  0.04534  0.20561  1.0000
  S   S261      1.0  0.42812  0.06857  0.22080  1.0000
  S   S262      1.0  0.58289  0.09543  0.22852  1.0000
  H   H1053     1.0  0.61869  0.20003  0.00183  1.0000
  H   H1054     1.0  0.55130  0.08996  0.21766  1.0000
  C   C665      1.0  0.64679  0.34930  0.23283  1.0000
  H   H1055     1.0  0.44046  0.37735  0.20012  1.0000
  H   H1056     1.0  0.43050  0.03851  0.18762  1.0000
  N   N68       1.0  0.50339  0.25263  0.16057  1.0000
  C   C666      1.0  0.51840  0.24244  0.17077  1.0000
  C   C667      1.0  0.50932  0.26897  0.14705  1.0000
  C   C668      1.0  0.48661  0.25901  0.17394  1.0000
  C   C669      1.0  0.49922  0.24017  0.15065  1.0000
  H   H1057     1.0  0.51454  0.22990  0.18097  1.0000
  H   H1058     1.0  0.52190  0.25148  0.17837  1.0000
  H   H1059     1.0  0.53131  0.23759  0.16108  1.0000
  H   H1060     1.0  0.49833  0.27704  0.13912  1.0000
  H   H1061     1.0  0.51262  0.27859  0.15418  1.0000
  H   H1062     1.0  0.52211  0.26474  0.13685  1.0000
  H   H1063     1.0  0.47481  0.26625  0.16680  1.0000
  H   H1064     1.0  0.48913  0.26888  0.18126  1.0000
  H   H1065     1.0  0.48205  0.24712  0.18469  1.0000
  H   H1066     1.0  0.48789  0.24738  0.14283  1.0000
  H   H1067     1.0  0.49472  0.22771  0.16049  1.0000
  H   H1068     1.0  0.51165  0.23498  0.14052  1.0000
  H   H1069     1.0  0.59272  0.23685  0.18989  1.0000
  H   H1070     1.0  0.64819  0.24630  0.17035  1.0000
  H   H1071     1.0  0.53625  0.99490  0.21701  1.0000
  C   C670      1.0  0.49745  0.30705  0.22445  1.0000
  C   C671      1.0  0.63868  0.22166  0.00827  1.0000
  H   H1072     1.0  0.42661  0.16728  0.06770  1.0000
  H   H1073     1.0  0.39553  0.21075  0.04940  1.0000
  H   H1074     1.0  0.39501  0.05984  0.17414  1.0000
  H   H1075     1.0  0.42402  0.21504  0.21006  1.0000
  C   C672      1.0  0.42203  0.19333  0.02473  1.0000
  H   H1076     1.0  0.43163  0.37268  0.18216  1.0000
  H   H1077     1.0  0.45845  0.38306  0.15872  1.0000
  C   C673      1.0  0.51615  0.08557  0.19976  1.0000
  H   H1078     1.0  0.48723  0.34720  0.18924  1.0000
  C   C674      1.0  0.43109  0.17327  0.05269  1.0000
  H   H1079     1.0  0.41102  0.05186  0.20045  1.0000
  H   H1080     1.0  0.43729  0.16140  0.04550  1.0000
  S   S263      1.0  0.58830  0.23166  0.07745  1.0000
  S   S264      1.0  0.55506  0.26843  0.15324  1.0000
  H   H1081     1.0  0.41524  0.00275  0.19752  1.0000
  H   H1082     1.0  0.43563  0.35485  0.20209  1.0000
  Fe  Fe136     1.0  0.60216  0.31157  0.20070  1.0000
  C   C675      1.0  0.62086  0.17338  0.17632  1.0000
  C   C676      1.0  0.63702  0.14802  0.19701  1.0000
  C   C677      1.0  0.57776  0.29714  0.17669  1.0000
  H   H1083     1.0  0.55199  0.28787  0.18180  1.0000
  S   S265      1.0  0.62235  0.19233  0.15730  1.0000
  S   S266      1.0  0.62093  0.12400  0.22590  1.0000
  S   S267      1.0  0.61190  0.30560  0.17184  1.0000
  C   C678      1.0  0.63733  0.16318  0.18194  1.0000
  S   S268      1.0  0.46604  0.05258  0.19251  1.0000
  C   C679      1.0  0.37641  0.34780  0.20830  1.0000
  S   S269      1.0  0.42684  0.08011  0.16772  1.0000
  N   N69       1.0  0.42954  0.20731  0.23782  1.0000
  C   C680      1.0  0.52712  0.02865  0.22673  1.0000
  N   N70       1.0  0.40419  0.03198  0.18889  1.0000
  C   C681      1.0  0.53809  0.09348  0.21339  1.0000
  S   S270      1.0  0.50984  0.07008  0.19003  1.0000
  H   H1084     1.0  0.46803  0.33978  0.20611  1.0000
  C   C682      1.0  0.44125  0.36665  0.19212  1.0000
  Fe  Fe137     1.0  0.60224  0.33611  0.22668  1.0000
  S   S271      1.0  0.53166  0.12600  0.22565  1.0000
  H   H1085     1.0  0.52740  0.31536  0.18307  1.0000
  H   H1086     1.0  0.60662  0.23452  0.99612  1.0000
  H   H1087     1.0  0.62953  0.21944  0.20314  1.0000
  C   C683      1.0  0.60264  0.24577  0.18905  1.0000
  N   N71       1.0  0.41542  0.18577  0.04468  1.0000
  S   S272      1.0  0.41381  0.28772  0.21486  1.0000
  H   H1088     1.0  0.44224  0.18084  0.05158  1.0000
  C   C684      1.0  0.57726  0.03125  0.22024  1.0000
  H   H1089     1.0  0.47281  0.36224  0.20442  1.0000
  H   H1090     1.0  0.35279  0.38447  0.14097  1.0000
  H   H1091     1.0  0.37629  0.02717  0.19626  1.0000
  H   H1092     1.0  0.45434  0.21263  0.21806  1.0000
  H   H1093     1.0  0.39172  0.04169  0.16463  1.0000
  S   S273      1.0  0.33428  0.43660  0.17348  1.0000
  S   S274      1.0  0.49213  0.30510  0.19022  1.0000
  C   C685      1.0  0.62042  0.23821  0.15982  1.0000
  C   C686      1.0  0.35912  0.35863  0.21489  1.0000
  H   H1094     1.0  0.41053  0.20259  0.01810  1.0000
  H   H1095     1.0  0.41826  0.20981  0.05302  1.0000
  C   C687      1.0  0.52566  0.11007  0.21623  1.0000
  S   S275      1.0  0.62286  0.31176  0.21726  1.0000
  H   H1096     1.0  0.49525  0.00989  0.21707  1.0000
  C   C688      1.0  0.40089  0.17517  0.04669  1.0000
  H   H1097     1.0  0.47497  0.34112  0.16453  1.0000
  H   H1098     1.0  0.58169  0.05598  0.22627  1.0000
  H   H1099     1.0  0.39577  0.16918  0.06163  1.0000
  C   C689      1.0  0.46068  0.34636  0.17191  1.0000
  N   N72       1.0  0.62140  0.23869  0.17892  1.0000
  S   S276      1.0  0.60959  0.36203  0.23053  1.0000
  H   H1100     1.0  0.42746  0.23690  0.22793  1.0000
  H   H1101     1.0  0.59686  0.25999  0.18192  1.0000
  C   C690      1.0  0.57919  0.04203  0.23199  1.0000
  S   S277      1.0  0.45665  0.09638  0.19575  1.0000
  H   H1102     1.0  0.42841  0.18201  0.01680  1.0000
  H   H1103     1.0  0.45940  0.01736  0.19726  1.0000
  Fe  Fe138     1.0  0.45358  0.04582  0.22280  1.0000
  H   H1104     1.0  0.65065  0.21064  0.01222  1.0000
  H   H1105     1.0  0.64993  0.14010  0.20102  1.0000
  H   H1106     1.0  0.45560  0.33409  0.18139  1.0000
  C   C691      1.0  0.41246  0.01328  0.18473  1.0000
  Fe  Fe139     1.0  0.33218  0.45985  0.18786  1.0000
  C   C692      1.0  0.50779  0.31012  0.23605  1.0000
  C   C693      1.0  0.50362  0.10198  0.20294  1.0000
  C   C694      1.0  0.62849  0.21965  0.18871  1.0000
  H   H1107     1.0  0.60975  0.23043  0.15997  1.0000
  H   H1108     1.0  0.40495  0.20853  0.22794  1.0000
  C   C695      1.0  0.46731  0.37650  0.16930  1.0000
  C   C696      1.0  0.38626  0.03143  0.20212  1.0000
  C   C697      1.0  0.57489  0.01282  0.22739  1.0000
  H   H1109     1.0  0.64249  0.21374  0.18125  1.0000
  C   C698      1.0  0.50473  0.01967  0.21489  1.0000
  N   N73       1.0  0.46046  0.36041  0.18239  1.0000
  C   C699      1.0  0.50849  0.11437  0.21089  1.0000
  C   C700      1.0  0.41688  0.03775  0.19728  1.0000
  C   C701      1.0  0.45522  0.99130  0.19452  1.0000
  S   S278      1.0  0.58717  0.29184  0.22320  1.0000
  C   C702      1.0  0.40772  0.20126  0.05469  1.0000
  H   H1110     1.0  0.49022  0.10529  0.19911  1.0000
  H   H1111     1.0  0.38875  0.18416  0.04090  1.0000
  H   H1112     1.0  0.64165  0.23535  0.00811  1.0000
  C   C703      1.0  0.34459  0.38625  0.15501  1.0000
  H   H1113     1.0  0.62762  0.16653  0.23033  1.0000
  H   H1114     1.0  0.62886  0.26562  0.17083  1.0000
  H   H1115     1.0  0.61673  0.25240  0.15140  1.0000
  Fe  Fe140     1.0  0.58867  0.18414  0.99847  1.0000
  H   H1116     1.0  0.38813  0.02135  0.21542  1.0000
  C   C704      1.0  0.45348  0.99936  0.22403  1.0000
  H   H1117     1.0  0.62637  0.21943  0.01960  1.0000
  H   H1118     1.0  0.40316  0.00834  0.17861  1.0000
  H   H1119     1.0  0.64293  0.19109  0.99465  1.0000
  H   H1120     1.0  0.53508  0.02574  0.23801  1.0000
  S   S279      1.0  0.35596  0.47493  0.17887  1.0000
  H   H1121     1.0  0.60284  0.24662  0.20345  1.0000
  Fe  Fe141     1.0  0.44469  0.08687  0.22609  1.0000
  H   H1122     1.0  0.53741  0.02842  0.21337  1.0000
  S   S280      1.0  0.56519  0.17680  0.99093  1.0000
  H   H1123     1.0  0.51885  0.04313  0.22588  1.0000
  H   H1124     1.0  0.45484  0.18859  0.22900  1.0000
  S   S281      1.0  0.46880  0.06335  0.23124  1.0000
  C   C705      1.0  0.63125  0.20268  0.99107  1.0000
  H   H1125     1.0  0.65372  0.39664  0.18185  1.0000
  H   H1126     1.0  0.65047  0.16686  0.17441  1.0000
  C   C706      1.0  0.63396  0.25110  0.17807  1.0000
  C   C707      1.0  0.52541  0.31459  0.22865  1.0000
  H   H1127     1.0  0.34882  0.39774  0.15859  1.0000
  H   H1128     1.0  0.50843  0.16704  0.99507  1.0000
  H   H1129     1.0  0.45731  0.99513  0.17949  1.0000
  C   C708      1.0  0.52674  0.99605  0.23065  1.0000
  H   H1130     1.0  0.48399  0.30340  0.23030  1.0000
  H   H1131     1.0  0.34885  0.37329  0.16522  1.0000
  S   S282      1.0  0.45394  0.01555  0.23703  1.0000
  H   H1132     1.0  0.64194  0.14449  0.23780  1.0000
  H   H1133     1.0  0.65975  0.37690  0.19977  1.0000
  C   C709      1.0  0.63280  0.38035  0.23814  1.0000
  H   H1134     1.0  0.52945  0.13723  0.98912  1.0000
  H   H1135     1.0  0.64831  0.16557  0.23840  1.0000
  C   C710      1.0  0.57529  0.01634  0.25821  1.0000
  C   C711      1.0  0.49182  0.12963  0.30133  1.0000
  H   H1136     1.0  0.54932  0.15734  0.31170  1.0000
  H   H1137     1.0  0.59864  0.31505  0.29237  1.0000
  C   C712      1.0  0.62418  0.99313  0.26466  1.0000
  H   H1138     1.0  0.63696  0.99651  0.25467  1.0000
  H   H1139     1.0  0.60902  0.18546  0.25412  1.0000
  S   S283      1.0  0.58460  0.16437  0.37048  1.0000
  H   H1140     1.0  0.61433  0.13383  0.26178  1.0000
  H   H1141     1.0  0.55084  0.27598  0.25090  1.0000
  N   N74       1.0  0.62710  0.31821  0.28407  1.0000
  H   H1142     1.0  0.60252  0.21694  0.45378  1.0000
  S   S284      1.0  0.55127  0.09380  0.26752  1.0000
  H   H1143     1.0  0.51408  0.15153  0.27857  1.0000
  H   H1144     1.0  0.60457  0.32997  0.30398  1.0000
  Fe  Fe142     1.0  0.55963  0.18745  0.36833  1.0000
  S   S285      1.0  0.53076  0.18085  0.37792  1.0000
  S   S286      1.0  0.60999  0.16116  0.32041  1.0000
  S   S287      1.0  0.43210  0.11073  0.24110  1.0000
  H   H1145     1.0  0.62488  0.99514  0.27850  1.0000
  C   C713      1.0  0.60908  0.26235  0.28072  1.0000
  H   H1146     1.0  0.57101  0.17285  0.31891  1.0000
  H   H1147     1.0  0.61829  0.20790  0.39392  1.0000
  S   S288      1.0  0.58021  0.24759  0.34132  1.0000
  S   S289      1.0  0.61129  0.17006  0.40511  1.0000
  S   S290      1.0  0.42675  0.27966  0.26498  1.0000
  C   C714      1.0  0.60047  0.13212  0.31215  1.0000
  Fe  Fe143     1.0  0.43778  0.14152  0.32660  1.0000
  S   S291      1.0  0.45056  0.14561  0.34862  1.0000
  S   S292      1.0  0.44394  0.11283  0.32042  1.0000
  Fe  Fe144     1.0  0.42008  0.18240  0.31716  1.0000
  S   S293      1.0  0.43191  0.19005  0.33778  1.0000
  S   S294      1.0  0.40051  0.20332  0.30057  1.0000
  Fe  Fe145     1.0  0.45808  0.17074  0.32767  1.0000
  S   S295      1.0  0.48696  0.17673  0.31830  1.0000
  Fe  Fe146     1.0  0.42308  0.16442  0.35681  1.0000
  S   S296      1.0  0.40930  0.16641  0.38656  1.0000
  S   S297      1.0  0.44695  0.16547  0.30506  1.0000
  S   S298      1.0  0.40960  0.15788  0.33673  1.0000
  C   C715      1.0  0.61842  0.17690  0.26366  1.0000
  S   S299      1.0  0.59439  0.09341  0.26844  1.0000
  C   C716      1.0  0.57345  0.00556  0.24649  1.0000
  C   C717      1.0  0.56988  0.13262  0.30745  1.0000
  C   C718      1.0  0.38604  0.16409  0.39587  1.0000
  C   C719      1.0  0.37551  0.15962  0.38553  1.0000
  C   C720      1.0  0.35754  0.15637  0.39381  1.0000
  C   C721      1.0  0.34978  0.15806  0.41232  1.0000
  C   C722      1.0  0.36000  0.16333  0.42241  1.0000
  C   C723      1.0  0.37814  0.16618  0.41424  1.0000
  H   H1148     1.0  0.38128  0.15833  0.37128  1.0000
  H   H1149     1.0  0.34962  0.15242  0.38591  1.0000
  H   H1150     1.0  0.35417  0.16459  0.43671  1.0000
  H   H1151     1.0  0.38618  0.16972  0.42231  1.0000
  C   C724      1.0  0.41971  0.25829  0.27431  1.0000
  C   C725      1.0  0.40276  0.25590  0.27209  1.0000
  C   C726      1.0  0.39678  0.23905  0.28048  1.0000
  C   C727      1.0  0.40796  0.22444  0.29068  1.0000
  C   C728      1.0  0.42497  0.22677  0.29277  1.0000
  C   C729      1.0  0.43071  0.24377  0.28481  1.0000
  H   H1152     1.0  0.39412  0.26718  0.26419  1.0000
  H   H1153     1.0  0.38358  0.23733  0.27888  1.0000
  H   H1154     1.0  0.43375  0.21553  0.30053  1.0000
  H   H1155     1.0  0.44376  0.24566  0.28666  1.0000
  C   C730      1.0  0.58836  0.27155  0.30830  1.0000
  C   C731      1.0  0.62657  0.18096  0.41086  1.0000
  C   C732      1.0  0.62582  0.19119  0.47296  1.0000
  H   H1156     1.0  0.60182  0.33801  0.28014  1.0000
  C   C733      1.0  0.57584  0.15904  0.31599  1.0000
  C   C734      1.0  0.50195  0.01554  0.24806  1.0000
  Fe  Fe147     1.0  0.58335  0.21665  0.35200  1.0000
  C   C735      1.0  0.51822  0.18097  0.36112  1.0000
  C   C736      1.0  0.52609  0.18405  0.34211  1.0000
  C   C737      1.0  0.51624  0.18298  0.32912  1.0000
  C   C738      1.0  0.49847  0.17873  0.33502  1.0000
  C   C739      1.0  0.49051  0.17569  0.35402  1.0000
  C   C740      1.0  0.50037  0.17683  0.36702  1.0000
  H   H1157     1.0  0.53984  0.18704  0.33740  1.0000
  H   H1158     1.0  0.52247  0.18533  0.31444  1.0000
  H   H1159     1.0  0.47679  0.17247  0.35869  1.0000
  H   H1160     1.0  0.49417  0.17443  0.38171  1.0000
  S   S300      1.0  0.61966  0.26773  0.25718  1.0000
  C   C741      1.0  0.60961  0.14886  0.26237  1.0000
  C   C742      1.0  0.43652  0.11104  0.26277  1.0000
  C   C743      1.0  0.44591  0.09527  0.27347  1.0000
  C   C744      1.0  0.44826  0.09592  0.29114  1.0000
  C   C745      1.0  0.44142  0.11237  0.29804  1.0000
  C   C746      1.0  0.43246  0.12824  0.28714  1.0000
  C   C747      1.0  0.42994  0.12753  0.26961  1.0000
  H   H1161     1.0  0.45097  0.08250  0.26831  1.0000
  H   H1162     1.0  0.45520  0.08360  0.29953  1.0000
  H   H1163     1.0  0.42699  0.14093  0.29239  1.0000
  H   H1164     1.0  0.42256  0.13970  0.26142  1.0000
  H   H1165     1.0  0.64485  0.30848  0.26002  1.0000
  H   H1166     1.0  0.48140  0.15850  0.27425  1.0000
  H   H1167     1.0  0.57433  0.01066  0.27297  1.0000
  C   C748      1.0  0.63865  0.20826  0.40934  1.0000
  C   C749      1.0  0.42421  0.19429  0.25551  1.0000
  H   H1168     1.0  0.50585  0.11312  0.26129  1.0000
  H   H1169     1.0  0.62997  0.18416  0.26195  1.0000
  H   H1170     1.0  0.59349  0.29008  0.28175  1.0000
  H   H1171     1.0  0.62571  0.29033  0.29958  1.0000
  H   H1172     1.0  0.48936  0.14339  0.30518  1.0000
  C   C750      1.0  0.50063  0.11263  0.27650  1.0000
  N   N75       1.0  0.49790  0.13112  0.28099  1.0000
  H   H1173     1.0  0.61223  0.00369  0.25996  1.0000
  H   H1174     1.0  0.43035  0.22862  0.25150  1.0000
  H   H1175     1.0  0.55987  0.29069  0.27213  1.0000
  H   H1176     1.0  0.63855  0.18986  0.46194  1.0000
  S   S301      1.0  0.56838  0.13173  0.24911  1.0000
  C   C751      1.0  0.61292  0.24405  0.29080  1.0000
  H   H1177     1.0  0.60688  0.22517  0.31713  1.0000
  Fe  Fe148     1.0  0.59633  0.17881  0.34188  1.0000
  S   S302      1.0  0.61042  0.19595  0.35212  1.0000
  H   H1178     1.0  0.50216  0.30890  0.25081  1.0000
  H   H1179     1.0  0.62253  0.23338  0.28411  1.0000
  H   H1180     1.0  0.59314  0.10973  0.30454  1.0000
  C   C752      1.0  0.59668  0.27605  0.28946  1.0000
  H   H1181     1.0  0.47870  0.12430  0.30664  1.0000
  H   H1182     1.0  0.57591  0.25904  0.26877  1.0000
  S   S303      1.0  0.58349  0.04632  0.26571  1.0000
  H   H1183     1.0  0.52672  0.12798  0.28131  1.0000
  H   H1184     1.0  0.56978  0.25052  0.29343  1.0000
  C   C753      1.0  0.63803  0.17062  0.42350  1.0000
  Fe  Fe149     1.0  0.56634  0.11100  0.27614  1.0000
  N   N76       1.0  0.54694  0.26687  0.28069  1.0000
  C   C754      1.0  0.63351  0.30153  0.29780  1.0000
  C   C755      1.0  0.54917  0.28473  0.28346  1.0000
  C   C756      1.0  0.54069  0.27002  0.26295  1.0000
  C   C757      1.0  0.56491  0.25352  0.28008  1.0000
  C   C758      1.0  0.62705  0.19980  0.40366  1.0000
  C   C759      1.0  0.61329  0.22219  0.45748  1.0000
  N   N77       1.0  0.62546  0.15786  0.26002  1.0000
  H   H1185     1.0  0.53601  0.29535  0.28338  1.0000
  H   H1186     1.0  0.63780  0.15601  0.42905  1.0000
  H   H1187     1.0  0.61043  0.17660  0.27824  1.0000
  H   H1188     1.0  0.51088  0.10213  0.28397  1.0000
  H   H1189     1.0  0.65031  0.39463  0.24567  1.0000
  H   H1190     1.0  0.53881  0.25691  0.26031  1.0000
  C   C760      1.0  0.65002  0.19794  0.42206  1.0000
  H   H1191     1.0  0.63005  0.14653  0.28792  1.0000
  Fe  Fe150     1.0  0.59518  0.11277  0.24037  1.0000
  Fe  Fe151     1.0  0.60597  0.29431  0.24048  1.0000
  H   H1192     1.0  0.55339  0.28300  0.29694  1.0000
  H   H1193     1.0  0.52036  0.13975  0.25940  1.0000
  H   H1194     1.0  0.56384  0.23999  0.27768  1.0000
  H   H1195     1.0  0.63158  0.30483  0.31174  1.0000
  Fe  Fe152     1.0  0.59651  0.18331  0.38081  1.0000
  H   H1196     1.0  0.62400  0.32494  0.25555  1.0000
  H   H1197     1.0  0.53090  0.24577  0.29469  1.0000
  C   C761      1.0  0.51552  0.13791  0.27475  1.0000
  H   H1198     1.0  0.52721  0.28014  0.26290  1.0000
  H   H1199     1.0  0.63872  0.22291  0.40390  1.0000
  C   C762      1.0  0.60715  0.32563  0.29044  1.0000
  H   H1200     1.0  0.61465  0.12491  0.31259  1.0000
  S   S304      1.0  0.53844  0.31765  0.24357  1.0000
  H   H1201     1.0  0.60772  0.23702  0.45850  1.0000
  H   H1202     1.0  0.60138  0.15547  0.25126  1.0000
  C   C763      1.0  0.62987  0.31304  0.26590  1.0000
  S   S305      1.0  0.57022  0.20519  0.38143  1.0000
  S   S306      1.0  0.55439  0.12175  0.30250  1.0000
  N   N78       1.0  0.40421  0.10563  0.38062  1.0000
  C   C764      1.0  0.41253  0.10161  0.36187  1.0000
  C   C765      1.0  0.41298  0.11960  0.38377  1.0000
  C   C766      1.0  0.40732  0.08836  0.39487  1.0000
  C   C767      1.0  0.38404  0.11297  0.38199  1.0000
  H   H1203     1.0  0.40641  0.09101  0.35897  1.0000
  H   H1204     1.0  0.42781  0.09631  0.36017  1.0000
  H   H1205     1.0  0.41033  0.11433  0.35075  1.0000
  H   H1206     1.0  0.41104  0.13274  0.37321  1.0000
  H   H1207     1.0  0.40689  0.12328  0.39767  1.0000
  H   H1208     1.0  0.42821  0.11457  0.38292  1.0000
  H   H1209     1.0  0.40091  0.07747  0.39292  1.0000
  H   H1210     1.0  0.40120  0.09097  0.40917  1.0000
  H   H1211     1.0  0.42242  0.08247  0.39422  1.0000
  H   H1212     1.0  0.37737  0.11675  0.39576  1.0000
  H   H1213     1.0  0.37687  0.10261  0.38018  1.0000
  H   H1214     1.0  0.38120  0.12572  0.37108  1.0000
  N   N79       1.0  0.54403  0.12480  0.36745  1.0000
  C   C768      1.0  0.55901  0.13555  0.36135  1.0000
  C   C769      1.0  0.53262  0.12878  0.38542  1.0000
  C   C770      1.0  0.55233  0.10471  0.36967  1.0000
  C   C771      1.0  0.53221  0.13014  0.35334  1.0000
  H   H1215     1.0  0.56852  0.13212  0.34840  1.0000
  H   H1216     1.0  0.56761  0.13259  0.37209  1.0000
  H   H1217     1.0  0.55336  0.15083  0.35852  1.0000
  H   H1218     1.0  0.52129  0.12077  0.39062  1.0000
  H   H1219     1.0  0.54117  0.12541  0.39629  1.0000
  H   H1220     1.0  0.52601  0.14380  0.38408  1.0000
  H   H1221     1.0  0.54146  0.09612  0.37433  1.0000
  H   H1222     1.0  0.56152  0.10027  0.38006  1.0000
  H   H1223     1.0  0.56093  0.10134  0.35623  1.0000
  H   H1224     1.0  0.52050  0.12265  0.35764  1.0000
  H   H1225     1.0  0.54029  0.12705  0.33971  1.0000
  H   H1226     1.0  0.52615  0.14530  0.35090  1.0000
  N   N80       1.0  0.37707  0.22046  0.35337  1.0000
  C   C772      1.0  0.38792  0.23178  0.33754  1.0000
  C   C773      1.0  0.35831  0.23157  0.35874  1.0000
  C   C774      1.0  0.38654  0.21474  0.36939  1.0000
  C   C775      1.0  0.37545  0.20371  0.34780  1.0000
  H   H1227     1.0  0.38947  0.24457  0.34115  1.0000
  H   H1228     1.0  0.38126  0.23617  0.32513  1.0000
  H   H1229     1.0  0.40213  0.22381  0.33305  1.0000
  H   H1230     1.0  0.35899  0.24436  0.36298  1.0000
  H   H1231     1.0  0.35075  0.23601  0.34698  1.0000
  H   H1232     1.0  0.64850  0.29559  0.29334  1.0000
  H   H1233     1.0  0.37886  0.20594  0.38151  1.0000
  H   H1234     1.0  0.38794  0.22699  0.37409  1.0000
  H   H1235     1.0  0.40076  0.20635  0.36586  1.0000
  H   H1236     1.0  0.36881  0.20745  0.33543  1.0000
  H   H1237     1.0  0.36709  0.19497  0.35929  1.0000
  H   H1238     1.0  0.38933  0.19491  0.34396  1.0000
  H   H1239     1.0  0.48778  0.14549  0.25600  1.0000
  H   H1240     1.0  0.50251  0.12004  0.30892  1.0000
  H   H1241     1.0  0.49327  0.02971  0.24830  1.0000
  C   C776      1.0  0.60412  0.23940  0.30949  1.0000
  C   C777      1.0  0.63632  0.15872  0.24080  1.0000
  C   C778      1.0  0.59189  0.25318  0.31826  1.0000
  H   H1242     1.0  0.47006  0.13974  0.27598  1.0000
  C   C779      1.0  0.56360  0.15030  0.31179  1.0000
  H   H1243     1.0  0.57885  0.28219  0.31510  1.0000
  H   H1244     1.0  0.65870  0.17083  0.43856  1.0000
  H   H1245     1.0  0.53736  0.25666  0.30991  1.0000
  C   C780      1.0  0.48362  0.14434  0.27138  1.0000
  S   S307      1.0  0.57065  0.20078  0.33898  1.0000
  C   C781      1.0  0.59431  0.14999  0.31614  1.0000
  Fe  Fe153     1.0  0.57949  0.07765  0.25739  1.0000
  C   C782      1.0  0.64945  0.38203  0.24200  1.0000
  C   C783      1.0  0.53299  0.25924  0.29631  1.0000
  H   H1246     1.0  0.45724  0.20464  0.24176  1.0000
  H   H1247     1.0  0.53563  0.99245  0.24126  1.0000
  H   H1248     1.0  0.51928  0.26903  0.29724  1.0000
  H   H1249     1.0  0.65288  0.32790  0.27660  1.0000
  C   C784      1.0  0.58832  0.12352  0.30763  1.0000
  H   H1250     1.0  0.43089  0.19544  0.26658  1.0000
  H   H1251     1.0  0.62527  0.22198  0.44552  1.0000
  H   H1252     1.0  0.49225  0.00586  0.25072  1.0000
  H   H1253     1.0  0.34977  0.22343  0.37069  1.0000
  C   C785      1.0  0.57864  0.03440  0.25094  1.0000
  H   H1254     1.0  0.64607  0.21739  0.46717  1.0000
  H   H1255     1.0  0.62296  0.30136  0.26710  1.0000
  N   N81       1.0  0.61888  0.21076  0.47494  1.0000
  H   H1256     1.0  0.48740  0.10742  0.28053  1.0000
  C   C786      1.0  0.42367  0.22660  0.24086  1.0000
  S   S308      1.0  0.58670  0.31857  0.25131  1.0000
  Fe  Fe154     1.0  0.55579  0.11291  0.23973  1.0000
  H   H1257     1.0  0.64263  0.13229  0.27141  1.0000
  H   H1258     1.0  0.63651  0.33654  0.29561  1.0000
  H   H1259     1.0  0.40893  0.19729  0.26088  1.0000
  C   C787      1.0  0.63782  0.33266  0.28207  1.0000
  H   H1260     1.0  0.59996  0.14979  0.27592  1.0000
  H   H1261     1.0  0.42825  0.17956  0.25381  1.0000
  H   H1262     1.0  0.50935  0.01158  0.25990  1.0000
  C   C788      1.0  0.63755  0.14694  0.27327  1.0000
  H   H1263     1.0  0.40836  0.23036  0.24553  1.0000
  H   H1264     1.0  0.63288  0.34563  0.27224  1.0000
  H   H1265     1.0  0.61543  0.18563  0.46898  1.0000
  H   H1266     1.0  0.64986  0.15312  0.27156  1.0000
  H   H1267     1.0  0.62899  0.23248  0.48055  1.0000
  C   C789      1.0  0.64987  0.17899  0.42892  1.0000
  H   H1268     1.0  0.62952  0.18197  0.48607  1.0000
  C   C790      1.0  0.63373  0.21780  0.47880  1.0000
  H   H1269     1.0  0.57099  0.99164  0.25222  1.0000
  H   H1270     1.0  0.62091  0.39175  0.23883  1.0000
  H   H1271     1.0  0.59132  0.20641  0.48808  1.0000
  S   S309      1.0  0.32801  0.15193  0.42267  1.0000
  H   H1272     1.0  0.42278  0.18182  0.66599  1.0000
  C   C791      1.0  0.50972  0.21604  0.71047  1.0000
  S   S310      1.0  0.60152  0.25147  0.72116  1.0000
  H   H1273     1.0  0.44675  0.15761  0.68189  1.0000
  H   H1274     1.0  0.45406  0.14621  0.66250  1.0000
  C   C792      1.0  0.64787  0.18947  0.67397  1.0000
  H   H1275     1.0  0.59700  0.22640  0.49233  1.0000
  H   H1276     1.0  0.63453  0.18852  0.72048  1.0000
  H   H1277     1.0  0.35835  0.14232  0.56174  1.0000
  C   C793      1.0  0.63126  0.23944  0.66376  1.0000
  H   H1278     1.0  0.44634  0.13353  0.68564  1.0000
  H   H1279     1.0  0.40664  0.14117  0.66199  1.0000
  H   H1280     1.0  0.43185  0.17065  0.64646  1.0000
  N   N82       1.0  0.42447  0.15211  0.67265  1.0000
  H   H1281     1.0  0.33646  0.15519  0.57150  1.0000
  Fe  Fe155     1.0  0.43093  0.17637  0.71950  1.0000
  C   C794      1.0  0.42155  0.17044  0.65980  1.0000
  S   S311      1.0  0.39594  0.22343  0.67352  1.0000
  N   N83       1.0  0.33709  0.12611  0.57412  1.0000
  S   S312      1.0  0.44255  0.19074  0.73493  1.0000
  C   C795      1.0  0.34201  0.12088  0.59272  1.0000
  S   S313      1.0  0.35339  0.17480  0.64819  1.0000
  C   C796      1.0  0.42111  0.13782  0.66446  1.0000
  C   C797      1.0  0.49613  0.25892  0.73456  1.0000
  C   C798      1.0  0.38286  0.21054  0.66725  1.0000
  C   C799      1.0  0.37817  0.19418  0.67895  1.0000
  C   C800      1.0  0.36864  0.18369  0.67309  1.0000
  C   C801      1.0  0.36349  0.18957  0.65561  1.0000
  C   C802      1.0  0.36755  0.20630  0.64418  1.0000
  C   C803      1.0  0.37718  0.21674  0.65001  1.0000
  H   H1282     1.0  0.38207  0.18955  0.69244  1.0000
  H   H1283     1.0  0.36533  0.17087  0.68209  1.0000
  H   H1284     1.0  0.36389  0.21085  0.63057  1.0000
  H   H1285     1.0  0.38071  0.22944  0.64090  1.0000
  C   C804      1.0  0.60269  0.21180  0.49051  1.0000
  H   H1286     1.0  0.34210  0.09783  0.57087  1.0000
  S   S314      1.0  0.64151  0.23629  0.64094  1.0000
  H   H1287     1.0  0.41388  0.13964  0.70101  1.0000
  H   H1288     1.0  0.53429  0.21570  0.72027  1.0000
  S   S315      1.0  0.44054  0.19340  0.69147  1.0000
  H   H1289     1.0  0.40749  0.17414  0.65631  1.0000
  H   H1290     1.0  0.34320  0.11491  0.54943  1.0000
  H   H1291     1.0  0.62044  0.19616  0.70310  1.0000
  H   H1292     1.0  0.65645  0.21143  0.55514  1.0000
  H   H1293     1.0  0.63839  0.20819  0.70186  1.0000
  H   H1294     1.0  0.60651  0.20342  0.50390  1.0000
  C   C805      1.0  0.49108  0.21408  0.71548  1.0000
  H   H1295     1.0  0.49241  0.24642  0.73252  1.0000
  S   S316      1.0  0.57596  0.20859  0.73066  1.0000
  S   S317      1.0  0.47813  0.21750  0.69808  1.0000
  H   H1296     1.0  0.62872  0.16417  0.69717  1.0000
  Fe  Fe156     1.0  0.44990  0.20950  0.70732  1.0000
  C   C806      1.0  0.34650  0.11124  0.56363  1.0000
  H   H1297     1.0  0.63377  0.19153  0.67098  1.0000
  C   C807      1.0  0.61321  0.24611  0.69941  1.0000
  C   C808      1.0  0.60449  0.23892  0.68939  1.0000
  C   C809      1.0  0.61336  0.23591  0.67150  1.0000
  C   C810      1.0  0.63483  0.19416  0.70533  1.0000
  H   H1298     1.0  0.59056  0.23646  0.69509  1.0000
  H   H1299     1.0  0.60625  0.23104  0.66351  1.0000
  H   H1300     1.0  0.35720  0.11918  0.59173  1.0000
  H   H1301     1.0  0.33775  0.10765  0.60088  1.0000
  H   H1302     1.0  0.33483  0.13166  0.60108  1.0000
  C   C811      1.0  0.48290  0.20988  0.73434  1.0000
  C   C812      1.0  0.34307  0.14371  0.56384  1.0000
  H   H1303     1.0  0.65186  0.20331  0.66958  1.0000
  C   C813      1.0  0.52005  0.21384  0.72424  1.0000
  H   H1304     1.0  0.42314  0.12384  0.67386  1.0000
  S   S318      1.0  0.40217  0.19372  0.72414  1.0000
  H   H1305     1.0  0.39677  0.15574  0.68910  1.0000
  C   C814      1.0  0.64036  0.24583  0.67410  1.0000
  Fe  Fe157     1.0  0.33218  0.18334  0.62942  1.0000
  C   C815      1.0  0.41143  0.15295  0.69066  1.0000
  H   H1306     1.0  0.65413  0.24867  0.66817  1.0000
  H   H1307     1.0  0.43072  0.13677  0.65085  1.0000
  H   H1308     1.0  0.63799  0.25510  0.69943  1.0000
  H   H1309     1.0  0.41303  0.16412  0.69690  1.0000
  C   C816      1.0  0.63118  0.24951  0.69175  1.0000
  S   S319      1.0  0.42268  0.22995  0.70991  1.0000
  H   H1310     1.0  0.34458  0.41451  0.72981  1.0000
  N   N84       1.0  0.64820  0.18158  0.69389  1.0000
  H   H1311     1.0  0.36186  0.10883  0.56191  1.0000
  C   C817      1.0  0.44376  0.14713  0.67571  1.0000
  Fe  Fe158     1.0  0.41236  0.21183  0.69683  1.0000
  H   H1312     1.0  0.64332  0.15669  0.71404  1.0000
  H   H1313     1.0  0.51611  0.21941  0.69589  1.0000
  S   S320      1.0  0.33314  0.16827  0.60706  1.0000
  H   H1314     1.0  0.33194  0.39644  0.73286  1.0000
  S   S321      1.0  0.43812  0.14529  0.72341  1.0000
  H   H1315     1.0  0.65776  0.18034  0.66488  1.0000
  H   H1316     1.0  0.33921  0.14831  0.54987  1.0000
  H   H1317     1.0  0.63857  0.20930  0.49170  1.0000
  C   C818      1.0  0.64304  0.16312  0.69911  1.0000
  H   H1318     1.0  0.49304  0.27033  0.72250  1.0000
  H   H1319     1.0  0.65275  0.15335  0.69059  1.0000
  H   H1320     1.0  0.33911  0.21839  0.67507  1.0000
  H   H1321     1.0  0.33552  0.19915  0.52233  1.0000
  H   H1322     1.0  0.51140  0.25570  0.73388  1.0000
  Fe  Fe159     1.0  0.41483  0.21020  0.73683  1.0000
  H   H1323     1.0  0.32937  0.22465  0.64453  1.0000
  H   H1324     1.0  0.46848  0.20895  0.73840  1.0000
  H   H1325     1.0  0.59445  0.28777  0.73863  1.0000
  H   H1326     1.0  0.32787  0.24157  0.67783  1.0000
  H   H1327     1.0  0.34700  0.40629  0.77974  1.0000
  Fe  Fe160     1.0  0.46452  0.07896  0.81743  1.0000
  S   S322      1.0  0.46154  0.06326  0.84691  1.0000
  S   S323      1.0  0.49379  0.07784  0.80161  1.0000
  Fe  Fe161     1.0  0.42326  0.08958  0.81943  1.0000
  S   S324      1.0  0.41665  0.07445  0.84921  1.0000
  S   S325      1.0  0.40124  0.10697  0.80365  1.0000
  Fe  Fe162     1.0  0.43868  0.08724  0.85327  1.0000
  S   S326      1.0  0.43559  0.09793  0.87928  1.0000
  Fe  Fe163     1.0  0.44014  0.05183  0.84010  1.0000
  S   S327      1.0  0.44326  0.02075  0.84984  1.0000
  S   S328      1.0  0.44342  0.10414  0.82425  1.0000
  S   S329      1.0  0.44487  0.06579  0.80994  1.0000
  Fe  Fe164     1.0  0.56705  0.08265  0.86775  1.0000
  S   S330      1.0  0.56866  0.08851  0.83701  1.0000
  Fe  Fe165     1.0  0.57410  0.12093  0.86686  1.0000
  S   S331      1.0  0.57580  0.12943  0.83604  1.0000
  S   S332      1.0  0.57639  0.14607  0.87621  1.0000
  Fe  Fe166     1.0  0.55147  0.11643  0.84084  1.0000
  S   S333      1.0  0.52716  0.13255  0.82784  1.0000
  Fe  Fe167     1.0  0.59298  0.10101  0.83516  1.0000
  S   S334      1.0  0.61809  0.09701  0.81249  1.0000
  S   S335      1.0  0.54808  0.11004  0.87180  1.0000
  S   S336      1.0  0.59314  0.09295  0.86578  1.0000
  C   C819      1.0  0.43971  0.00865  0.83455  1.0000
  S   S337      1.0  0.41425  0.22420  0.91097  1.0000
  H   H1328     1.0  0.64465  0.40619  0.83687  1.0000
  Fe  Fe168     1.0  0.60195  0.20335  0.95893  1.0000
  H   H1329     1.0  0.53462  0.13385  0.75325  1.0000
  S   S338      1.0  0.62341  0.21881  0.93977  1.0000
  Fe  Fe169     1.0  0.58544  0.16923  0.96565  1.0000
  S   S339      1.0  0.58428  0.14257  0.95829  1.0000
  C   C820      1.0  0.54395  0.12859  0.76352  1.0000
  S   S340      1.0  0.57950  0.19779  0.94795  1.0000
  H   H1330     1.0  0.52823  0.18609  0.94574  1.0000
  H   H1331     1.0  0.38701  0.18132  0.80404  1.0000
  H   H1332     1.0  0.32974  0.42300  0.76850  1.0000
  H   H1333     1.0  0.54401  0.02198  0.89275  1.0000
  H   H1334     1.0  0.61296  0.37232  0.87073  1.0000
  H   H1335     1.0  0.43928  0.20921  0.76541  1.0000
  Fe  Fe170     1.0  0.58905  0.30599  0.86922  1.0000
  S   S341      1.0  0.61483  0.30844  0.84713  1.0000
  S   S342      1.0  0.58650  0.29893  0.90037  1.0000
  Fe  Fe171     1.0  0.56293  0.32208  0.84160  1.0000
  S   S343      1.0  0.58642  0.32647  0.81724  1.0000
  S   S344      1.0  0.53190  0.32903  0.84299  1.0000
  Fe  Fe172     1.0  0.60024  0.29787  0.83054  1.0000
  S   S345      1.0  0.61525  0.27741  0.81195  1.0000
  Fe  Fe173     1.0  0.59901  0.33675  0.83586  1.0000
  S   S346      1.0  0.44388  0.17457  0.92674  1.0000
  S   S347      1.0  0.57587  0.29295  0.85377  1.0000
  S   S348      1.0  0.57408  0.33483  0.85900  1.0000
  C   C821      1.0  0.40942  0.35078  0.85153  1.0000
  H   H1336     1.0  0.41240  0.20018  0.88008  1.0000
  Fe  Fe174     1.0  0.56110  0.20574  0.97395  1.0000
  S   S349      1.0  0.35959  0.41125  0.81474  1.0000
  Fe  Fe175     1.0  0.46399  0.30741  0.79939  1.0000
  S   S350      1.0  0.46383  0.28199  0.82209  1.0000
  S   S351      1.0  0.49290  0.31221  0.78582  1.0000
  Fe  Fe176     1.0  0.42185  0.31539  0.80357  1.0000
  S   S352      1.0  0.41877  0.29016  0.82657  1.0000
  S   S353      1.0  0.39504  0.33190  0.79499  1.0000
  Fe  Fe177     1.0  0.43933  0.29941  0.83709  1.0000
  S   S354      1.0  0.43805  0.29953  0.86683  1.0000
  Fe  Fe178     1.0  0.44352  0.27537  0.80901  1.0000
  S   S355      1.0  0.44942  0.24565  0.80532  1.0000
  S   S356      1.0  0.44078  0.32564  0.81547  1.0000
  S   S357      1.0  0.44519  0.29980  0.78503  1.0000
  H   H1337     1.0  0.39234  0.34583  0.88756  1.0000
  H   H1338     1.0  0.40987  0.36212  0.85817  1.0000
  N   N85       1.0  0.50071  0.01607  0.82120  1.0000
  H   H1339     1.0  0.40633  0.21370  0.84801  1.0000
  C   C822      1.0  0.57094  0.28302  0.78360  1.0000
  H   H1340     1.0  0.52986  0.07831  0.85872  1.0000
  H   H1341     1.0  0.48671  0.20423  0.76259  1.0000
  C   C823      1.0  0.35769  0.38440  0.75444  1.0000
  H   H1342     1.0  0.54806  0.17729  0.95660  1.0000
  C   C824      1.0  0.49324  0.20743  0.74805  1.0000
  C   C825      1.0  0.43604  0.24014  0.79233  1.0000
  C   C826      1.0  0.44376  0.22560  0.78270  1.0000
  C   C827      1.0  0.43316  0.22035  0.77288  1.0000
  C   C828      1.0  0.41453  0.22910  0.77327  1.0000
  C   C829      1.0  0.40675  0.24347  0.78313  1.0000
  C   C830      1.0  0.41758  0.24925  0.79235  1.0000
  H   H1343     1.0  0.45801  0.21846  0.78274  1.0000
  C   C831      1.0  0.45260  0.20150  0.84787  1.0000
  H   H1344     1.0  0.39232  0.25024  0.78354  1.0000
  H   H1345     1.0  0.41147  0.26041  0.79986  1.0000
  C   C832      1.0  0.36932  0.38903  0.80960  1.0000
  C   C833      1.0  0.35809  0.37711  0.80926  1.0000
  C   C834      1.0  0.36616  0.35962  0.80475  1.0000
  C   C835      1.0  0.38550  0.35374  0.80099  1.0000
  C   C836      1.0  0.39678  0.36539  0.80183  1.0000
  C   C837      1.0  0.38869  0.38306  0.80601  1.0000
  Fe  Fe179     1.0  0.32882  0.42253  0.81641  1.0000
  H   H1346     1.0  0.35738  0.35052  0.80436  1.0000
  H   H1347     1.0  0.41174  0.36100  0.79877  1.0000
  H   H1348     1.0  0.39747  0.39219  0.80631  1.0000
  C   C838      1.0  0.37587  0.35782  0.85783  1.0000
  C   C839      1.0  0.58451  0.02051  0.85002  1.0000
  C   C840      1.0  0.52170  0.32411  0.82676  1.0000
  C   C841      1.0  0.53220  0.31902  0.81016  1.0000
  C   C842      1.0  0.52332  0.31546  0.79754  1.0000
  C   C843      1.0  0.50401  0.31663  0.80165  1.0000
  C   C844      1.0  0.49366  0.32135  0.81842  1.0000
  C   C845      1.0  0.50244  0.32530  0.83079  1.0000
  H   H1349     1.0  0.54704  0.31827  0.80695  1.0000
  H   H1350     1.0  0.53131  0.31188  0.78457  1.0000
  H   H1351     1.0  0.47880  0.32234  0.82173  1.0000
  H   H1352     1.0  0.49424  0.32935  0.84355  1.0000
  H   H1353     1.0  0.48906  0.03850  0.80082  1.0000
  C   C846      1.0  0.61740  0.14968  0.84220  1.0000
  C   C847      1.0  0.49133  0.24912  0.76810  1.0000
  H   H1354     1.0  0.58147  0.36131  0.90239  1.0000
  H   H1355     1.0  0.57406  0.27808  0.74895  1.0000
  C   C848      1.0  0.58848  0.22988  0.81139  1.0000
  C   C849      1.0  0.60393  0.23409  0.79781  1.0000
  C   C850      1.0  0.61254  0.24812  0.79867  1.0000
  C   C851      1.0  0.60535  0.25849  0.81269  1.0000
  C   C852      1.0  0.59003  0.25408  0.82640  1.0000
  C   C853      1.0  0.58177  0.23962  0.82590  1.0000
  H   H1356     1.0  0.52679  0.99809  0.81307  1.0000
  H   H1357     1.0  0.62456  0.25125  0.78817  1.0000
  H   H1358     1.0  0.58458  0.26172  0.83744  1.0000
  H   H1359     1.0  0.56992  0.23630  0.83654  1.0000
  C   C854      1.0  0.61279  0.24062  0.92818  1.0000
  C   C855      1.0  0.62177  0.24917  0.91072  1.0000
  C   C856      1.0  0.61341  0.26678  0.90163  1.0000
  C   C857      1.0  0.59638  0.27610  0.91031  1.0000
  C   C858      1.0  0.58752  0.26761  0.92781  1.0000
  C   C859      1.0  0.59552  0.24977  0.93656  1.0000
  H   H1360     1.0  0.57435  0.27479  0.93457  1.0000
  H   H1361     1.0  0.58844  0.24330  0.94995  1.0000
  C   C860      1.0  0.41945  0.24618  0.90045  1.0000
  C   C861      1.0  0.43522  0.25075  0.90310  1.0000
  C   C862      1.0  0.44038  0.26762  0.89340  1.0000
  C   C863      1.0  0.43017  0.27963  0.88052  1.0000
  C   C864      1.0  0.41427  0.27520  0.87798  1.0000
  C   C865      1.0  0.40869  0.25864  0.88824  1.0000
  H   H1362     1.0  0.44350  0.24127  0.91259  1.0000
  H   H1363     1.0  0.45260  0.27107  0.89547  1.0000
  H   H1364     1.0  0.40623  0.28449  0.86816  1.0000
  H   H1365     1.0  0.39643  0.25517  0.88625  1.0000
  C   C866      1.0  0.61632  0.11510  0.79288  1.0000
  C   C867      1.0  0.60981  0.13360  0.79488  1.0000
  C   C868      1.0  0.60762  0.14791  0.77919  1.0000
  C   C869      1.0  0.61191  0.14370  0.76149  1.0000
  C   C870      1.0  0.61890  0.12528  0.75941  1.0000
  C   C871      1.0  0.62119  0.11099  0.77510  1.0000
  H   H1366     1.0  0.60684  0.13690  0.80847  1.0000
  H   H1367     1.0  0.60273  0.16218  0.78079  1.0000
  Fe  Fe180     1.0  0.59176  0.18766  0.75082  1.0000
  H   H1368     1.0  0.62641  0.09670  0.77352  1.0000
  C   C872      1.0  0.57855  0.14459  0.89911  1.0000
  C   C873      1.0  0.58053  0.16055  0.90391  1.0000
  C   C874      1.0  0.58254  0.15996  0.92195  1.0000
  C   C875      1.0  0.58237  0.14346  0.93539  1.0000
  C   C876      1.0  0.58020  0.12751  0.93064  1.0000
  C   C877      1.0  0.57834  0.12804  0.91249  1.0000
  H   H1369     1.0  0.58065  0.17342  0.89363  1.0000
  H   H1370     1.0  0.58440  0.17223  0.92535  1.0000
  H   H1371     1.0  0.58011  0.11468  0.94099  1.0000
  H   H1372     1.0  0.57686  0.11566  0.90886  1.0000
  C   C878      1.0  0.41124  0.11695  0.78095  1.0000
  H   H1373     1.0  0.50491  0.28050  0.75258  1.0000
  C   C879      1.0  0.51683  0.17454  0.98253  1.0000
  C   C880      1.0  0.56051  0.15366  0.74947  1.0000
  H   H1374     1.0  0.50261  0.14903  0.97420  1.0000
  C   C881      1.0  0.43020  0.11139  0.77404  1.0000
  H   H1375     1.0  0.64976  0.22342  0.96152  1.0000
  C   C882      1.0  0.34273  0.41242  0.76608  1.0000
  C   C883      1.0  0.65911  0.37763  0.84201  1.0000
  H   H1376     1.0  0.43866  0.10047  0.78239  1.0000
  C   C884      1.0  0.44559  0.11681  0.87834  1.0000
  C   C885      1.0  0.44420  0.12256  0.89490  1.0000
  C   C886      1.0  0.45297  0.13680  0.89493  1.0000
  C   C887      1.0  0.45548  0.12567  0.86166  1.0000
  H   H1377     1.0  0.43655  0.11575  0.90784  1.0000
  H   H1378     1.0  0.45218  0.14079  0.90786  1.0000
  Fe  Fe181     1.0  0.57898  0.21114  0.78061  1.0000
  C   C888      1.0  0.50337  0.09392  0.80719  1.0000
  C   C889      1.0  0.52225  0.08990  0.80771  1.0000
  C   C890      1.0  0.52969  0.10195  0.81371  1.0000
  C   C891      1.0  0.51833  0.11813  0.81899  1.0000
  C   C892      1.0  0.49969  0.12268  0.81745  1.0000
  C   C893      1.0  0.49217  0.11048  0.81175  1.0000
  H   H1379     1.0  0.53104  0.07725  0.80390  1.0000
  H   H1380     1.0  0.54426  0.09881  0.81390  1.0000
  H   H1381     1.0  0.49096  0.13540  0.82109  1.0000
  H   H1382     1.0  0.47777  0.11401  0.81067  1.0000
  C   C894      1.0  0.64431  0.39191  0.83724  1.0000
  H   H1383     1.0  0.51962  0.05818  0.86664  1.0000
  H   H1384     1.0  0.50123  0.17004  0.95675  1.0000
  H   H1385     1.0  0.54851  0.14911  0.98236  1.0000
  C   C895      1.0  0.42856  0.01739  0.82134  1.0000
  H   H1386     1.0  0.54486  0.13673  0.96686  1.0000
  C   C896      1.0  0.48498  0.07640  0.87962  1.0000
  H   H1387     1.0  0.57891  0.26893  0.78857  1.0000
  H   H1388     1.0  0.42280  0.03217  0.81965  1.0000
  H   H1389     1.0  0.48901  0.28449  0.89909  1.0000
  C   C897      1.0  0.51837  0.28780  0.87068  1.0000
  H   H1390     1.0  0.52529  0.29069  0.85575  1.0000
  H   H1391     1.0  0.52951  0.28146  0.87891  1.0000
  H   H1392     1.0  0.51145  0.30153  0.87441  1.0000
  H   H1393     1.0  0.49595  0.28780  0.84807  1.0000
  H   H1394     1.0  0.48264  0.29833  0.86721  1.0000
  H   H1395     1.0  0.41556  0.23252  0.86506  1.0000
  H   H1396     1.0  0.59602  0.02008  0.83826  1.0000
  H   H1397     1.0  0.51261  0.10834  0.86603  1.0000
  C   C898      1.0  0.42760  0.13440  0.74543  1.0000
  H   H1398     1.0  0.39686  0.14677  0.80643  1.0000
  H   H1399     1.0  0.47438  0.08277  0.89053  1.0000
  H   H1400     1.0  0.50743  0.18730  0.97665  1.0000
  H   H1401     1.0  0.41051  0.14537  0.82320  1.0000
  H   H1402     1.0  0.36285  0.35244  0.86416  1.0000
  H   H1403     1.0  0.47402  0.03433  0.82313  1.0000
  H   H1404     1.0  0.57719  0.31849  0.74621  1.0000
  H   H1405     1.0  0.57545  0.12641  0.77519  1.0000
  H   H1406     1.0  0.51137  0.07682  0.84859  1.0000
  H   H1407     1.0  0.47797  0.01865  0.80788  1.0000
  N   N86       1.0  0.60885  0.34740  0.89114  1.0000
  C   C899      1.0  0.61746  0.33487  0.87794  1.0000
  C   C900      1.0  0.61637  0.36467  0.88449  1.0000
  C   C901      1.0  0.61303  0.33792  0.90969  1.0000
  S   S358      1.0  0.60962  0.17393  0.97465  1.0000
  H   H1408     1.0  0.55584  0.11815  0.75797  1.0000
  H   H1409     1.0  0.61290  0.32130  0.88298  1.0000
  H   H1410     1.0  0.61056  0.37432  0.89432  1.0000
  S   S359      1.0  0.46303  0.16099  0.97440  1.0000
  H   H1411     1.0  0.63179  0.36168  0.88268  1.0000
  C   C902      1.0  0.51466  0.00695  0.80712  1.0000
  S   S360      1.0  0.56221  0.23415  0.76285  1.0000
  H   H1412     1.0  0.60745  0.32483  0.91497  1.0000
  C   C903      1.0  0.39231  0.33504  0.88001  1.0000
  N   N87       1.0  0.52802  0.17756  0.85983  1.0000
  C   C904      1.0  0.52476  0.15924  0.87118  1.0000
  C   C905      1.0  0.54268  0.17484  0.84320  1.0000
  C   C906      1.0  0.53392  0.18755  0.87106  1.0000
  C   C907      1.0  0.51067  0.18856  0.85390  1.0000
  H   H1413     1.0  0.53752  0.15059  0.87601  1.0000
  H   H1414     1.0  0.52029  0.15129  0.86314  1.0000
  H   H1415     1.0  0.51369  0.16077  0.88378  1.0000
  H   H1416     1.0  0.55596  0.16663  0.84721  1.0000
  H   H1417     1.0  0.53872  0.16715  0.83455  1.0000
  H   H1418     1.0  0.54552  0.18838  0.83424  1.0000
  H   H1419     1.0  0.53661  0.20141  0.86293  1.0000
  H   H1420     1.0  0.54690  0.17952  0.87591  1.0000
  H   H1421     1.0  0.52313  0.18989  0.88370  1.0000
  H   H1422     1.0  0.51267  0.20234  0.84499  1.0000
  H   H1423     1.0  0.49942  0.19108  0.86614  1.0000
  H   H1424     1.0  0.50560  0.18110  0.84586  1.0000
  S   S361      1.0  0.65874  0.47822  0.85430  1.0000
  H   H1425     1.0  0.40034  0.15134  0.74407  1.0000
  H   H1426     1.0  0.42564  0.15817  0.77165  1.0000
  C   C908      1.0  0.42398  0.00675  0.81104  1.0000
  H   H1427     1.0  0.51703  0.14914  0.95146  1.0000
  H   H1428     1.0  0.35616  0.37314  0.74828  1.0000
  H   H1429     1.0  0.38579  0.13566  0.77544  1.0000
  S   S362      1.0  0.46454  0.20530  0.89445  1.0000
  S   S363      1.0  0.52320  0.20849  0.76097  1.0000
  S   S364      1.0  0.57743  0.21253  0.81030  1.0000
  H   H1430     1.0  0.58245  0.33930  0.89693  1.0000
  C   C909      1.0  0.49953  0.10306  0.86947  1.0000
  C   C910      1.0  0.49019  0.28482  0.86330  1.0000
  C   C911      1.0  0.58852  0.35208  0.89235  1.0000
  N   N88       1.0  0.50499  0.27552  0.87406  1.0000
  H   H1431     1.0  0.52163  0.26042  0.85313  1.0000
  C   C912      1.0  0.51478  0.25789  0.86810  1.0000
  H   H1432     1.0  0.37984  0.32884  0.88682  1.0000
  H   H1433     1.0  0.58727  0.17764  0.84428  1.0000
  H   H1434     1.0  0.54369  0.16466  0.94171  1.0000
  H   H1435     1.0  0.34319  0.38124  0.81264  1.0000
  H   H1436     1.0  0.51312  0.06228  0.89867  1.0000
  H   H1437     1.0  0.55011  0.22618  0.93765  1.0000
  C   C913      1.0  0.49667  0.27151  0.89414  1.0000
  H   H1438     1.0  0.50748  0.26454  0.90269  1.0000
  H   H1439     1.0  0.60934  0.22650  0.78668  1.0000
  H   H1440     1.0  0.52568  0.25025  0.87636  1.0000
  H   H1441     1.0  0.55749  0.28118  0.78167  1.0000
  C   C914      1.0  0.53597  0.22505  0.93877  1.0000
  C   C915      1.0  0.52372  0.22402  0.95603  1.0000
  C   C916      1.0  0.50513  0.22380  0.95714  1.0000
  H   H1442     1.0  0.62236  0.12199  0.74572  1.0000
  H   H1443     1.0  0.47966  0.27608  0.86573  1.0000
  H   H1444     1.0  0.47893  0.08054  0.86686  1.0000
  N   N89       1.0  0.48571  0.26396  0.75244  1.0000
  H   H1445     1.0  0.60675  0.34693  0.92007  1.0000
  C   C917      1.0  0.43831  0.11990  0.75618  1.0000
  N   N90       1.0  0.50271  0.08265  0.87615  1.0000
  H   H1446     1.0  0.43868  0.22731  0.86917  1.0000
  H   H1447     1.0  0.43558  0.19466  0.88390  1.0000
  H   H1448     1.0  0.49893  0.03534  0.83831  1.0000
  Fe  Fe182     1.0  0.44044  0.20558  0.91832  1.0000
  C   C918      1.0  0.51155  0.22328  0.92426  1.0000
  C   C919      1.0  0.52986  0.22478  0.92284  1.0000
  C   C920      1.0  0.49911  0.22320  0.94133  1.0000
  H   H1449     1.0  0.53950  0.22514  0.90961  1.0000
  H   H1450     1.0  0.48483  0.22272  0.94242  1.0000
  H   H1451     1.0  0.59975  0.19588  0.84049  1.0000
  S   S365      1.0  0.53168  0.22135  0.97653  1.0000
  H   H1452     1.0  0.63288  0.33186  0.87577  1.0000
  C   C921      1.0  0.42716  0.19541  0.87356  1.0000
  C   C922      1.0  0.43031  0.22710  0.85910  1.0000
  C   C923      1.0  0.57575  0.00520  0.85726  1.0000
  S   S366      1.0  0.50449  0.22064  0.90493  1.0000
  H   H1453     1.0  0.45677  0.12122  0.84886  1.0000
  H   H1454     1.0  0.60191  0.17156  0.81336  1.0000
  H   H1455     1.0  0.50501  0.24846  0.87011  1.0000
  H   H1456     1.0  0.41475  0.01341  0.80136  1.0000
  C   C924      1.0  0.46325  0.14530  0.87837  1.0000
  H   H1457     1.0  0.62036  0.27331  0.88815  1.0000
  H   H1458     1.0  0.40127  0.16833  0.77594  1.0000
  Fe  Fe183     1.0  0.48138  0.20479  0.91473  1.0000
  H   H1459     1.0  0.48676  0.26199  0.89723  1.0000
  H   H1460     1.0  0.40487  0.31675  0.85201  1.0000
  H   H1461     1.0  0.61509  0.18935  0.80871  1.0000
  C   C925      1.0  0.40867  0.14018  0.75238  1.0000
  H   H1462     1.0  0.49956  0.08379  0.90489  1.0000
  H   H1463     1.0  0.63510  0.24211  0.90416  1.0000
  H   H1464     1.0  0.43450  0.23712  0.84601  1.0000
  H   H1465     1.0  0.42893  0.18094  0.87164  1.0000
  H   H1466     1.0  0.44464  0.15601  0.79429  1.0000
  H   H1467     1.0  0.42106  0.13650  0.80244  1.0000
  S   S367      1.0  0.55698  0.05641  0.88425  1.0000
  C   C926      1.0  0.46428  0.13992  0.86169  1.0000
  C   C927      1.0  0.61510  0.17435  0.81494  1.0000
  H   H1468     1.0  0.61829  0.14578  0.85721  1.0000
  C   C928      1.0  0.41503  0.16899  0.77816  1.0000
  S   S368      1.0  0.58292  0.21394  0.98352  1.0000
  N   N91       1.0  0.43286  0.20816  0.85577  1.0000
  S   S369      1.0  0.45672  0.20829  0.93804  1.0000
  H   H1469     1.0  0.64297  0.34072  0.83809  1.0000
  C   C929      1.0  0.42131  0.20868  0.84249  1.0000
  N   N92       1.0  0.41515  0.16631  0.79814  1.0000
  C   C930      1.0  0.43377  0.16700  0.80030  1.0000
  C   C931      1.0  0.41068  0.14800  0.80803  1.0000
  H   H1470     1.0  0.41801  0.18281  0.77038  1.0000
  H   H1471     1.0  0.43447  0.16477  0.81522  1.0000
  H   H1472     1.0  0.43756  0.18068  0.79301  1.0000
  H   H1473     1.0  0.38170  0.00160  0.86136  1.0000
  Fe  Fe184     1.0  0.46909  0.17438  0.90373  1.0000
  H   H1474     1.0  0.52283  0.08274  0.89165  1.0000
  H   H1475     1.0  0.40050  0.17945  0.82112  1.0000
  C   C932      1.0  0.39541  0.99352  0.86438  1.0000
  H   H1476     1.0  0.42296  0.19465  0.83956  1.0000
  H   H1477     1.0  0.42521  0.21829  0.82898  1.0000
  S   S370      1.0  0.60443  0.20776  0.75816  1.0000
  N   N93       1.0  0.55039  0.14396  0.76712  1.0000
  H   H1478     1.0  0.37554  0.36946  0.86444  1.0000
  H   H1479     1.0  0.46172  0.20124  0.85739  1.0000
  S   S371      1.0  0.56814  0.18865  0.77524  1.0000
  H   H1480     1.0  0.37996  0.32187  0.85651  1.0000
  H   H1481     1.0  0.45514  0.18707  0.84558  1.0000
  C   C933      1.0  0.56409  0.03693  0.87350  1.0000
  S   S372      1.0  0.47590  0.16182  0.87826  1.0000
  H   H1482     1.0  0.47235  0.14640  0.84888  1.0000
  C   C934      1.0  0.46785  0.19064  0.98648  1.0000
  H   H1483     1.0  0.45726  0.21068  0.83429  1.0000
  H   H1484     1.0  0.56545  0.16542  0.75160  1.0000
  H   H1485     1.0  0.60098  0.17713  0.86059  1.0000
  N   N94       1.0  0.34003  0.39799  0.75761  1.0000
  C   C935      1.0  0.40113  0.18121  0.80596  1.0000
  H   H1486     1.0  0.48682  0.06101  0.88427  1.0000
  H   H1487     1.0  0.49371  0.10732  0.85658  1.0000
  H   H1488     1.0  0.56792  0.29080  0.79500  1.0000
  H   H1489     1.0  0.61765  0.39884  0.82913  1.0000
  C   C936      1.0  0.50914  0.02822  0.82770  1.0000
  C   C937      1.0  0.51101  0.15748  0.96246  1.0000
  N   N95       1.0  0.61673  0.16982  0.83472  1.0000
  C   C938      1.0  0.39251  0.32813  0.85060  1.0000
  H   H1490     1.0  0.39849  0.99875  0.87551  1.0000
  H   H1491     1.0  0.55581  0.12876  0.79404  1.0000
  S   S373      1.0  0.48837  0.17367  0.92220  1.0000
  C   C939      1.0  0.60050  0.18061  0.84550  1.0000
  H   H1492     1.0  0.61357  0.34108  0.86414  1.0000
  S   S374      1.0  0.60837  0.36459  0.82849  1.0000
  C   C940      1.0  0.62904  0.38770  0.83282  1.0000
  H   H1493     1.0  0.62949  0.14102  0.83449  1.0000
  H   H1494     1.0  0.52125  0.02013  0.83407  1.0000
  H   H1495     1.0  0.39286  0.33349  0.83543  1.0000
  C   C941      1.0  0.63388  0.17466  0.83628  1.0000
  H   H1496     1.0  0.64643  0.16681  0.82828  1.0000
  H   H1497     1.0  0.52600  0.15029  0.78796  1.0000
  H   H1498     1.0  0.48969  0.11037  0.88013  1.0000
  H   H1499     1.0  0.62676  0.16599  0.80646  1.0000
  H   H1500     1.0  0.52466  0.16367  0.76482  1.0000
  C   C942      1.0  0.51644  0.07359  0.86187  1.0000
  H   H1501     1.0  0.63377  0.18980  0.83082  1.0000
  C   C943      1.0  0.56292  0.13632  0.78061  1.0000
  C   C944      1.0  0.50980  0.07766  0.89363  1.0000
  C   C945      1.0  0.62829  0.36921  0.83334  1.0000
  H   H1502     1.0  0.49553  0.22345  0.97038  1.0000
  C   C946      1.0  0.56092  0.00590  0.87252  1.0000
  H   H1503     1.0  0.40423  0.19522  0.79891  1.0000
  C   C947      1.0  0.64317  0.35496  0.83799  1.0000
  C   C948      1.0  0.55520  0.02169  0.88069  1.0000
  H   H1504     1.0  0.40474  0.32378  0.88209  1.0000
  H   H1505     1.0  0.58573  0.04791  0.85246  1.0000
  H   H1506     1.0  0.60468  0.14560  0.84118  1.0000
  C   C949      1.0  0.56969  0.31073  0.75928  1.0000
  H   H1507     1.0  0.48428  0.25286  0.78177  1.0000
  N   N96       1.0  0.58138  0.29270  0.76616  1.0000
  N   N97       1.0  0.39251  0.34296  0.86000  1.0000
  Fe  Fe185     1.0  0.46262  0.17705  0.94466  1.0000
  H   H1508     1.0  0.41013  0.35669  0.83638  1.0000
  H   H1509     1.0  0.63549  0.17139  0.85106  1.0000
  H   H1510     1.0  0.42224  0.33991  0.85303  1.0000
  H   H1511     1.0  0.37551  0.36385  0.84289  1.0000
  C   C950      1.0  0.57864  0.03636  0.85801  1.0000
  H   H1512     1.0  0.60636  0.30387  0.75704  1.0000
  H   H1513     1.0  0.51990  0.01737  0.79492  1.0000
  H   H1514     1.0  0.58493  0.35940  0.87856  1.0000
  H   H1515     1.0  0.52733  0.17929  0.98712  1.0000
  H   H1516     1.0  0.36263  0.37759  0.76770  1.0000
  N   N98       1.0  0.52559  0.16272  0.96866  1.0000
  C   C951      1.0  0.65201  0.22377  0.97543  1.0000
  H   H1517     1.0  0.56547  0.31978  0.76974  1.0000
  H   H1518     1.0  0.62827  0.33408  0.90918  1.0000
  C   C952      1.0  0.46561  0.26614  0.75332  1.0000
  H   H1519     1.0  0.56788  0.14753  0.78381  1.0000
  C   C953      1.0  0.65847  0.35917  0.84230  1.0000
  S   S375      1.0  0.60799  0.16128  0.74200  1.0000
  H   H1520     1.0  0.32955  0.38132  0.78391  1.0000
  H   H1521     1.0  0.53601  0.12115  0.77648  1.0000
  C   C954      1.0  0.40045  0.13129  0.77008  1.0000
  C   C955      1.0  0.48479  0.02738  0.81282  1.0000
  C   C956      1.0  0.49421  0.00173  0.83716  1.0000
  H   H1522     1.0  0.40599  0.99688  0.85160  1.0000
  H   H1523     1.0  0.50657  0.24639  0.76744  1.0000
  C   C957      1.0  0.59843  0.29605  0.76973  1.0000
  H   H1524     1.0  0.45296  0.11544  0.75084  1.0000
  H   H1525     1.0  0.57302  0.14415  0.74339  1.0000
  H   H1526     1.0  0.59524  0.30412  0.78094  1.0000
  Fe  Fe186     1.0  0.55302  0.21127  0.75570  1.0000
  H   H1527     1.0  0.53845  0.16881  0.77811  1.0000
  H   H1528     1.0  0.61634  0.23566  0.97179  1.0000
  H   H1529     1.0  0.60792  0.28276  0.77429  1.0000
  C   C958      1.0  0.53417  0.15722  0.77483  1.0000
  H   H1530     1.0  0.51404  0.03931  0.81600  1.0000
  H   H1531     1.0  0.48768  0.23581  0.76811  1.0000
  H   H1532     1.0  0.45731  0.26901  0.76696  1.0000
  H   H1533     1.0  0.35368  0.41990  0.75701  1.0000
  C   C959      1.0  0.48977  0.28160  0.75380  1.0000
  H   H1534     1.0  0.48280  0.28542  0.76746  1.0000
  S   S376      1.0  0.40040  0.22120  0.76292  1.0000
  H   H1535     1.0  0.48364  0.00811  0.84807  1.0000
  H   H1536     1.0  0.50870  0.99767  0.80196  1.0000
  H   H1537     1.0  0.55678  0.30876  0.75623  1.0000
  C   C960      1.0  0.53687  0.17316  0.95246  1.0000
  H   H1538     1.0  0.46228  0.25320  0.75171  1.0000
  H   H1539     1.0  0.48503  0.29339  0.74273  1.0000
  H   H1540     1.0  0.46671  0.19881  0.97277  1.0000
  H   H1541     1.0  0.62886  0.20170  0.97748  1.0000
  Fe  Fe187     1.0  0.58688  0.22910  0.73973  1.0000
  C   C961      1.0  0.53757  0.14569  0.97715  1.0000
  H   H1542     1.0  0.65559  0.23744  0.97423  1.0000
  H   H1543     1.0  0.55417  0.99412  0.87831  1.0000
  H   H1544     1.0  0.46062  0.27770  0.74219  1.0000
  H   H1545     1.0  0.59540  0.26729  0.75677  1.0000
  H   H1546     1.0  0.36891  0.39120  0.74486  1.0000
  C   C962      1.0  0.51173  0.20964  0.74308  1.0000
  H   H1547     1.0  0.62220  0.24997  0.98409  1.0000
  C   C963      1.0  0.58650  0.28101  0.75204  1.0000
  H   H1548     1.0  0.48770  0.99239  0.83272  1.0000
  H   H1549     1.0  0.50588  0.99275  0.84373  1.0000
  C   C964      1.0  0.33410  0.40690  0.73968  1.0000
  H   H1550     1.0  0.65937  0.46743  0.89346  1.0000
  C   C965      1.0  0.61942  0.23593  0.98534  1.0000
  H   H1551     1.0  0.55153  0.15957  0.73891  1.0000
  Fe  Fe188     1.0  0.59862  0.83294  0.10793  1.0000
  S   S377      1.0  0.59814  0.80517  0.12781  1.0000
  S   S378      1.0  0.61263  0.83552  0.07756  1.0000
  Fe  Fe189     1.0  0.57753  0.85521  0.13763  1.0000
  S   S379      1.0  0.57548  0.82940  0.15964  1.0000
  S   S380      1.0  0.56195  0.88174  0.14713  1.0000
  Fe  Fe190     1.0  0.60501  0.81909  0.14735  1.0000
  S   S381      1.0  0.62257  0.80661  0.16900  1.0000
  Fe  Fe191     1.0  0.56858  0.81814  0.13830  1.0000
  S   S382      1.0  0.54420  0.80392  0.14825  1.0000
  S   S383      1.0  0.60793  0.84593  0.12686  1.0000
  S   S384      1.0  0.56831  0.84476  0.11692  1.0000
  H   H1552     1.0  0.37948  0.68478  0.20747  1.0000
  C   C966      1.0  0.59468  0.80207  0.04509  1.0000
  C   C967      1.0  0.53459  0.89319  0.22225  1.0000
  C   C968      1.0  0.34318  0.49999  0.20270  1.0000
  C   C969      1.0  0.39330  0.68617  0.17077  1.0000
  Fe  Fe192     1.0  0.43731  0.81204  0.11705  1.0000
  S   S385      1.0  0.46304  0.79039  0.12051  1.0000
  S   S386      1.0  0.42247  0.82457  0.14217  1.0000
  Fe  Fe193     1.0  0.44075  0.80873  0.07681  1.0000
  S   S387      1.0  0.46691  0.78701  0.07732  1.0000
  S   S388      1.0  0.43036  0.82175  0.04993  1.0000
  Fe  Fe194     1.0  0.45226  0.77466  0.10569  1.0000
  S   S389      1.0  0.45629  0.74376  0.11675  1.0000
  Fe  Fe195     1.0  0.47518  0.80486  0.09204  1.0000
  S   S390      1.0  0.50353  0.81211  0.08237  1.0000
  S   S391      1.0  0.42521  0.79513  0.10433  1.0000
  S   S392      1.0  0.45016  0.82766  0.08948  1.0000
  H   H1553     1.0  0.49851  0.86089  0.02043  1.0000
  Fe  Fe196     1.0  0.45397  0.89410  0.18287  1.0000
  S   S393      1.0  0.46176  0.87355  0.20808  1.0000
  S   S394      1.0  0.45801  0.88650  0.15496  1.0000
  C   C970      1.0  0.59570  0.86408  0.02764  1.0000
  Fe  Fe197     1.0  0.47981  0.89240  0.20865  1.0000
  S   S395      1.0  0.50967  0.88068  0.21061  1.0000
  Fe  Fe198     1.0  0.34078  0.56288  0.22089  1.0000
  Fe  Fe199     1.0  0.59095  0.93126  0.20942  1.0000
  H   H1554     1.0  0.34460  0.53385  0.14274  1.0000
  S   S396      1.0  0.60568  0.91792  0.18489  1.0000
  Fe  Fe200     1.0  0.58365  0.80124  0.00335  1.0000
  H   H1555     1.0  0.51811  0.98528  0.23408  1.0000
  C   C971      1.0  0.60594  0.85069  0.19035  1.0000
  C   C972      1.0  0.34500  0.51493  0.20965  1.0000
  S   S397      1.0  0.45825  0.90998  0.22668  1.0000
  C   C973      1.0  0.39486  0.68223  0.20294  1.0000
  S   S398      1.0  0.58764  0.78897  0.03294  1.0000
  Fe  Fe201     1.0  0.57750  0.96809  0.22253  1.0000
  S   S399      1.0  0.56362  0.95146  0.21144  1.0000
  H   H1556     1.0  0.58233  0.81625  0.08654  1.0000
  H   H1557     1.0  0.62885  0.82513  0.04214  1.0000
  H   H1558     1.0  0.59888  0.86405  0.18260  1.0000
  C   C974      1.0  0.49981  0.84559  0.02554  1.0000
  H   H1559     1.0  0.63561  0.64597  0.22983  1.0000
  C   C975      1.0  0.49747  0.95584  0.17261  1.0000
  H   H1560     1.0  0.55306  0.90724  0.22822  1.0000
  H   H1561     1.0  0.53619  0.78242  0.07538  1.0000
  H   H1562     1.0  0.56667  0.86054  0.01556  1.0000
  S   S400      1.0  0.61779  0.72285  0.20559  1.0000
  H   H1563     1.0  0.52668  0.80451  0.04770  1.0000
  C   C976      1.0  0.44890  0.96881  0.22314  1.0000
  S   S401      1.0  0.43727  0.68291  0.21697  1.0000
  H   H1564     1.0  0.57234  0.79840  0.06885  1.0000
  H   H1565     1.0  0.49383  0.81203  0.02541  1.0000
  S   S402      1.0  0.40581  0.73097  0.19674  1.0000
  H   H1566     1.0  0.42688  0.66336  0.16913  1.0000
  Fe  Fe202     1.0  0.59940  0.71763  0.23384  1.0000
  C   C977      1.0  0.45120  0.97380  0.20373  1.0000
  H   H1567     1.0  0.60032  0.89227  0.99801  1.0000
  C   C978      1.0  0.54447  0.77259  0.06624  1.0000
  C   C979      1.0  0.37435  0.49879  0.18440  1.0000
  C   C980      1.0  0.36159  0.52170  0.20392  1.0000
  H   H1568     1.0  0.33040  0.49480  0.20704  1.0000
  H   H1569     1.0  0.62053  0.86552  0.21044  1.0000
  C   C981      1.0  0.60265  0.84584  0.00403  1.0000
  H   H1570     1.0  0.62890  0.74111  0.16786  1.0000
  H   H1571     1.0  0.45949  0.75831  0.18556  1.0000
  H   H1572     1.0  0.35179  0.53006  0.16443  1.0000
  Fe  Fe203     1.0  0.45073  0.92782  0.20001  1.0000
  N   N99       1.0  0.62587  0.85036  0.18855  1.0000
  Fe  Fe204     1.0  0.33152  0.60233  0.22838  1.0000
  S   S403      1.0  0.44872  0.95908  0.19024  1.0000
  H   H1573     1.0  0.59854  0.84900  0.20513  1.0000
  H   H1574     1.0  0.51073  0.77295  0.04379  1.0000
  H   H1575     1.0  0.51760  0.75638  0.06377  1.0000
  H   H1576     1.0  0.60396  0.83931  0.18466  1.0000
  H   H1577     1.0  0.52200  0.67672  0.23250  1.0000
  N   N100      1.0  0.53634  0.77500  0.04975  1.0000
  H   H1578     1.0  0.50000  0.85781  0.18839  1.0000
  H   H1579     1.0  0.40940  0.77238  0.18102  1.0000
  H   H1580     1.0  0.62545  0.66915  0.23327  1.0000
  N   N101      1.0  0.50863  0.94666  0.18711  1.0000
  H   H1581     1.0  0.42793  0.66033  0.19318  1.0000
  H   H1582     1.0  0.48794  0.94707  0.17205  1.0000
  H   H1583     1.0  0.40094  0.67330  0.21493  1.0000
  H   H1584     1.0  0.48358  0.86051  0.17392  1.0000
  H   H1585     1.0  0.49904  0.83862  0.17898  1.0000
  H   H1586     1.0  0.39781  0.68012  0.15806  1.0000
  S   S404      1.0  0.42993  0.91164  0.19883  1.0000
  H   H1587     1.0  0.49434  0.86156  0.14018  1.0000
  H   H1588     1.0  0.41872  0.79097  0.20723  1.0000
  H   H1589     1.0  0.39876  0.64882  0.17888  1.0000
  S   S405      1.0  0.43488  0.71806  0.23623  1.0000
  H   H1590     1.0  0.41974  0.76646  0.21030  1.0000
  S   S406      1.0  0.56384  0.82842  0.99716  1.0000
  H   H1591     1.0  0.54936  0.79794  0.03434  1.0000
  C   C982      1.0  0.51743  0.77096  0.05586  1.0000
  S   S407      1.0  0.56932  0.78539  0.99189  1.0000
  H   H1592     1.0  0.54252  0.76374  0.02505  1.0000
  C   C983      1.0  0.37629  0.51332  0.19156  1.0000
  S   S408      1.0  0.47397  0.91161  0.18219  1.0000
  H   H1593     1.0  0.62799  0.83081  0.21448  1.0000
  C   C984      1.0  0.53537  0.79439  0.03910  1.0000
  H   H1594     1.0  0.63318  0.82044  0.19455  1.0000
  H   H1595     1.0  0.51871  0.85900  0.13013  1.0000
  H   H1596     1.0  0.53118  0.96092  0.17381  1.0000
  H   H1597     1.0  0.55887  0.77521  0.06211  1.0000
  H   H1598     1.0  0.39315  0.78061  0.99927  1.0000
  C   C985      1.0  0.63513  0.85221  0.16871  1.0000
  Fe  Fe205     1.0  0.41825  0.71035  0.21974  1.0000
  H   H1599     1.0  0.38574  0.49273  0.17452  1.0000
  H   H1600     1.0  0.45474  0.84557  0.04655  1.0000
  H   H1601     1.0  0.52890  0.92182  0.19329  1.0000
  H   H1602     1.0  0.40566  0.79450  0.00556  1.0000
  H   H1603     1.0  0.61707  0.84064  0.00652  1.0000
  H   H1604     1.0  0.33616  0.57031  0.17061  1.0000
  S   S409      1.0  0.33753  0.62970  0.23040  1.0000
  C   C986      1.0  0.42162  0.66989  0.18152  1.0000
  C   C987      1.0  0.44162  0.73872  0.13847  1.0000
  C   C988      1.0  0.44790  0.72417  0.15252  1.0000
  C   C989      1.0  0.43675  0.72118  0.17042  1.0000
  C   C990      1.0  0.41914  0.73247  0.17408  1.0000
  C   C991      1.0  0.41252  0.74633  0.15976  1.0000
  C   C992      1.0  0.42386  0.74967  0.14209  1.0000
  H   H1605     1.0  0.46168  0.71570  0.14973  1.0000
  H   H1606     1.0  0.44205  0.71059  0.18144  1.0000
  H   H1607     1.0  0.39883  0.75497  0.16248  1.0000
  H   H1608     1.0  0.41882  0.76070  0.13122  1.0000
  C   C993      1.0  0.43280  0.84124  0.14616  1.0000
  C   C994      1.0  0.44761  0.84766  0.13309  1.0000
  C   C995      1.0  0.45520  0.86148  0.13605  1.0000
  C   C996      1.0  0.44844  0.86863  0.15234  1.0000
  C   C997      1.0  0.43408  0.86175  0.16578  1.0000
  C   C998      1.0  0.42613  0.84822  0.16258  1.0000
  H   H1609     1.0  0.45295  0.84231  0.12048  1.0000
  H   H1610     1.0  0.46622  0.86680  0.12553  1.0000
  H   H1611     1.0  0.42871  0.86728  0.17833  1.0000
  H   H1612     1.0  0.41463  0.84338  0.17273  1.0000
  C   C999      1.0  0.44571  0.78845  0.00369  1.0000
  C   C1000     1.0  0.43947  0.80776  0.99980  1.0000
  C   C1001     1.0  0.43471  0.81781  0.01410  1.0000
  C   C1002     1.0  0.43661  0.80868  0.03233  1.0000
  C   C1003     1.0  0.44329  0.78944  0.03618  1.0000
  C   C1004     1.0  0.44766  0.77934  0.02193  1.0000
  H   H1613     1.0  0.51325  0.97252  0.19000  1.0000
  H   H1614     1.0  0.42958  0.83270  0.01103  1.0000
  H   H1615     1.0  0.44465  0.78224  0.05023  1.0000
  H   H1616     1.0  0.45240  0.76438  0.02508  1.0000
  C   C1005     1.0  0.62093  0.78344  0.17918  1.0000
  C   C1006     1.0  0.62554  0.77013  0.16812  1.0000
  C   C1007     1.0  0.62497  0.75144  0.17644  1.0000
  C   C1008     1.0  0.61916  0.74616  0.19575  1.0000
  C   C1009     1.0  0.61417  0.75953  0.20680  1.0000
  C   C1010     1.0  0.61535  0.77813  0.19853  1.0000
  H   H1617     1.0  0.47261  0.86050  0.00592  1.0000
  H   H1618     1.0  0.64272  0.86598  0.19495  1.0000
  H   H1619     1.0  0.60984  0.75548  0.22173  1.0000
  H   H1620     1.0  0.61187  0.78840  0.20712  1.0000
  C   C1011     1.0  0.57427  0.89160  0.15760  1.0000
  C   C1012     1.0  0.56497  0.89951  0.17303  1.0000
  C   C1013     1.0  0.57436  0.90784  0.18148  1.0000
  C   C1014     1.0  0.59310  0.90843  0.17430  1.0000
  C   C1015     1.0  0.60237  0.90063  0.15874  1.0000
  C   C1016     1.0  0.59303  0.89205  0.15051  1.0000
  H   H1621     1.0  0.55057  0.89877  0.17860  1.0000
  H   H1622     1.0  0.56717  0.91373  0.19354  1.0000
  H   H1623     1.0  0.61681  0.90126  0.15301  1.0000
  H   H1624     1.0  0.60022  0.88619  0.13842  1.0000
  C   C1017     1.0  0.53289  0.80644  0.12994  1.0000
  C   C1018     1.0  0.54203  0.81096  0.11144  1.0000
  C   C1019     1.0  0.53292  0.81289  0.09685  1.0000
  C   C1020     1.0  0.51453  0.81053  0.10076  1.0000
  C   C1021     1.0  0.50525  0.80658  0.11931  1.0000
  C   C1022     1.0  0.51449  0.80424  0.13388  1.0000
  H   H1625     1.0  0.55623  0.81268  0.10843  1.0000
  H   H1626     1.0  0.54016  0.81615  0.08255  1.0000
  H   H1627     1.0  0.49092  0.80550  0.12250  1.0000
  H   H1628     1.0  0.50724  0.80103  0.14817  1.0000
  C   C1023     1.0  0.60600  0.82211  0.06543  1.0000
  C   C1024     1.0  0.59019  0.81439  0.07294  1.0000
  C   C1025     1.0  0.58456  0.80435  0.06285  1.0000
  H   H1629     1.0  0.34678  0.66158  0.23666  1.0000
  N   N102      1.0  0.48172  0.84003  0.02906  1.0000
  H   H1630     1.0  0.46616  0.86499  0.03847  1.0000
  C   C1026     1.0  0.48408  0.81966  0.03588  1.0000
  C   C1027     1.0  0.47444  0.84526  0.01166  1.0000
  H   H1631     1.0  0.59409  0.83561  0.01271  1.0000
  C   C1028     1.0  0.34512  0.54090  0.15375  1.0000
  C   C1029     1.0  0.35780  0.49215  0.18977  1.0000
  H   H1632     1.0  0.35443  0.55107  0.14748  1.0000
  H   H1633     1.0  0.65406  0.68819  0.20371  1.0000
  H   H1634     1.0  0.46073  0.84130  0.01404  1.0000
  S   S410      1.0  0.57913  0.70037  0.23482  1.0000
  H   H1635     1.0  0.62202  0.87964  0.18746  1.0000
  H   H1636     1.0  0.61026  0.85988  0.02991  1.0000
  H   H1637     1.0  0.51016  0.83879  0.01484  1.0000
  H   H1638     1.0  0.33368  0.52113  0.21946  1.0000
  S   S411      1.0  0.52063  0.81512  0.99020  1.0000
  C   C1030     1.0  0.45006  0.98158  0.23325  1.0000
  N   N103      1.0  0.56609  0.75445  0.18252  1.0000
  C   C1031     1.0  0.54821  0.75785  0.17653  1.0000
  C   C1032     1.0  0.56319  0.74886  0.20305  1.0000
  C   C1033     1.0  0.57367  0.77168  0.17625  1.0000
  C   C1034     1.0  0.57933  0.73939  0.17420  1.0000
  H   H1639     1.0  0.54998  0.76207  0.16108  1.0000
  H   H1640     1.0  0.53798  0.76934  0.18231  1.0000
  H   H1641     1.0  0.54197  0.74520  0.18112  1.0000
  H   H1642     1.0  0.55726  0.73602  0.20833  1.0000
  H   H1643     1.0  0.57654  0.74592  0.20792  1.0000
  H   H1644     1.0  0.55348  0.75996  0.20986  1.0000
  H   H1645     1.0  0.58676  0.76990  0.18113  1.0000
  H   H1646     1.0  0.56372  0.78357  0.18158  1.0000
  H   H1647     1.0  0.57675  0.77588  0.16077  1.0000
  H   H1648     1.0  0.59296  0.73643  0.17847  1.0000
  H   H1649     1.0  0.58197  0.74316  0.15871  1.0000
  H   H1650     1.0  0.57407  0.72617  0.17867  1.0000
  H   H1651     1.0  0.54509  0.75822  0.07480  1.0000
  H   H1652     1.0  0.64535  0.69245  0.22674  1.0000
  H   H1653     1.0  0.54903  0.74732  0.04530  1.0000
  C   C1035     1.0  0.61636  0.81952  0.04783  1.0000
  H   H1654     1.0  0.51084  0.91878  0.18374  1.0000
  H   H1655     1.0  0.42693  0.68304  0.17824  1.0000
  H   H1656     1.0  0.43614  0.80787  0.17825  1.0000
  H   H1657     1.0  0.48864  0.96933  0.17541  1.0000
  H   H1658     1.0  0.50838  0.78026  0.06519  1.0000
  H   H1659     1.0  0.63405  0.84056  0.16286  1.0000
  C   C1036     1.0  0.37137  0.81425  0.00272  1.0000
  C   C1037     1.0  0.39993  0.79287  0.99403  1.0000
  H   H1660     1.0  0.40079  0.64567  0.20262  1.0000
  N   N104      1.0  0.65527  0.66351  0.22549  1.0000
  C   C1038     1.0  0.61080  0.80937  0.03776  1.0000
  H   H1661     1.0  0.43974  0.77449  0.21130  1.0000
  H   H1662     1.0  0.56252  0.76468  0.03313  1.0000
  C   C1039     1.0  0.62789  0.86601  0.19571  1.0000
  C   C1040     1.0  0.44648  0.76121  0.18018  1.0000
  H   H1663     1.0  0.52946  0.79664  0.02647  1.0000
  H   H1664     1.0  0.54494  0.88718  0.21159  1.0000
  H   H1665     1.0  0.37784  0.68916  0.17414  1.0000
  H   H1666     1.0  0.43939  0.74935  0.18715  1.0000
  H   H1667     1.0  0.36130  0.82707  0.99804  1.0000
  C   C1041     1.0  0.54809  0.76209  0.03779  1.0000
  C   C1042     1.0  0.57529  0.87032  0.00593  1.0000
  H   H1668     1.0  0.47372  0.84604  0.05650  1.0000
  H   H1669     1.0  0.64966  0.83174  0.19816  1.0000
  H   H1670     1.0  0.45040  0.76114  0.16499  1.0000
  H   H1671     1.0  0.36367  0.80266  0.00850  1.0000
  H   H1672     1.0  0.39913  0.69584  0.19996  1.0000
  C   C1043     1.0  0.65627  0.68338  0.21831  1.0000
  H   H1673     1.0  0.42245  0.78351  0.15961  1.0000
  C   C1044     1.0  0.51978  0.92865  0.18304  1.0000
  H   H1674     1.0  0.48948  0.81517  0.04902  1.0000
  H   H1675     1.0  0.58787  0.85384  0.03774  1.0000
  C   C1045     1.0  0.52118  0.95865  0.18732  1.0000
  H   H1676     1.0  0.37932  0.65769  0.19559  1.0000
  H   H1677     1.0  0.37649  0.81659  0.01434  1.0000
  H   H1678     1.0  0.44585  0.95530  0.23038  1.0000
  H   H1679     1.0  0.58977  0.87791  0.03145  1.0000
  H   H1680     1.0  0.45727  0.79169  0.18229  1.0000
  N   N105      1.0  0.51171  0.85999  0.15923  1.0000
  C   C1046     1.0  0.50999  0.88039  0.15567  1.0000
  C   C1047     1.0  0.53052  0.85077  0.16246  1.0000
  C   C1048     1.0  0.50848  0.85477  0.14295  1.0000
  C   C1049     1.0  0.49797  0.85396  0.17590  1.0000
  H   H1681     1.0  0.49606  0.88788  0.15279  1.0000
  H   H1682     1.0  0.52060  0.88523  0.14347  1.0000
  H   H1683     1.0  0.51207  0.88476  0.16784  1.0000
  H   H1684     1.0  0.53219  0.83536  0.16589  1.0000
  H   H1685     1.0  0.54112  0.85444  0.14986  1.0000
  H   H1686     1.0  0.53375  0.85513  0.17408  1.0000
  H   H1687     1.0  0.50974  0.83946  0.14518  1.0000
  H   H1688     1.0  0.48398  0.83807  0.00071  1.0000
  H   H1689     1.0  0.62060  0.87389  0.99644  1.0000
  H   H1690     1.0  0.48620  0.93480  0.20579  1.0000
  N   N106      1.0  0.40111  0.67347  0.18654  1.0000
  C   C1050     1.0  0.39470  0.65566  0.19105  1.0000
  H   H1691     1.0  0.40233  0.82841  0.99114  1.0000
  H   H1692     1.0  0.50643  0.95857  0.15854  1.0000
  H   H1693     1.0  0.65015  0.85219  0.16675  1.0000
  H   H1694     1.0  0.61913  0.80692  0.02444  1.0000
  H   H1695     1.0  0.39784  0.69978  0.16720  1.0000
  H   H1696     1.0  0.52945  0.95220  0.19842  1.0000
  H   H1697     1.0  0.47065  0.81505  0.03874  1.0000
  S   S412      1.0  0.36471  0.54086  0.21118  1.0000
  H   H1698     1.0  0.44986  0.79557  0.16063  1.0000
  H   H1699     1.0  0.33468  0.54915  0.18753  1.0000
  Fe  Fe206     1.0  0.43955  0.89225  0.22426  1.0000
  N   N107      1.0  0.43437  0.77905  0.18376  1.0000
  H   H1700     1.0  0.50414  0.93610  0.21670  1.0000
  H   H1701     1.0  0.52888  0.93035  0.16895  1.0000
  H   H1702     1.0  0.56903  0.88450  0.00874  1.0000
  S   S413      1.0  0.60548  0.94914  0.21808  1.0000
  H   H1703     1.0  0.40914  0.79688  0.17653  1.0000
  C   C1051     1.0  0.42789  0.77771  0.20406  1.0000
  C   C1052     1.0  0.46851  0.84959  0.04326  1.0000
  C   C1053     1.0  0.44492  0.79417  0.17595  1.0000
  H   H1704     1.0  0.48791  0.95676  0.20932  1.0000
  C   C1054     1.0  0.49618  0.94345  0.20553  1.0000
  C   C1055     1.0  0.41813  0.78309  0.17487  1.0000
  H   H1705     1.0  0.57414  0.87060  0.99148  1.0000
  S   S414      1.0  0.33666  0.59135  0.20227  1.0000
  H   H1706     1.0  0.63001  0.77417  0.15319  1.0000
  C   C1056     1.0  0.35881  0.65038  0.23754  1.0000
  N   N108      1.0  0.59484  0.86457  0.00822  1.0000
  H   H1707     1.0  0.62873  0.86535  0.16007  1.0000
  H   H1708     1.0  0.38918  0.51833  0.18719  1.0000
  H   H1709     1.0  0.50566  0.84161  0.03845  1.0000
  C   C1057     1.0  0.51628  0.89081  0.22561  1.0000
  C   C1058     1.0  0.53920  0.90450  0.23171  1.0000
  Fe  Fe207     1.0  0.45222  0.68937  0.23596  1.0000
  C   C1059     1.0  0.63456  0.83259  0.19944  1.0000
  C   C1060     1.0  0.60572  0.87796  0.99525  1.0000
  S   S415      1.0  0.48351  0.68178  0.23216  1.0000
  C   C1061     1.0  0.51517  0.69013  0.23592  1.0000
  C   C1062     1.0  0.35810  0.63279  0.23516  1.0000
  C   C1063     1.0  0.37367  0.61838  0.23645  1.0000
  C   C1064     1.0  0.49607  0.69639  0.23638  1.0000
  H   H1710     1.0  0.63336  0.97515  0.23634  1.0000
  H   H1711     1.0  0.37329  0.60476  0.23468  1.0000
  C   C1065     1.0  0.63692  0.66079  0.22460  1.0000
  S   S416      1.0  0.58418  0.91421  0.23821  1.0000
  H   H1712     1.0  0.63439  0.66508  0.21012  1.0000
  H   H1713     1.0  0.60321  0.84581  0.98925  1.0000
  C   C1066     1.0  0.32787  0.55921  0.17656  1.0000
  S   S417      1.0  0.33629  0.78443  0.48628  1.0000
  S   S418      1.0  0.59130  0.72528  0.30069  1.0000
  Fe  Fe208     1.0  0.57977  0.84766  0.34727  1.0000
  S   S419      1.0  0.60755  0.83418  0.33281  1.0000
  S   S420      1.0  0.56772  0.87831  0.34004  1.0000
  Fe  Fe209     1.0  0.57041  0.81060  0.37009  1.0000
  S   S421      1.0  0.59736  0.79444  0.35701  1.0000
  S   S422      1.0  0.55266  0.79410  0.39371  1.0000
  Fe  Fe210     1.0  0.61010  0.81651  0.36134  1.0000
  S   S423      1.0  0.63579  0.80644  0.37449  1.0000
  Fe  Fe211     1.0  0.59198  0.81371  0.33013  1.0000
  S   S424      1.0  0.59238  0.80812  0.30210  1.0000
  S   S425      1.0  0.58330  0.83162  0.37592  1.0000
  S   S426      1.0  0.56399  0.82820  0.34306  1.0000
  Fe  Fe212     1.0  0.46820  0.77495  0.36321  1.0000
  S   S427      1.0  0.47981  0.77448  0.33323  1.0000
  S   S428      1.0  0.48443  0.76427  0.38623  1.0000
  Fe  Fe213     1.0  0.42871  0.78943  0.35719  1.0000
  S   S429      1.0  0.43674  0.79027  0.32632  1.0000
  S   S430      1.0  0.40014  0.80264  0.37113  1.0000
  Fe  Fe214     1.0  0.45535  0.76257  0.33400  1.0000
  S   S431      1.0  0.46441  0.74122  0.31589  1.0000
  Fe  Fe215     1.0  0.46062  0.80200  0.32732  1.0000
  S   S432      1.0  0.47268  0.82397  0.30493  1.0000
  S   S433      1.0  0.44516  0.76044  0.36493  1.0000
  S   S434      1.0  0.45122  0.80374  0.35743  1.0000
  H   H1714     1.0  0.41277  0.78593  0.44306  1.0000
  S   S435      1.0  0.35869  0.75668  0.44540  1.0000
  C   C1067     1.0  0.50243  0.67287  0.28411  1.0000
  H   H1715     1.0  0.41914  0.84124  0.27403  1.0000
  S   S436      1.0  0.61432  0.92166  0.26830  1.0000
  Fe  Fe216     1.0  0.41676  0.70367  0.26104  1.0000
  H   H1716     1.0  0.37016  0.85784  0.34087  1.0000
  S   S437      1.0  0.40549  0.71589  0.28677  1.0000
  H   H1717     1.0  0.43891  0.82027  0.29573  1.0000
  H   H1718     1.0  0.46590  0.77162  0.27718  1.0000
  H   H1719     1.0  0.44746  0.78511  0.39866  1.0000
  H   H1720     1.0  0.50525  0.66443  0.27325  1.0000
  C   C1068     1.0  0.44734  0.73611  0.30708  1.0000
  C   C1069     1.0  0.45261  0.72941  0.29053  1.0000
  C   C1070     1.0  0.43967  0.72368  0.28398  1.0000
  C   C1071     1.0  0.42144  0.72445  0.29403  1.0000
  C   C1072     1.0  0.41604  0.73167  0.31029  1.0000
  C   C1073     1.0  0.42894  0.73761  0.31677  1.0000
  H   H1721     1.0  0.46675  0.72854  0.28279  1.0000
  H   H1722     1.0  0.44380  0.71845  0.27128  1.0000
  H   H1723     1.0  0.40191  0.73238  0.31806  1.0000
  H   H1724     1.0  0.42478  0.74277  0.32957  1.0000
  C   C1074     1.0  0.38809  0.78973  0.39133  1.0000
  C   C1075     1.0  0.37344  0.79911  0.40314  1.0000
  C   C1076     1.0  0.36405  0.78917  0.41966  1.0000
  C   C1077     1.0  0.36922  0.76976  0.42438  1.0000
  C   C1078     1.0  0.38372  0.76040  0.41243  1.0000
  C   C1079     1.0  0.39313  0.77033  0.39598  1.0000
  H   H1725     1.0  0.36941  0.81412  0.39961  1.0000
  H   H1726     1.0  0.35291  0.79649  0.42879  1.0000
  H   H1727     1.0  0.38766  0.74537  0.41594  1.0000
  H   H1728     1.0  0.40412  0.76295  0.38679  1.0000
  C   C1080     1.0  0.53353  0.78681  0.39056  1.0000
  C   C1081     1.0  0.52646  0.77283  0.40447  1.0000
  C   C1082     1.0  0.51138  0.76631  0.40284  1.0000
  C   C1083     1.0  0.50295  0.77382  0.38740  1.0000
  C   C1084     1.0  0.50980  0.78798  0.37339  1.0000
  C   C1085     1.0  0.52521  0.79442  0.37493  1.0000
  H   H1729     1.0  0.53274  0.76693  0.41659  1.0000
  H   H1730     1.0  0.50624  0.75535  0.41368  1.0000
  H   H1731     1.0  0.50330  0.79393  0.36143  1.0000
  H   H1732     1.0  0.53049  0.80538  0.36421  1.0000
  C   C1086     1.0  0.44853  0.76939  0.43426  1.0000
  C   C1087     1.0  0.58252  0.91640  0.29401  1.0000
  S   S438      1.0  0.57845  0.73744  0.24997  1.0000
  H   H1733     1.0  0.57544  0.92847  0.28556  1.0000
  H   H1734     1.0  0.61824  0.84126  0.38725  1.0000
  S   S439      1.0  0.56936  0.95430  0.25238  1.0000
  H   H1735     1.0  0.41776  0.83192  0.34565  1.0000
  H   H1736     1.0  0.63394  0.88485  0.43136  1.0000
  C   C1088     1.0  0.59343  0.74812  0.29981  1.0000
  C   C1089     1.0  0.58898  0.76276  0.28509  1.0000
  C   C1090     1.0  0.58901  0.78112  0.28575  1.0000
  C   C1091     1.0  0.59336  0.78492  0.30117  1.0000
  C   C1092     1.0  0.59812  0.77024  0.31572  1.0000
  C   C1093     1.0  0.59822  0.75189  0.31499  1.0000
  H   H1737     1.0  0.58546  0.79243  0.27439  1.0000
  H   H1738     1.0  0.60182  0.77300  0.32748  1.0000
  H   H1739     1.0  0.60196  0.74060  0.32629  1.0000
  C   C1094     1.0  0.50308  0.89807  0.23981  1.0000
  C   C1095     1.0  0.43723  0.86095  0.26349  1.0000
  C   C1096     1.0  0.45402  0.86501  0.26410  1.0000
  C   C1097     1.0  0.46500  0.85333  0.27658  1.0000
  C   C1098     1.0  0.45934  0.83743  0.28841  1.0000
  C   C1099     1.0  0.44303  0.83282  0.28715  1.0000
  C   C1100     1.0  0.43191  0.84464  0.27481  1.0000
  H   H1740     1.0  0.57703  0.86228  0.30653  1.0000
  H   H1741     1.0  0.47771  0.85690  0.27732  1.0000
  Fe  Fe217     1.0  0.58756  0.71751  0.27513  1.0000
  Fe  Fe218     1.0  0.55809  0.93588  0.24105  1.0000
  H   H1742     1.0  0.61573  0.65696  0.28828  1.0000
  C   C1101     1.0  0.60170  0.91023  0.28894  1.0000
  H   H1743     1.0  0.61320  0.91581  0.45282  1.0000
  C   C1102     1.0  0.47991  0.68558  0.30875  1.0000
  H   H1744     1.0  0.41439  0.76111  0.44938  1.0000
  H   H1745     1.0  0.58694  0.87429  0.28401  1.0000
  H   H1746     1.0  0.40375  0.77459  0.43027  1.0000
  H   H1747     1.0  0.40651  0.83073  0.30977  1.0000
  C   C1103     1.0  0.55733  0.73033  0.34685  1.0000
  H   H1748     1.0  0.44682  0.78238  0.43935  1.0000
  H   H1749     1.0  0.43651  0.74077  0.42952  1.0000
  H   H1750     1.0  0.58711  0.84974  0.28825  1.0000
  H   H1751     1.0  0.38201  0.83758  0.31781  1.0000
  C   C1104     1.0  0.60523  0.97001  0.27923  1.0000
  C   C1105     1.0  0.41537  0.77315  0.43738  1.0000
  S   S440      1.0  0.43509  0.67531  0.26188  1.0000
  H   H1752     1.0  0.51240  0.77554  0.24745  1.0000
  H   H1753     1.0  0.45531  0.68203  0.29054  1.0000
  S   S441      1.0  0.52942  0.73214  0.24993  1.0000
  C   C1106     1.0  0.49715  0.77915  0.25279  1.0000
  H   H1754     1.0  0.56342  0.76519  0.33742  1.0000
  C   C1107     1.0  0.64092  0.81773  0.38992  1.0000
  H   H1755     1.0  0.53816  0.73957  0.31952  1.0000
  C   C1108     1.0  0.62996  0.83459  0.39393  1.0000
  C   C1109     1.0  0.47255  0.78200  0.27978  1.0000
  H   H1756     1.0  0.60750  0.87305  0.32491  1.0000
  H   H1757     1.0  0.49506  0.80628  0.27098  1.0000
  C   C1110     1.0  0.57238  0.90705  0.31026  1.0000
  H   H1758     1.0  0.42302  0.78744  0.40043  1.0000
  H   H1759     1.0  0.55566  0.75327  0.31338  1.0000
  H   H1760     1.0  0.63876  0.89840  0.48119  1.0000
  H   H1761     1.0  0.53170  0.76422  0.31914  1.0000
  H   H1762     1.0  0.47152  0.69508  0.27459  1.0000
  H   H1763     1.0  0.45017  0.75075  0.40796  1.0000
  C   C1111     1.0  0.62276  0.64427  0.28342  1.0000
  H   H1764     1.0  0.55336  0.71819  0.34423  1.0000
  H   H1765     1.0  0.53969  0.77678  0.34263  1.0000
  C   C1112     1.0  0.61072  0.89474  0.30029  1.0000
  C   C1113     1.0  0.61609  0.63879  0.27047  1.0000
  C   C1114     1.0  0.58123  0.89107  0.32116  1.0000
  C   C1115     1.0  0.63819  0.63294  0.29063  1.0000
  H   H1766     1.0  0.52025  0.73400  0.35228  1.0000
  H   H1767     1.0  0.55756  0.91195  0.31412  1.0000
  C   C1116     1.0  0.60047  0.88504  0.31628  1.0000
  C   C1117     1.0  0.64104  0.61122  0.27112  1.0000
  H   H1768     1.0  0.55052  0.76127  0.36091  1.0000
  H   H1769     1.0  0.57128  0.73133  0.33797  1.0000
  H   H1770     1.0  0.62558  0.88998  0.29653  1.0000
  N   N109      1.0  0.63348  0.89058  0.45790  1.0000
  C   C1118     1.0  0.51678  0.71829  0.24459  1.0000
  H   H1771     1.0  0.52582  0.74291  0.36959  1.0000
  N   N110      1.0  0.54358  0.74769  0.34256  1.0000
  C   C1119     1.0  0.65616  0.80934  0.39867  1.0000
  N   N111      1.0  0.56046  0.86765  0.28580  1.0000
  C   C1120     1.0  0.54964  0.85339  0.29687  1.0000
  C   C1121     1.0  0.57869  0.86333  0.29132  1.0000
  C   C1122     1.0  0.55023  0.88619  0.28926  1.0000
  C   C1123     1.0  0.56326  0.86764  0.26579  1.0000
  H   H1772     1.0  0.53605  0.85580  0.29266  1.0000
  H   H1773     1.0  0.54671  0.85358  0.31198  1.0000
  H   H1774     1.0  0.55736  0.83911  0.29525  1.0000
  H   H1775     1.0  0.46244  0.76733  0.42486  1.0000
  H   H1776     1.0  0.42557  0.75344  0.41034  1.0000
  H   H1777     1.0  0.64439  0.91380  0.45906  1.0000
  H   H1778     1.0  0.54783  0.88665  0.30427  1.0000
  H   H1779     1.0  0.53644  0.88999  0.28515  1.0000
  H   H1780     1.0  0.55800  0.89732  0.28118  1.0000
  H   H1781     1.0  0.57151  0.87815  0.25710  1.0000
  H   H1782     1.0  0.54976  0.87108  0.26113  1.0000
  H   H1783     1.0  0.57078  0.85378  0.26275  1.0000
  S   S442      1.0  0.42255  0.87649  0.24920  1.0000
  C   C1124     1.0  0.52571  0.91263  0.24519  1.0000
  S   S443      1.0  0.39836  0.69841  0.24459  1.0000
  H   H1784     1.0  0.49764  0.75754  0.29793  1.0000
  C   C1125     1.0  0.64164  0.89134  0.43790  1.0000
  H   H1785     1.0  0.37528  0.66715  0.24301  1.0000
  H   H1786     1.0  0.49744  0.91489  0.26038  1.0000
  H   H1787     1.0  0.65908  0.89142  0.46472  1.0000
  H   H1788     1.0  0.46894  0.78142  0.29503  1.0000
  H   H1789     1.0  0.63998  0.96137  0.28544  1.0000
  C   C1126     1.0  0.50112  0.79177  0.27742  1.0000
  C   C1127     1.0  0.46993  0.68096  0.28271  1.0000
  H   H1790     1.0  0.51642  0.78944  0.27226  1.0000
  H   H1791     1.0  0.62001  0.61779  0.25454  1.0000
  H   H1792     1.0  0.51616  0.75555  0.27796  1.0000
  H   H1793     1.0  0.65629  0.88352  0.43582  1.0000
  H   H1794     1.0  0.50467  0.68708  0.27671  1.0000
  H   H1795     1.0  0.46680  0.65444  0.31370  1.0000
  C   C1128     1.0  0.49769  0.72464  0.24491  1.0000
  C   C1129     1.0  0.52528  0.74566  0.35455  1.0000
  N   N112      1.0  0.62219  0.97398  0.26559  1.0000
  S   S444      1.0  0.61048  0.69936  0.25861  1.0000
  C   C1130     1.0  0.64970  0.83475  0.41501  1.0000
  C   C1131     1.0  0.41716  0.84440  0.33410  1.0000
  H   H1796     1.0  0.58528  0.76001  0.27333  1.0000
  H   H1797     1.0  0.51459  0.75855  0.35178  1.0000
  H   H1798     1.0  0.44874  0.75756  0.44649  1.0000
  Fe  Fe219     1.0  0.55896  0.71840  0.25313  1.0000
  H   H1799     1.0  0.46533  0.68711  0.31677  1.0000
  H   H1800     1.0  0.59257  0.97953  0.27506  1.0000
  C   C1132     1.0  0.50783  0.90886  0.24973  1.0000
  H   H1801     1.0  0.38615  0.86527  0.35004  1.0000
  C   C1133     1.0  0.64742  0.61642  0.28446  1.0000
  S   S445      1.0  0.56661  0.69962  0.27944  1.0000
  H   H1802     1.0  0.45834  0.87745  0.25538  1.0000
  H   H1803     1.0  0.38530  0.87055  0.30826  1.0000
  Fe  Fe220     1.0  0.58889  0.68316  0.26074  1.0000
  C   C1134     1.0  0.54956  0.76340  0.34605  1.0000
  C   C1135     1.0  0.39573  0.83415  0.32200  1.0000
  H   H1804     1.0  0.43112  0.79989  0.41297  1.0000
  H   H1805     1.0  0.64830  0.86280  0.46626  1.0000
  H   H1806     1.0  0.40068  0.87852  0.31775  1.0000
  H   H1807     1.0  0.48216  0.69986  0.30163  1.0000
  C   C1136     1.0  0.43659  0.75310  0.41779  1.0000
  C   C1137     1.0  0.62522  0.62220  0.26442  1.0000
  C   C1138     1.0  0.54215  0.75137  0.32279  1.0000
  H   H1808     1.0  0.55885  0.72714  0.36163  1.0000
  C   C1139     1.0  0.37498  0.65361  0.24102  1.0000
  C   C1140     1.0  0.63388  0.87097  0.46767  1.0000
  H   H1809     1.0  0.40995  0.86400  0.30100  1.0000
  N   N113      1.0  0.60150  0.78090  0.42068  1.0000
  C   C1141     1.0  0.61979  0.77754  0.42584  1.0000
  C   C1142     1.0  0.59405  0.80115  0.41638  1.0000
  C   C1143     1.0  0.58845  0.77193  0.43628  1.0000
  C   C1144     1.0  0.60366  0.77306  0.40412  1.0000
  H   H1810     1.0  0.62577  0.76240  0.42942  1.0000
  H   H1811     1.0  0.61884  0.78371  0.43798  1.0000
  H   H1812     1.0  0.62996  0.78390  0.41412  1.0000
  H   H1813     1.0  0.58030  0.80421  0.41226  1.0000
  H   H1814     1.0  0.59225  0.80761  0.42851  1.0000
  H   H1815     1.0  0.60359  0.80835  0.40469  1.0000
  H   H1816     1.0  0.57455  0.77434  0.43265  1.0000
  H   H1817     1.0  0.58645  0.77757  0.44900  1.0000
  H   H1818     1.0  0.59358  0.75661  0.43990  1.0000
  H   H1819     1.0  0.59017  0.77561  0.39963  1.0000
  H   H1820     1.0  0.60914  0.75778  0.40685  1.0000
  H   H1821     1.0  0.61349  0.77945  0.39210  1.0000
  N   N114      1.0  0.49291  0.77799  0.27313  1.0000
  C   C1145     1.0  0.39071  0.63931  0.24191  1.0000
  H   H1822     1.0  0.46607  0.79614  0.27290  1.0000
  H   H1823     1.0  0.49844  0.79106  0.29268  1.0000
  C   C1146     1.0  0.50081  0.75905  0.28254  1.0000
  H   H1824     1.0  0.49105  0.64823  0.31487  1.0000
  Fe  Fe221     1.0  0.59611  0.93381  0.24716  1.0000
  H   H1825     1.0  0.64299  0.63696  0.30105  1.0000
  C   C1147     1.0  0.64435  0.89900  0.46603  1.0000
  S   S446      1.0  0.65480  0.84637  0.43016  1.0000
  S   S447      1.0  0.53075  0.92833  0.25562  1.0000
  C   C1148     1.0  0.61405  0.90094  0.46002  1.0000
  H   H1826     1.0  0.60563  0.97151  0.29334  1.0000
  H   H1827     1.0  0.60553  0.89487  0.45402  1.0000
  C   C1149     1.0  0.63853  0.96049  0.27145  1.0000
  H   H1828     1.0  0.44795  0.97779  0.24829  1.0000
  H   H1829     1.0  0.63738  0.94589  0.27229  1.0000
  N   N115      1.0  0.43356  0.77052  0.42449  1.0000
  C   C1150     1.0  0.43380  0.78645  0.40844  1.0000
  H   H1830     1.0  0.38389  0.84133  0.35628  1.0000
  H   H1831     1.0  0.49503  0.74828  0.27946  1.0000
  H   H1832     1.0  0.42870  0.84105  0.32236  1.0000
  H   H1833     1.0  0.60751  0.90055  0.47497  1.0000
  C   C1151     1.0  0.39866  0.86642  0.31324  1.0000
  H   H1834     1.0  0.42010  0.85583  0.33896  1.0000
  N   N116      1.0  0.39893  0.84969  0.32846  1.0000
  N   N117      1.0  0.48336  0.67346  0.29524  1.0000
  H   H1835     1.0  0.39600  0.82126  0.33311  1.0000
  H   H1836     1.0  0.62602  0.86401  0.46182  1.0000
  H   H1837     1.0  0.48358  0.64503  0.29539  1.0000
  C   C1152     1.0  0.52549  0.70099  0.24011  1.0000
  H   H1838     1.0  0.62598  0.85625  0.40910  1.0000
  C   C1153     1.0  0.38413  0.85376  0.34461  1.0000
  H   H1839     1.0  0.61950  0.95787  0.24722  1.0000
  C   C1154     1.0  0.63439  0.84307  0.40634  1.0000
  H   H1840     1.0  0.48919  0.89544  0.24312  1.0000
  H   H1841     1.0  0.65160  0.96292  0.26144  1.0000
  S   S448      1.0  0.41187  0.64307  0.24473  1.0000
  S   S449      1.0  0.59631  0.65220  0.26168  1.0000
  H   H1842     1.0  0.47199  0.67204  0.27245  1.0000
  H   H1843     1.0  0.48935  0.67999  0.31888  1.0000
  H   H1844     1.0  0.49080  0.76923  0.24907  1.0000
  C   C1155     1.0  0.48735  0.71373  0.24081  1.0000
  C   C1156     1.0  0.38990  0.62166  0.23980  1.0000
  C   C1157     1.0  0.48111  0.65444  0.30528  1.0000
  H   H1845     1.0  0.49080  0.73793  0.24847  1.0000
  H   H1846     1.0  0.64791  0.59839  0.26647  1.0000
  H   H1847     1.0  0.60348  0.95556  0.28052  1.0000
  H   H1848     1.0  0.64160  0.90589  0.43002  1.0000
  H   H1849     1.0  0.51306  0.66677  0.29296  1.0000
  H   H1850     1.0  0.60858  0.98200  0.24213  1.0000
  H   H1851     1.0  0.40198  0.61049  0.24054  1.0000
  H   H1852     1.0  0.49182  0.79340  0.24520  1.0000
  H   H1853     1.0  0.64659  0.66602  0.25419  1.0000
  H   H1854     1.0  0.62815  0.86974  0.48288  1.0000
  Fe  Fe222     1.0  0.41841  0.67125  0.24299  1.0000
  Fe  Fe223     1.0  0.33382  0.76885  0.46557  1.0000
  H   H1855     1.0  0.47263  0.71867  0.24121  1.0000
  C   C1158     1.0  0.62084  0.97220  0.24701  1.0000
  S   S450      1.0  0.33811  0.57396  0.24655  1.0000
  H   H1856     1.0  0.54017  0.69589  0.23989  1.0000
  C   C1159     1.0  0.65779  0.65795  0.24502  1.0000
  H   H1857     1.0  0.65748  0.64294  0.25071  1.0000
  C   C1160     1.0  0.66051  0.81774  0.41122  1.0000
  H   H1858     1.0  0.40673  0.80633  0.64885  1.0000
  H   H1859     1.0  0.40083  0.79343  0.71862  1.0000
  N   N118      1.0  0.40314  0.87150  0.66836  1.0000
  H   H1860     1.0  0.41429  0.85272  0.64939  1.0000
  C   C1161     1.0  0.39521  0.88724  0.65463  1.0000
  C   C1162     1.0  0.39439  0.80990  0.65911  1.0000
  S   S451      1.0  0.43859  0.79508  0.72581  1.0000
  H   H1861     1.0  0.39438  0.84860  0.68910  1.0000
  H   H1862     1.0  0.42977  0.86707  0.64993  1.0000
  S   S452      1.0  0.62172  0.81636  0.70974  1.0000
  C   C1163     1.0  0.34933  0.77612  0.56876  1.0000
  C   C1164     1.0  0.64813  0.84753  0.63417  1.0000
  H   H1863     1.0  0.40570  0.89576  0.64654  1.0000
  H   H1864     1.0  0.64535  0.88119  0.56395  1.0000
  C   C1165     1.0  0.37677  0.81159  0.65520  1.0000
  Fe  Fe224     1.0  0.42780  0.84785  0.72367  1.0000
  S   S453      1.0  0.44723  0.83501  0.70065  1.0000
  H   H1865     1.0  0.52478  0.79590  0.73265  1.0000
  S   S454      1.0  0.36030  0.78603  0.58055  1.0000
  Fe  Fe225     1.0  0.42558  0.81791  0.70474  1.0000
  S   S455      1.0  0.41863  0.81091  0.68014  1.0000
  C   C1166     1.0  0.34607  0.77007  0.53980  1.0000
  H   H1866     1.0  0.36659  0.78419  0.54203  1.0000
  C   C1167     1.0  0.40971  0.87868  0.68144  1.0000
  C   C1168     1.0  0.39501  0.78330  0.73076  1.0000
  C   C1169     1.0  0.38008  0.81736  0.68929  1.0000
  S   S456      1.0  0.34255  0.82636  0.60797  1.0000
  H   H1867     1.0  0.38113  0.81973  0.70243  1.0000
  H   H1868     1.0  0.35010  0.82267  0.69557  1.0000
  C   C1170     1.0  0.61782  0.86686  0.64122  1.0000
  S   S457      1.0  0.58469  0.85812  0.72653  1.0000
  H   H1869     1.0  0.47850  0.84134  0.72514  1.0000
  C   C1171     1.0  0.41889  0.85930  0.65858  1.0000
  H   H1870     1.0  0.39636  0.77471  0.69808  1.0000
  H   H1871     1.0  0.42344  0.74417  0.71825  1.0000
  Fe  Fe226     1.0  0.60227  0.82953  0.73316  1.0000
  H   H1872     1.0  0.37544  0.77009  0.71406  1.0000
  S   S458      1.0  0.33821  0.81887  0.66406  1.0000
  H   H1873     1.0  0.42566  0.84772  0.66862  1.0000
  C   C1172     1.0  0.38871  0.86072  0.67885  1.0000
  C   C1173     1.0  0.64264  0.82357  0.69756  1.0000
  C   C1174     1.0  0.64956  0.83627  0.70313  1.0000
  H   H1874     1.0  0.61397  0.86489  0.62870  1.0000
  H   H1875     1.0  0.38330  0.85515  0.66944  1.0000
  H   H1876     1.0  0.65892  0.88001  0.61970  1.0000
  H   H1877     1.0  0.42579  0.76799  0.70909  1.0000
  H   H1878     1.0  0.64214  0.84176  0.71539  1.0000
  H   H1879     1.0  0.39827  0.88794  0.68917  1.0000
  S   S459      1.0  0.40520  0.83268  0.72588  1.0000
  C   C1175     1.0  0.52001  0.84114  0.73522  1.0000
  H   H1880     1.0  0.64187  0.88432  0.53174  1.0000
  Fe  Fe227     1.0  0.45816  0.81360  0.72395  1.0000
  H   H1881     1.0  0.37558  0.80934  0.64203  1.0000
  H   H1882     1.0  0.61317  0.85586  0.65320  1.0000
  H   H1883     1.0  0.38320  0.89662  0.66159  1.0000
  C   C1176     1.0  0.49227  0.83597  0.72822  1.0000
  C   C1177     1.0  0.65248  0.81647  0.68169  1.0000
  H   H1884     1.0  0.64720  0.80658  0.67736  1.0000
  C   C1178     1.0  0.35516  0.77737  0.54949  1.0000
  Fe  Fe228     1.0  0.33995  0.79922  0.60293  1.0000
  S   S460      1.0  0.42383  0.87850  0.72213  1.0000
  C   C1179     1.0  0.36248  0.81906  0.68537  1.0000
  C   C1180     1.0  0.39614  0.81288  0.67610  1.0000
  H   H1885     1.0  0.65771  0.86734  0.65374  1.0000
  H   H1886     1.0  0.60973  0.88054  0.64428  1.0000
  C   C1181     1.0  0.50041  0.81717  0.72870  1.0000
  H   H1887     1.0  0.35056  0.77116  0.52492  1.0000
  H   H1888     1.0  0.41556  0.86712  0.69209  1.0000
  C   C1182     1.0  0.65367  0.87476  0.53668  1.0000
  Fe  Fe229     1.0  0.33120  0.81465  0.63804  1.0000
  H   H1889     1.0  0.63831  0.85735  0.66758  1.0000
  H   H1890     1.0  0.39020  0.88222  0.64454  1.0000
  C   C1183     1.0  0.36072  0.81624  0.66831  1.0000
  C   C1184     1.0  0.64366  0.88071  0.62246  1.0000
  H   H1891     1.0  0.63654  0.89479  0.62510  1.0000
  C   C1185     1.0  0.64252  0.86826  0.65533  1.0000
  N   N119      1.0  0.63802  0.86586  0.63829  1.0000
  H   H1892     1.0  0.64037  0.87935  0.60938  1.0000
  H   H1893     1.0  0.42084  0.88667  0.67419  1.0000
  H   H1894     1.0  0.63525  0.88199  0.65883  1.0000
  H   H1895     1.0  0.37671  0.86932  0.68671  1.0000
  C   C1186     1.0  0.41967  0.75830  0.72155  1.0000
  N   N120      1.0  0.39931  0.76449  0.72664  1.0000
  C   C1187     1.0  0.39077  0.76507  0.71090  1.0000
  H   H1896     1.0  0.64379  0.83593  0.64551  1.0000
  H   H1897     1.0  0.37978  0.78861  0.73439  1.0000
  H   H1898     1.0  0.64568  0.84555  0.62097  1.0000
  H   H1899     1.0  0.39352  0.75109  0.70748  1.0000
  C   C1188     1.0  0.65565  0.87298  0.55495  1.0000
  C   C1189     1.0  0.33461  0.76721  0.57841  1.0000
  C   C1190     1.0  0.51840  0.81041  0.73238  1.0000
  H   H1900     1.0  0.33166  0.81033  0.53144  1.0000
  H   H1901     1.0  0.49585  0.86252  0.73067  1.0000
  S   S461      1.0  0.48838  0.80192  0.72475  1.0000
  C   C1191     1.0  0.33152  0.76097  0.54949  1.0000
  C   C1192     1.0  0.50210  0.84794  0.73136  1.0000
  C   C1193     1.0  0.52816  0.82235  0.73571  1.0000
  H   H1902     1.0  0.42656  0.75764  0.73314  1.0000
  H   H1903     1.0  0.33010  0.76617  0.59330  1.0000
  S   S462      1.0  0.33101  0.78654  0.63322  1.0000
  H   H1904     1.0  0.42728  0.90774  0.73845  1.0000
  H   H1905     1.0  0.54198  0.81701  0.73857  1.0000
  Fe  Fe230     1.0  0.42543  0.94321  0.81554  1.0000
  S   S463      1.0  0.43946  0.93009  0.83983  1.0000
  Fe  Fe231     1.0  0.41577  0.90668  0.81488  1.0000
  S   S464      1.0  0.42946  0.89082  0.83891  1.0000
  S   S465      1.0  0.40160  0.88925  0.80525  1.0000
  Fe  Fe232     1.0  0.41555  0.91569  0.85162  1.0000
  S   S466      1.0  0.40048  0.91623  0.88107  1.0000
  Fe  Fe233     1.0  0.45187  0.90684  0.82440  1.0000
  S   S467      1.0  0.48229  0.89428  0.82058  1.0000
  S   S468      1.0  0.40023  0.93055  0.82857  1.0000
  S   S469      1.0  0.43948  0.92076  0.79922  1.0000
  Fe  Fe234     1.0  0.53961  0.94919  0.84187  1.0000
  S   S470      1.0  0.56870  0.95218  0.82867  1.0000
  S   S471      1.0  0.51783  0.95939  0.82432  1.0000
  Fe  Fe235     1.0  0.54875  0.93163  0.87997  1.0000
  S   S472      1.0  0.57894  0.93296  0.87002  1.0000
  S   S473      1.0  0.53506  0.91667  0.90779  1.0000
  Fe  Fe236     1.0  0.56856  0.96184  0.85437  1.0000
  S   S474      1.0  0.42277  0.97394  0.80273  1.0000
  Fe  Fe237     1.0  0.57666  0.92345  0.84509  1.0000
  S   S475      1.0  0.59836  0.90119  0.83293  1.0000
  S   S476      1.0  0.53836  0.96139  0.86630  1.0000
  S   S477      1.0  0.54747  0.91958  0.85640  1.0000
  H   H1906     1.0  0.38332  0.78264  0.84717  1.0000
  S   S478      1.0  0.57777  0.81642  0.74964  1.0000
  C   C1194     1.0  0.41427  0.75941  0.83389  1.0000
  C   C1195     1.0  0.38102  0.96934  0.88628  1.0000
  Fe  Fe238     1.0  0.58812  0.79341  0.96458  1.0000
  S   S479      1.0  0.56868  0.81990  0.95520  1.0000
  S   S480      1.0  0.60222  0.77422  0.94456  1.0000
  Fe  Fe239     1.0  0.58309  0.83297  0.96937  1.0000
  S   S481      1.0  0.59097  0.86079  0.95623  1.0000
  H   H1907     1.0  0.55150  0.88958  0.74942  1.0000
  S   S482      1.0  0.58418  0.98534  0.84712  1.0000
  C   C1196     1.0  0.64767  0.56306  0.88160  1.0000
  C   C1197     1.0  0.39248  0.96697  0.85412  1.0000
  Fe  Fe240     1.0  0.42683  0.81697  0.92945  1.0000
  S   S483      1.0  0.39872  0.83576  0.93109  1.0000
  Fe  Fe241     1.0  0.46825  0.81468  0.92291  1.0000
  S   S484      1.0  0.49134  0.83056  0.91565  1.0000
  Fe  Fe242     1.0  0.45325  0.78342  0.91726  1.0000
  S   S485      1.0  0.46107  0.76172  0.89961  1.0000
  S   S486      1.0  0.44967  0.81395  0.90434  1.0000
  Fe  Fe243     1.0  0.56750  0.71631  0.89608  1.0000
  S   S487      1.0  0.55657  0.69176  0.89505  1.0000
  S   S488      1.0  0.55359  0.73211  0.91908  1.0000
  Fe  Fe244     1.0  0.59431  0.71492  0.85895  1.0000
  S   S489      1.0  0.58555  0.69042  0.85468  1.0000
  S   S490      1.0  0.61628  0.72726  0.83675  1.0000
  Fe  Fe245     1.0  0.55652  0.70508  0.86505  1.0000
  S   S491      1.0  0.53265  0.71321  0.84999  1.0000
  Fe  Fe246     1.0  0.58652  0.67919  0.88496  1.0000
  S   S492      1.0  0.59905  0.64999  0.89825  1.0000
  S   S493      1.0  0.56529  0.73056  0.86675  1.0000
  S   S494      1.0  0.59744  0.70271  0.88854  1.0000
  H   H1908     1.0  0.47418  0.89170  0.77850  1.0000
  S   S495      1.0  0.42906  0.78629  0.94114  1.0000
  H   H1909     1.0  0.41725  0.74867  0.84641  1.0000
  C   C1198     1.0  0.45536  0.86574  0.79969  1.0000
  H   H1910     1.0  0.61903  0.54905  0.87984  1.0000
  S   S496      1.0  0.40240  0.79775  0.77338  1.0000
  S   S497      1.0  0.56541  0.85156  0.77056  1.0000
  H   H1911     1.0  0.39617  0.76066  0.90086  1.0000
  Fe  Fe247     1.0  0.40570  0.67146  0.85950  1.0000
  S   S498      1.0  0.43218  0.66938  0.83811  1.0000
  S   S499      1.0  0.39262  0.64577  0.87059  1.0000
  Fe  Fe248     1.0  0.40936  0.70915  0.86484  1.0000
  S   S500      1.0  0.43586  0.70973  0.84365  1.0000
  S   S501      1.0  0.39810  0.73208  0.88118  1.0000
  Fe  Fe249     1.0  0.42150  0.69953  0.82689  1.0000
  S   S502      1.0  0.42573  0.71029  0.79595  1.0000
  Fe  Fe250     1.0  0.44399  0.67968  0.85703  1.0000
  S   S503      1.0  0.47093  0.66490  0.86666  1.0000
  S   S504      1.0  0.39405  0.70121  0.84697  1.0000
  S   S505      1.0  0.41829  0.67975  0.87933  1.0000
  C   C1199     1.0  0.40914  0.77347  0.77978  1.0000
  C   C1200     1.0  0.42610  0.76408  0.77111  1.0000
  C   C1201     1.0  0.43103  0.74462  0.77598  1.0000
  C   C1202     1.0  0.41934  0.73457  0.79004  1.0000
  C   C1203     1.0  0.40251  0.74396  0.79899  1.0000
  C   C1204     1.0  0.39732  0.76339  0.79369  1.0000
  H   H1912     1.0  0.39337  0.73618  0.80975  1.0000
  H   H1913     1.0  0.38412  0.77058  0.80037  1.0000
  C   C1205     1.0  0.35068  0.63358  0.84298  1.0000
  H   H1914     1.0  0.41880  0.91203  0.77128  1.0000
  H   H1915     1.0  0.45389  0.85151  0.80770  1.0000
  H   H1916     1.0  0.33029  0.57459  0.79156  1.0000
  C   C1206     1.0  0.37710  0.64115  0.85913  1.0000
  C   C1207     1.0  0.36935  0.65465  0.84525  1.0000
  C   C1208     1.0  0.35620  0.65085  0.83723  1.0000
  H   H1917     1.0  0.37331  0.66810  0.84084  1.0000
  H   H1918     1.0  0.35015  0.66145  0.82661  1.0000
  C   C1209     1.0  0.51546  0.69972  0.85549  1.0000
  C   C1210     1.0  0.50000  0.70651  0.84697  1.0000
  C   C1211     1.0  0.48621  0.69602  0.85054  1.0000
  C   C1212     1.0  0.48779  0.67860  0.86261  1.0000
  C   C1213     1.0  0.50320  0.67184  0.87131  1.0000
  C   C1214     1.0  0.51698  0.68242  0.86784  1.0000
  H   H1919     1.0  0.49874  0.71987  0.83740  1.0000
  H   H1920     1.0  0.47460  0.70125  0.84356  1.0000
  H   H1921     1.0  0.50455  0.65833  0.88062  1.0000
  H   H1922     1.0  0.52892  0.67705  0.87441  1.0000
  C   C1215     1.0  0.60755  0.75078  0.82788  1.0000
  C   C1216     1.0  0.59409  0.76133  0.83942  1.0000
  H   H1923     1.0  0.44111  0.87399  0.79879  1.0000
  H   H1924     1.0  0.54366  0.74142  0.78962  1.0000
  C   C1217     1.0  0.61296  0.75866  0.80898  1.0000
  H   H1925     1.0  0.59034  0.75559  0.85411  1.0000
  H   H1926     1.0  0.62211  0.97867  0.81757  1.0000
  H   H1927     1.0  0.62341  0.75054  0.80000  1.0000
  C   C1218     1.0  0.61981  0.63763  0.88686  1.0000
  C   C1219     1.0  0.63105  0.62358  0.89756  1.0000
  H   H1928     1.0  0.45809  0.84184  0.77757  1.0000
  C   C1220     1.0  0.61985  0.94463  0.83773  1.0000
  C   C1221     1.0  0.41401  0.96324  0.87413  1.0000
  C   C1222     1.0  0.62528  0.64143  0.86745  1.0000
  H   H1929     1.0  0.62687  0.62060  0.91259  1.0000
  S   S506      1.0  0.44019  0.82761  0.74673  1.0000
  H   H1930     1.0  0.47725  0.88475  0.75670  1.0000
  H   H1931     1.0  0.61653  0.65205  0.85910  1.0000
  C   C1223     1.0  0.44323  0.75319  0.89553  1.0000
  C   C1224     1.0  0.42449  0.76119  0.90086  1.0000
  C   C1225     1.0  0.41063  0.75431  0.89691  1.0000
  C   C1226     1.0  0.41545  0.73940  0.88767  1.0000
  C   C1227     1.0  0.43418  0.73117  0.88280  1.0000
  C   C1228     1.0  0.44801  0.73816  0.88652  1.0000
  H   H1932     1.0  0.43809  0.71937  0.87617  1.0000
  H   H1933     1.0  0.46246  0.73186  0.88237  1.0000
  C   C1229     1.0  0.58884  0.76142  0.93873  1.0000
  C   C1230     1.0  0.57007  0.76215  0.94700  1.0000
  C   C1231     1.0  0.55947  0.75272  0.94121  1.0000
  C   C1232     1.0  0.56758  0.74247  0.92716  1.0000
  C   C1233     1.0  0.58641  0.74151  0.91910  1.0000
  C   C1234     1.0  0.59700  0.75093  0.92490  1.0000
  H   H1934     1.0  0.56367  0.77018  0.95770  1.0000
  H   H1935     1.0  0.54490  0.75354  0.94748  1.0000
  H   H1936     1.0  0.59276  0.73377  0.90820  1.0000
  H   H1937     1.0  0.61151  0.75033  0.91847  1.0000
  H   H1938     1.0  0.37653  0.75567  0.74762  1.0000
  C   C1235     1.0  0.51979  0.83236  0.95369  1.0000
  C   C1236     1.0  0.51320  0.83584  0.93711  1.0000
  C   C1237     1.0  0.49929  0.82705  0.93640  1.0000
  C   C1238     1.0  0.49177  0.81521  0.95239  1.0000
  H   H1939     1.0  0.38745  0.83867  0.97440  1.0000
  H   H1940     1.0  0.53044  0.83923  0.95426  1.0000
  H   H1941     1.0  0.51890  0.84527  0.92492  1.0000
  H   H1942     1.0  0.48124  0.80818  0.95211  1.0000
  H   H1943     1.0  0.42537  0.96546  0.86184  1.0000
  H   H1944     1.0  0.60519  0.87865  0.98049  1.0000
  N   N121      1.0  0.41282  0.77833  0.83674  1.0000
  H   H1945     1.0  0.40995  0.80644  0.82068  1.0000
  C   C1239     1.0  0.35867  0.61996  0.85665  1.0000
  S   S507      1.0  0.44999  0.77518  0.98645  1.0000
  C   C1240     1.0  0.55836  0.76963  0.79135  1.0000
  C   C1241     1.0  0.59578  0.89807  0.81152  1.0000
  H   H1946     1.0  0.60824  0.86884  0.81663  1.0000
  C   C1242     1.0  0.55070  0.90105  0.92110  1.0000
  C   C1243     1.0  0.56869  0.90389  0.91895  1.0000
  C   C1244     1.0  0.58094  0.89150  0.92984  1.0000
  C   C1245     1.0  0.57537  0.87605  0.94271  1.0000
  C   C1246     1.0  0.55737  0.87316  0.94489  1.0000
  C   C1247     1.0  0.54501  0.88574  0.93421  1.0000
  H   H1947     1.0  0.57307  0.91584  0.90920  1.0000
  H   H1948     1.0  0.59479  0.89386  0.92817  1.0000
  H   H1949     1.0  0.55289  0.86140  0.95496  1.0000
  H   H1950     1.0  0.53107  0.88354  0.93604  1.0000
  H   H1951     1.0  0.56473  0.76411  0.77843  1.0000
  C   C1248     1.0  0.54524  0.92314  0.75749  1.0000
  H   H1952     1.0  0.33658  0.63333  0.91325  1.0000
  H   H1953     1.0  0.39102  0.80334  0.96036  1.0000
  C   C1249     1.0  0.53784  0.74769  0.80215  1.0000
  H   H1954     1.0  0.65471  0.57473  0.88009  1.0000
  C   C1250     1.0  0.62637  0.58283  0.86241  1.0000
  C   C1251     1.0  0.64783  0.61357  0.88899  1.0000
  C   C1252     1.0  0.42972  0.77907  0.84266  1.0000
  H   H1955     1.0  0.44452  0.86410  0.76928  1.0000
  C   C1253     1.0  0.40739  0.88719  0.78189  1.0000
  C   C1254     1.0  0.40348  0.87198  0.77740  1.0000
  C   C1255     1.0  0.40843  0.86944  0.75901  1.0000
  C   C1256     1.0  0.43068  0.98744  0.81378  1.0000
  H   H1956     1.0  0.44877  0.96439  0.82764  1.0000
  C   C1257     1.0  0.41600  0.90012  0.76787  1.0000
  H   H1957     1.0  0.39672  0.86204  0.78820  1.0000
  H   H1958     1.0  0.40539  0.85760  0.75572  1.0000
  C   C1258     1.0  0.40034  0.89381  0.89488  1.0000
  C   C1259     1.0  0.38536  0.89081  0.90962  1.0000
  C   C1260     1.0  0.38486  0.87291  0.92056  1.0000
  C   C1261     1.0  0.39959  0.85805  0.91714  1.0000
  C   C1262     1.0  0.41479  0.86114  0.90268  1.0000
  C   C1263     1.0  0.41508  0.87897  0.89142  1.0000
  H   H1959     1.0  0.42618  0.84978  0.89995  1.0000
  H   H1960     1.0  0.42679  0.88126  0.88022  1.0000
  C   C1264     1.0  0.49323  0.91233  0.81956  1.0000
  C   C1265     1.0  0.48398  0.93085  0.81523  1.0000
  C   C1266     1.0  0.49186  0.94530  0.81620  1.0000
  C   C1267     1.0  0.50914  0.94128  0.82127  1.0000
  C   C1268     1.0  0.51902  0.92286  0.82423  1.0000
  C   C1269     1.0  0.51100  0.90834  0.82354  1.0000
  H   H1961     1.0  0.47069  0.93412  0.81112  1.0000
  H   H1962     1.0  0.48438  0.95958  0.81339  1.0000
  H   H1963     1.0  0.53287  0.91979  0.82691  1.0000
  H   H1964     1.0  0.51843  0.89406  0.82639  1.0000
  H   H1965     1.0  0.41464  0.94796  0.87849  1.0000
  C   C1270     1.0  0.44280  0.97903  0.82610  1.0000
  N   N122      1.0  0.49411  0.89365  0.88284  1.0000
  C   C1271     1.0  0.48215  0.90586  0.86998  1.0000
  C   C1272     1.0  0.48404  0.87966  0.89597  1.0000
  C   C1273     1.0  0.49914  0.90497  0.89337  1.0000
  C   C1274     1.0  0.51120  0.88405  0.87202  1.0000
  H   H1966     1.0  0.47840  0.89779  0.86155  1.0000
  H   H1967     1.0  0.48923  0.91677  0.86006  1.0000
  H   H1968     1.0  0.46896  0.91310  0.87767  1.0000
  H   H1969     1.0  0.49254  0.87041  0.90611  1.0000
  H   H1970     1.0  0.47087  0.88635  0.90417  1.0000
  H   H1971     1.0  0.48041  0.87051  0.88859  1.0000
  H   H1972     1.0  0.50823  0.89620  0.90318  1.0000
  H   H1973     1.0  0.48665  0.91246  0.90174  1.0000
  H   H1974     1.0  0.50692  0.91560  0.88394  1.0000
  H   H1975     1.0  0.51923  0.89420  0.86211  1.0000
  H   H1976     1.0  0.50793  0.87551  0.86373  1.0000
  H   H1977     1.0  0.52050  0.87464  0.88131  1.0000
  H   H1978     1.0  0.57456  0.73338  0.79852  1.0000
  C   C1275     1.0  0.60227  0.88051  0.80682  1.0000
  H   H1979     1.0  0.62813  0.68613  0.85424  1.0000
  H   H1980     1.0  0.44415  0.73738  0.76918  1.0000
  N   N123      1.0  0.55626  0.80499  0.90023  1.0000
  C   C1276     1.0  0.55536  0.80445  0.92007  1.0000
  C   C1277     1.0  0.53764  0.81295  0.89572  1.0000
  C   C1278     1.0  0.56250  0.78590  0.89667  1.0000
  C   C1279     1.0  0.56956  0.81663  0.88852  1.0000
  H   H1981     1.0  0.54542  0.79583  0.92940  1.0000
  H   H1982     1.0  0.55076  0.81863  0.92323  1.0000
  H   H1983     1.0  0.56919  0.79851  0.92398  1.0000
  H   H1984     1.0  0.52725  0.80457  0.90455  1.0000
  H   H1985     1.0  0.53247  0.82737  0.89821  1.0000
  H   H1986     1.0  0.53769  0.81342  0.88091  1.0000
  H   H1987     1.0  0.57640  0.77940  0.90019  1.0000
  H   H1988     1.0  0.56357  0.78575  0.88179  1.0000
  H   H1989     1.0  0.55269  0.77676  0.90520  1.0000
  H   H1990     1.0  0.56533  0.83114  0.89091  1.0000
  H   H1991     1.0  0.57067  0.81735  0.87342  1.0000
  H   H1992     1.0  0.58374  0.81093  0.89169  1.0000
  N   N124      1.0  0.50223  0.71869  0.91842  1.0000
  C   C1280     1.0  0.48483  0.71265  0.91959  1.0000
  C   C1281     1.0  0.49822  0.73427  0.92815  1.0000
  C   C1282     1.0  0.51063  0.72489  0.89864  1.0000
  C   C1283     1.0  0.51525  0.70293  0.92730  1.0000
  H   H1993     1.0  0.47811  0.70780  0.93428  1.0000
  H   H1994     1.0  0.48736  0.70114  0.91204  1.0000
  H   H1995     1.0  0.47459  0.72423  0.91323  1.0000
  H   H1996     1.0  0.51115  0.73898  0.92769  1.0000
  H   H1997     1.0  0.48867  0.74651  0.92163  1.0000
  H   H1998     1.0  0.49156  0.73030  0.94304  1.0000
  H   H1999     1.0  0.50103  0.73671  0.89155  1.0000
  H   H2000     1.0  0.51395  0.71350  0.89081  1.0000
  H   H2001     1.0  0.52376  0.72964  0.89724  1.0000
  H   H2002     1.0  0.52852  0.70700  0.92672  1.0000
  H   H2003     1.0  0.51865  0.69092  0.92029  1.0000
  H   H2004     1.0  0.50934  0.69800  0.94225  1.0000
  N   N125      1.0  0.44598  0.61781  0.88327  1.0000
  C   C1284     1.0  0.44706  0.62576  0.86317  1.0000
  C   C1285     1.0  0.43629  0.63241  0.89402  1.0000
  C   C1286     1.0  0.46497  0.61063  0.88701  1.0000
  C   C1287     1.0  0.43554  0.60257  0.88879  1.0000
  H   H2005     1.0  0.45428  0.61517  0.85458  1.0000
  H   H2006     1.0  0.45483  0.63734  0.85851  1.0000
  H   H2007     1.0  0.43296  0.63139  0.85984  1.0000
  H   H2008     1.0  0.42198  0.63834  0.89134  1.0000
  H   H2009     1.0  0.43509  0.62692  0.90926  1.0000
  H   H2010     1.0  0.44382  0.64412  0.89024  1.0000
  H   H2011     1.0  0.46474  0.60461  0.90207  1.0000
  H   H2012     1.0  0.47304  0.62200  0.88288  1.0000
  H   H2013     1.0  0.47277  0.59965  0.87905  1.0000
  H   H2014     1.0  0.43436  0.59624  0.90390  1.0000
  H   H2015     1.0  0.44238  0.59133  0.88088  1.0000
  H   H2016     1.0  0.42115  0.60779  0.88602  1.0000
  N   N126      1.0  0.63995  0.56502  0.86496  1.0000
  C   C1288     1.0  0.48597  0.85453  0.78283  1.0000
  H   H2017     1.0  0.32988  0.52704  0.77126  1.0000
  H   H2018     1.0  0.46124  0.87218  0.80801  1.0000
  H   H2019     1.0  0.57857  0.74472  0.81481  1.0000
  H   H2020     1.0  0.64655  0.69277  0.83565  1.0000
  C   C1289     1.0  0.64832  0.67062  0.88050  1.0000
  H   H2021     1.0  0.46705  0.85641  0.75620  1.0000
  C   C1290     1.0  0.49803  0.81205  0.96898  1.0000
  Fe  Fe251     1.0  0.41962  0.81095  0.74684  1.0000
  C   C1291     1.0  0.54360  0.76303  0.82382  1.0000
  S   S508      1.0  0.33400  0.53784  0.83779  1.0000
  H   H2022     1.0  0.45435  0.89302  0.76900  1.0000
  H   H2023     1.0  0.49530  0.85411  0.76896  1.0000
  S   S509      1.0  0.33322  0.62992  0.83331  1.0000
  H   H2024     1.0  0.56899  0.77545  0.79454  1.0000
  H   H2025     1.0  0.53157  0.77464  0.82147  1.0000
  C   C1292     1.0  0.65332  0.61730  0.86961  1.0000
  H   H2026     1.0  0.48567  0.83986  0.79021  1.0000
  Fe  Fe252     1.0  0.56092  0.84552  0.74487  1.0000
  Fe  Fe253     1.0  0.59039  0.86197  0.75284  1.0000
  C   C1293     1.0  0.51227  0.82032  0.96957  1.0000
  H   H2027     1.0  0.35901  0.53154  0.77730  1.0000
  H   H2028     1.0  0.54677  0.78151  0.78817  1.0000
  H   H2029     1.0  0.65802  0.54983  0.88402  1.0000
  S   S510      1.0  0.59290  0.89054  0.75433  1.0000
  H   H2030     1.0  0.51371  0.92607  0.78279  1.0000
  N   N127      1.0  0.62779  0.94936  0.81764  1.0000
  H   H2031     1.0  0.39203  0.95191  0.85790  1.0000
  H   H2032     1.0  0.64670  0.66856  0.84566  1.0000
  S   S511      1.0  0.60989  0.83431  0.75833  1.0000
  H   H2033     1.0  0.61492  0.58362  0.87484  1.0000
  S   S512      1.0  0.44501  0.82074  0.94670  1.0000
  H   H2034     1.0  0.62545  0.97319  0.79500  1.0000
  H   H2035     1.0  0.42069  0.77280  0.90783  1.0000
  H   H2036     1.0  0.43561  0.77175  0.76088  1.0000
  H   H2037     1.0  0.64976  0.56671  0.83548  1.0000
  H   H2038     1.0  0.39706  0.77242  0.86460  1.0000
  H   H2039     1.0  0.60820  0.93812  0.80984  1.0000
  H   H2040     1.0  0.44243  0.77543  0.83212  1.0000
  C   C1294     1.0  0.64196  0.63119  0.85886  1.0000
  H   H2041     1.0  0.53863  0.75233  0.83593  1.0000
  C   C1295     1.0  0.37185  0.62374  0.86466  1.0000
  H   H2042     1.0  0.37395  0.90226  0.91233  1.0000
  S   S513      1.0  0.47388  0.78382  0.93375  1.0000
  C   C1296     1.0  0.58546  0.77938  0.83199  1.0000
  C   C1297     1.0  0.63066  0.54932  0.86751  1.0000
  H   H2043     1.0  0.56338  0.72841  0.82261  1.0000
  C   C1298     1.0  0.39185  0.75139  0.74332  1.0000
  H   H2044     1.0  0.64604  0.63401  0.84382  1.0000
  N   N128      1.0  0.38688  0.80992  0.98725  1.0000
  H   H2045     1.0  0.41711  0.96794  0.88557  1.0000
  C   C1299     1.0  0.58807  0.91309  0.79875  1.0000
  H   H2046     1.0  0.58299  0.92666  0.80223  1.0000
  H   H2047     1.0  0.60452  0.94699  0.84009  1.0000
  C   C1300     1.0  0.41090  0.79200  0.81915  1.0000
  H   H2048     1.0  0.57476  0.78733  0.84094  1.0000
  H   H2049     1.0  0.37308  0.87060  0.93172  1.0000
  H   H2050     1.0  0.58211  0.92250  0.77111  1.0000
  H   H2051     1.0  0.45593  0.98273  0.84666  1.0000
  C   C1301     1.0  0.51530  0.91622  0.77357  1.0000
  C   C1302     1.0  0.58754  0.91071  0.78113  1.0000
  C   C1303     1.0  0.65512  0.56496  0.84835  1.0000
  H   H2052     1.0  0.62004  0.58473  0.85012  1.0000
  H   H2053     1.0  0.65649  0.60307  0.89745  1.0000
  C   C1304     1.0  0.60423  0.77680  0.80148  1.0000
  H   H2054     1.0  0.65533  0.67141  0.89146  1.0000
  C   C1305     1.0  0.59024  0.78702  0.81299  1.0000
  H   H2055     1.0  0.38105  0.95411  0.89063  1.0000
  H   H2056     1.0  0.53944  0.93160  0.74514  1.0000
  C   C1306     1.0  0.53668  0.89549  0.75480  1.0000
  C   C1307     1.0  0.35014  0.54140  0.78612  1.0000
  N   N129      1.0  0.55190  0.75502  0.80704  1.0000
  H   H2057     1.0  0.40101  0.78335  0.74270  1.0000
  H   H2058     1.0  0.39816  0.79190  0.81444  1.0000
  C   C1308     1.0  0.60101  0.87795  0.78947  1.0000
  H   H2059     1.0  0.52975  0.88355  0.76204  1.0000
  H   H2060     1.0  0.49251  0.86072  0.79079  1.0000
  H   H2061     1.0  0.55388  0.76868  0.82786  1.0000
  H   H2062     1.0  0.42922  0.79316  0.84486  1.0000
  H   H2063     1.0  0.65183  0.95635  0.82212  1.0000
  H   H2064     1.0  0.60799  0.78268  0.78679  1.0000
  H   H2065     1.0  0.39492  0.73699  0.74080  1.0000
  C   C1309     1.0  0.42068  0.89775  0.74933  1.0000
  H   H2066     1.0  0.60594  0.86433  0.78600  1.0000
  C   C1310     1.0  0.59397  0.89313  0.77646  1.0000
  H   H2067     1.0  0.50727  0.90526  0.78153  1.0000
  C   C1311     1.0  0.64814  0.94705  0.81496  1.0000
  C   C1312     1.0  0.39635  0.78279  0.85131  1.0000
  H   H2068     1.0  0.63663  0.56313  0.89441  1.0000
  Fe  Fe254     1.0  0.55126  0.81307  0.98362  1.0000
  N   N130      1.0  0.53507  0.90805  0.76742  1.0000
  C   C1313     1.0  0.45887  0.85651  0.77057  1.0000
  C   C1314     1.0  0.41701  0.88231  0.74495  1.0000
  S   S514      1.0  0.60432  0.80701  0.97665  1.0000
  N   N131      1.0  0.46713  0.86532  0.78098  1.0000
  H   H2069     1.0  0.34099  0.64413  0.88894  1.0000
  H   H2070     1.0  0.62308  0.95351  0.84568  1.0000
  H   H2071     1.0  0.35855  0.55131  0.78660  1.0000
  C   C1315     1.0  0.44710  0.98953  0.83663  1.0000
  C   C1316     1.0  0.32944  0.50554  0.83076  1.0000
  H   H2072     1.0  0.63308  0.59492  0.86016  1.0000
  H   H2073     1.0  0.60427  0.97103  0.81178  1.0000
  C   C1317     1.0  0.62345  0.93685  0.80792  1.0000
  H   H2074     1.0  0.37910  0.97466  0.84997  1.0000
  H   H2075     1.0  0.62491  0.92974  0.84390  1.0000
  H   H2076     1.0  0.37788  0.61317  0.87529  1.0000
  Fe  Fe255     1.0  0.44930  0.78982  0.95653  1.0000
  S   S515      1.0  0.57705  0.80857  0.80410  1.0000
  H   H2077     1.0  0.54320  0.90654  0.79313  1.0000
  C   C1318     1.0  0.56780  0.73971  0.81088  1.0000
  H   H2078     1.0  0.42287  0.78890  0.80766  1.0000
  N   N132      1.0  0.39573  0.97329  0.86974  1.0000
  C   C1319     1.0  0.64338  0.68263  0.84897  1.0000
  H   H2079     1.0  0.34442  0.50143  0.82855  1.0000
  H   H2080     1.0  0.40109  0.75773  0.83120  1.0000
  H   H2081     1.0  0.39507  0.79677  0.85423  1.0000
  H   H2082     1.0  0.43139  0.76905  0.85605  1.0000
  H   H2083     1.0  0.35470  0.60653  0.86106  1.0000
  Fe  Fe256     1.0  0.58408  0.82345  0.77417  1.0000
  H   H2084     1.0  0.39806  0.75074  0.75542  1.0000
  H   H2085     1.0  0.65747  0.70384  0.87598  1.0000
  H   H2086     1.0  0.41196  0.78938  0.98274  1.0000
  C   C1320     1.0  0.46832  0.88456  0.77083  1.0000
  H   H2087     1.0  0.62488  0.55017  0.85511  1.0000
  H   H2088     1.0  0.53262  0.73666  0.81371  1.0000
  C   C1321     1.0  0.61963  0.96891  0.81008  1.0000
  H   H2089     1.0  0.55765  0.89016  0.77965  1.0000
  H   H2090     1.0  0.54466  0.93265  0.76674  1.0000
  H   H2091     1.0  0.52563  0.75886  0.79917  1.0000
  H   H2092     1.0  0.42556  0.75604  0.82194  1.0000
  H   H2093     1.0  0.34239  0.61942  0.89592  1.0000
  H   H2094     1.0  0.53516  0.88644  0.79221  1.0000
  C   C1322     1.0  0.54306  0.89736  0.78384  1.0000
  H   H2095     1.0  0.62918  0.92194  0.81344  1.0000
  H   H2096     1.0  0.64049  0.53566  0.86973  1.0000
  H   H2097     1.0  0.65193  0.65588  0.87887  1.0000
  H   H2098     1.0  0.65462  0.95040  0.79994  1.0000
  H   H2099     1.0  0.65460  0.93246  0.82072  1.0000
  H   H2100     1.0  0.40367  0.96906  0.84158  1.0000
  H   H2101     1.0  0.63480  0.70747  0.87094  1.0000
  C   C1323     1.0  0.33449  0.63304  0.89932  1.0000
  H   H2102     1.0  0.50868  0.92408  0.76155  1.0000
  H   H2103     1.0  0.56015  0.91744  0.75241  1.0000
  H   H2104     1.0  0.49215  0.80272  0.98120  1.0000
  H   H2105     1.0  0.34689  0.53316  0.80053  1.0000
  H   H2106     1.0  0.62913  0.93996  0.79269  1.0000
  C   C1324     1.0  0.37958  0.80696  0.97210  1.0000
  H   H2107     1.0  0.37022  0.81977  0.96613  1.0000
  H   H2108     1.0  0.36701  0.97652  0.88342  1.0000
  H   H2109     1.0  0.37177  0.79544  0.97698  1.0000
  H   H2110     1.0  0.63306  0.67387  0.88592  1.0000
  H   H2111     1.0  0.40855  0.82272  0.96853  1.0000
  S   S516      1.0  0.53153  0.85645  0.73988  1.0000
  H   H2112     1.0  0.53032  0.90282  0.74249  1.0000
  H   H2113     1.0  0.38300  0.97396  0.89834  1.0000
  C   C1325     1.0  0.39671  0.82564  0.98011  1.0000
  N   N133      1.0  0.65387  0.68339  0.86269  1.0000
  C   C1326     1.0  0.64986  0.70264  0.86569  1.0000
  H   H2114     1.0  0.65370  0.71267  0.85248  1.0000
  H   H2115     1.0  0.34618  0.55192  0.75038  1.0000
  H   H2116     1.0  0.34618  0.57202  0.75889  1.0000
  H   H2117     1.0  0.43801  0.81495  0.98585  1.0000
  C   C1327     1.0  0.33788  0.56151  0.75974  1.0000
  N   N134      1.0  0.33299  0.55126  0.77911  1.0000
  S   S517      1.0  0.32866  0.57898  0.86386  1.0000
  Fe  Fe257     1.0  0.81879  0.44548  0.07941  1.0000
  S   S518      1.0  0.78985  0.44516  0.09568  1.0000
  S   S519      1.0  0.82262  0.45745  0.04851  1.0000
  Fe  Fe258     1.0  0.83520  0.43668  0.11420  1.0000
  S   S520      1.0  0.80773  0.43593  0.13336  1.0000
  S   S521      1.0  0.86152  0.43243  0.12476  1.0000
  Fe  Fe259     1.0  0.80267  0.42001  0.11469  1.0000
  S   S522      1.0  0.78712  0.39745  0.13097  1.0000
  Fe  Fe260     1.0  0.79680  0.46093  0.11330  1.0000
  H   H2118     1.0  0.79206  0.48464  0.08471  1.0000
  S   S523      1.0  0.83139  0.41848  0.09669  1.0000
  S   S524      1.0  0.82485  0.46350  0.09569  1.0000
  S   S525      1.0  0.72388  0.39389  0.22433  1.0000
  H   H2119     1.0  0.87481  0.47027  0.13283  1.0000
  C   C1328     1.0  0.84296  0.45468  0.17103  1.0000
  C   C1329     1.0  0.75860  0.42623  0.13953  1.0000
  Fe  Fe261     1.0  0.92371  0.43156  0.21481  1.0000
  H   H2120     1.0  0.86114  0.41487  0.23183  1.0000
  C   C1330     1.0  0.77394  0.43303  0.20913  1.0000
  C   C1331     1.0  0.74250  0.43436  0.15064  1.0000
  Fe  Fe262     1.0  0.88255  0.44537  0.21336  1.0000
  H   H2121     1.0  0.78096  0.47496  0.06109  1.0000
  S   S526      1.0  0.85794  0.45735  0.19934  1.0000
  H   H2122     1.0  0.84428  0.45132  0.99665  1.0000
  C   C1332     1.0  0.84854  0.48893  0.11294  1.0000
  C   C1333     1.0  0.75907  0.45042  0.18343  1.0000
  H   H2123     1.0  0.76034  0.45442  0.16799  1.0000
  C   C1334     1.0  0.79188  0.44806  0.18078  1.0000
  H   H2124     1.0  0.73664  0.44902  0.14657  1.0000
  C   C1335     1.0  0.68815  0.37775  0.17028  1.0000
  H   H2125     1.0  0.88806  0.42489  0.14798  1.0000
  C   C1336     1.0  0.85104  0.40730  0.23028  1.0000
  H   H2126     1.0  0.70056  0.40864  0.16772  1.0000
  H   H2127     1.0  0.82974  0.41857  0.04553  1.0000
  H   H2128     1.0  0.97139  0.45376  0.23609  1.0000
  S   S527      1.0  0.90137  0.41733  0.21335  1.0000
  C   C1337     1.0  0.69371  0.38235  0.19862  1.0000
  C   C1338     1.0  0.97101  0.42495  0.20966  1.0000
  H   H2129     1.0  0.87782  0.46269  0.10243  1.0000
  Fe  Fe263     1.0  0.71138  0.42292  0.21174  1.0000
  S   S528      1.0  0.71463  0.43473  0.18113  1.0000
  C   C1339     1.0  0.87581  0.48484  0.12562  1.0000
  S   S529      1.0  0.77432  0.48310  0.12436  1.0000
  H   H2130     1.0  0.83048  0.46330  0.17727  1.0000
  H   H2131     1.0  0.79331  0.49021  0.04297  1.0000
  H   H2132     1.0  0.85660  0.39219  0.23506  1.0000
  S   S530      1.0  0.72170  0.43603  0.22938  1.0000
  H   H2133     1.0  0.82532  0.43681  0.21938  1.0000
  H   H2134     1.0  0.76375  0.38187  0.16475  1.0000
  H   H2135     1.0  0.70879  0.38162  0.19276  1.0000
  H   H2136     1.0  0.82460  0.40439  0.02150  1.0000
  C   C1340     1.0  0.78020  0.42106  0.18114  1.0000
  S   S531      1.0  0.90524  0.46000  0.21184  1.0000
  H   H2137     1.0  0.77061  0.44556  0.21536  1.0000
  C   C1341     1.0  0.84341  0.44889  0.15469  1.0000
  H   H2138     1.0  0.76493  0.43469  0.12706  1.0000
  C   C1342     1.0  0.66263  0.39093  0.19247  1.0000
  H   H2139     1.0  0.73559  0.39646  0.18490  1.0000
  H   H2140     1.0  0.69182  0.36804  0.20606  1.0000
  C   C1343     1.0  0.87488  0.43868  0.17092  1.0000
  H   H2141     1.0  0.86257  0.47401  0.99755  1.0000
  C   C1344     1.0  0.85871  0.44960  0.17914  1.0000
  C   C1345     1.0  0.82212  0.42707  0.03495  1.0000
  C   C1346     1.0  0.87876  0.47742  0.09572  1.0000
  H   H2142     1.0  0.75566  0.46349  0.18875  1.0000
  C   C1347     1.0  0.80326  0.44905  0.00690  1.0000
  N   N135      1.0  0.77629  0.43815  0.18862  1.0000
  C   C1348     1.0  0.98594  0.40655  0.23528  1.0000
  N   N136      1.0  0.68254  0.38997  0.18395  1.0000
  H   H2143     1.0  0.74700  0.44341  0.18909  1.0000
  C   C1349     1.0  0.92836  0.48021  0.23502  1.0000
  H   H2144     1.0  0.78967  0.46069  0.18662  1.0000
  C   C1350     1.0  0.81929  0.41908  0.02128  1.0000
  C   C1351     1.0  0.78092  0.48944  0.14198  1.0000
  H   H2145     1.0  0.92848  0.46780  0.23049  1.0000
  S   S532      1.0  0.68313  0.42311  0.22998  1.0000
  H   H2146     1.0  0.76901  0.41292  0.18734  1.0000
  C   C1352     1.0  0.80628  0.45705  0.02038  1.0000
  C   C1353     1.0  0.97043  0.41217  0.22668  1.0000
  H   H2147     1.0  0.79345  0.45283  0.16542  1.0000
  C   C1354     1.0  0.85971  0.43820  0.14629  1.0000
  H   H2148     1.0  0.81007  0.48410  0.12992  1.0000
  C   C1355     1.0  0.87539  0.43308  0.15448  1.0000
  H   H2149     1.0  0.80139  0.47180  0.01982  1.0000
  H   H2150     1.0  0.76247  0.42524  0.21542  1.0000
  H   H2151     1.0  0.83133  0.45311  0.14834  1.0000
  S   S533      1.0  0.95266  0.43085  0.19749  1.0000
  H   H2152     1.0  0.78668  0.42383  0.21353  1.0000
  C   C1356     1.0  0.81023  0.43016  0.00695  1.0000
  H   H2153     1.0  0.88712  0.43479  0.17701  1.0000
  H   H2154     1.0  0.84669  0.47446  0.11960  1.0000
  C   C1357     1.0  0.81600  0.44620  0.03424  1.0000
  H   H2155     1.0  0.80532  0.43901  0.18358  1.0000
  C   C1358     1.0  0.76632  0.40730  0.14449  1.0000
  C   C1359     1.0  0.75780  0.39651  0.16080  1.0000
  C   C1360     1.0  0.74190  0.40479  0.17225  1.0000
  C   C1361     1.0  0.73428  0.42376  0.16715  1.0000
  C   C1362     1.0  0.68569  0.40886  0.17446  1.0000
  H   H2156     1.0  0.89375  0.47807  0.09178  1.0000
  H   H2157     1.0  0.79581  0.45756  0.99628  1.0000
  H   H2158     1.0  0.68595  0.36337  0.17702  1.0000
  H   H2159     1.0  0.95832  0.40602  0.23284  1.0000
  H   H2160     1.0  0.68001  0.38309  0.15898  1.0000
  H   H2161     1.0  0.85105  0.40996  0.21513  1.0000
  H   H2162     1.0  0.78112  0.42439  0.16582  1.0000
  H   H2163     1.0  0.68969  0.39111  0.20929  1.0000
  H   H2164     1.0  0.87318  0.48079  0.08272  1.0000
  H   H2165     1.0  0.67733  0.41522  0.16343  1.0000
  N   N137      1.0  0.86833  0.49018  0.10833  1.0000
  H   H2166     1.0  0.68194  0.41837  0.18445  1.0000
  H   H2167     1.0  0.79351  0.41176  0.18397  1.0000
  H   H2168     1.0  0.89069  0.48578  0.12274  1.0000
  H   H2169     1.0  0.82878  0.48316  0.00271  1.0000
  C   C1363     1.0  0.98694  0.43252  0.20164  1.0000
  H   H2170     1.0  0.67505  0.33926  0.23688  1.0000
  H   H2171     1.0  0.81865  0.40489  0.22398  1.0000
  H   H2172     1.0  0.77279  0.48333  0.00945  1.0000
  C   C1364     1.0  0.82573  0.43348  0.23449  1.0000
  H   H2173     1.0  0.98389  0.48169  0.23067  1.0000
  C   C1365     1.0  0.77991  0.48957  0.05305  1.0000
  H   H2174     1.0  0.70313  0.37672  0.16363  1.0000
  H   H2175     1.0  0.98744  0.44244  0.18849  1.0000
  C   C1366     1.0  0.66328  0.35080  0.23716  1.0000
  C   C1367     1.0  0.79965  0.48875  0.14129  1.0000
  H   H2176     1.0  0.75899  0.48715  0.08741  1.0000
  H   H2177     1.0  0.87268  0.48919  0.20264  1.0000
  H   H2178     1.0  0.95094  0.48779  0.21288  1.0000
  H   H2179     1.0  0.83516  0.44179  0.23620  1.0000
  C   C1368     1.0  0.84197  0.24009  0.47286  1.0000
  H   H2180     1.0  0.87520  0.25756  0.43441  1.0000
  S   S534      1.0  0.88163  0.39144  0.26450  1.0000
  C   C1369     1.0  0.97955  0.45964  0.27620  1.0000
  H   H2181     1.0  0.81226  0.03006  0.44609  1.0000
  Fe  Fe264     1.0  0.69605  0.39446  0.24375  1.0000
  H   H2182     1.0  0.88902  0.12823  0.41750  1.0000
  Fe  Fe265     1.0  0.85286  0.07908  0.45532  1.0000
  S   S535      1.0  0.83127  0.10519  0.45535  1.0000
  S   S536      1.0  0.87979  0.07879  0.43479  1.0000
  H   H2183     1.0  0.75078  0.38320  0.46911  1.0000
  S   S537      1.0  0.91865  0.42561  0.24600  1.0000
  Fe  Fe266     1.0  0.81122  0.08713  0.45779  1.0000
  S   S538      1.0  0.79018  0.09753  0.43940  1.0000
  H   H2184     1.0  0.72136  0.44285  0.28119  1.0000
  S   S539      1.0  0.83324  0.06157  0.45473  1.0000
  H   H2185     1.0  0.69016  0.42158  0.32272  1.0000
  Fe  Fe267     1.0  0.93162  0.14922  0.44927  1.0000
  S   S540      1.0  0.90435  0.16089  0.46587  1.0000
  S   S541      1.0  0.93900  0.12241  0.43917  1.0000
  H   H2186     1.0  0.79580  0.35321  0.45335  1.0000
  S   S542      1.0  0.97433  0.19506  0.43630  1.0000
  Fe  Fe268     1.0  0.90759  0.18784  0.44576  1.0000
  S   S543      1.0  0.88284  0.20496  0.43357  1.0000
  S   S544      1.0  0.93392  0.17563  0.42792  1.0000
  C   C1370     1.0  0.72669  0.44282  0.31483  1.0000
  H   H2187     1.0  0.81936  0.41398  0.26981  1.0000
  H   H2188     1.0  0.90747  0.16045  0.39826  1.0000
  Fe  Fe269     1.0  0.76796  0.29329  0.46757  1.0000
  S   S545      1.0  0.76942  0.32317  0.46449  1.0000
  Fe  Fe270     1.0  0.82865  0.05597  0.48585  1.0000
  Fe  Fe271     1.0  0.79847  0.31515  0.44897  1.0000
  S   S546      1.0  0.81349  0.33333  0.42428  1.0000
  H   H2189     1.0  0.88698  0.46443  0.30471  1.0000
  S   S547      1.0  0.79621  0.28587  0.44988  1.0000
  N   N138      1.0  0.85878  0.47901  0.31176  1.0000
  Fe  Fe272     1.0  0.78166  0.42824  0.36357  1.0000
  S   S548      1.0  0.79852  0.41751  0.33811  1.0000
  S   S549      1.0  0.76640  0.41003  0.38803  1.0000
  Fe  Fe273     1.0  0.78839  0.46794  0.34752  1.0000
  S   S550      1.0  0.80634  0.45991  0.32149  1.0000
  H   H2190     1.0  0.87011  0.18726  0.40875  1.0000
  Fe  Fe274     1.0  0.78466  0.44448  0.32190  1.0000
  S   S551      1.0  0.77242  0.45376  0.29595  1.0000
  Fe  Fe275     1.0  0.81835  0.43414  0.34019  1.0000
  S   S552      1.0  0.84933  0.42612  0.33600  1.0000
  S   S553      1.0  0.76594  0.45378  0.34716  1.0000
  S   S554      1.0  0.80234  0.44345  0.36652  1.0000
  H   H2191     1.0  0.79297  0.34743  0.47823  1.0000
  C   C1371     1.0  0.71554  0.43239  0.29288  1.0000
  S   S555      1.0  0.70499  0.40482  0.26490  1.0000
  H   H2192     1.0  0.80907  0.48434  0.36942  1.0000
  H   H2193     1.0  0.80915  0.36176  0.46456  1.0000
  S   S556      1.0  0.75950  0.39855  0.25260  1.0000
  Fe  Fe276     1.0  0.80600  0.27877  0.47697  1.0000
  H   H2194     1.0  0.96853  0.48905  0.25080  1.0000
  C   C1372     1.0  0.79640  0.99386  0.48354  1.0000
  Fe  Fe277     1.0  0.70264  0.16175  0.47350  1.0000
  S   S557      1.0  0.71062  0.17948  0.44524  1.0000
  H   H2195     1.0  0.97398  0.17225  0.47349  1.0000
  H   H2196     1.0  0.85130  0.31508  0.43426  1.0000
  S   S558      1.0  0.68918  0.21555  0.46471  1.0000
  N   N139      1.0  0.83233  0.41334  0.24116  1.0000
  Fe  Fe278     1.0  0.68140  0.19593  0.45133  1.0000
  H   H2197     1.0  0.84485  0.27154  0.42531  1.0000
  Fe  Fe279     1.0  0.71760  0.19746  0.46089  1.0000
  S   S559      1.0  0.74526  0.20608  0.45434  1.0000
  S   S560      1.0  0.67287  0.17684  0.47858  1.0000
  C   C1373     1.0  0.74374  0.10498  0.47908  1.0000
  C   C1374     1.0  0.84381  0.28319  0.43220  1.0000
  C   C1375     1.0  0.72854  0.26116  0.45475  1.0000
  H   H2198     1.0  0.88258  0.20811  0.47083  1.0000
  C   C1376     1.0  0.87589  0.46670  0.31718  1.0000
  H   H2199     1.0  0.77039  0.05562  0.41359  1.0000
  H   H2200     1.0  0.96546  0.46767  0.28108  1.0000
  C   C1377     1.0  0.79524  0.35875  0.46576  1.0000
  S   S561      1.0  0.81079  0.30736  0.47456  1.0000
  C   C1378     1.0  0.70975  0.47393  0.25472  1.0000
  H   H2201     1.0  0.77046  0.04439  0.45501  1.0000
  H   H2202     1.0  0.76866  0.39454  0.48568  1.0000
  C   C1379     1.0  0.76235  0.37093  0.46793  1.0000
  H   H2203     1.0  0.88144  0.47264  0.32615  1.0000
  C   C1380     1.0  0.98602  0.17853  0.46938  1.0000
  S   S562      1.0  0.89729  0.47315  0.26084  1.0000
  H   H2204     1.0  0.71643  0.27196  0.45260  1.0000
  C   C1381     1.0  0.69594  0.45645  0.30853  1.0000
  C   C1382     1.0  0.87186  0.15646  0.43561  1.0000
  C   C1383     1.0  0.98903  0.19087  0.45222  1.0000
  H   H2205     1.0  0.79775  0.39432  0.44954  1.0000
  Fe  Fe280     1.0  0.92168  0.16922  0.48130  1.0000
  H   H2206     1.0  0.73360  0.48651  0.24856  1.0000
  H   H2207     1.0  0.90063  0.17304  0.41675  1.0000
  H   H2208     1.0  0.78529  0.38577  0.43741  1.0000
  Fe  Fe281     1.0  0.69467  0.43364  0.24918  1.0000
  N   N140      1.0  0.98325  0.46064  0.25591  1.0000
  C   C1384     1.0  0.71876  0.48828  0.25368  1.0000
  H   H2209     1.0  0.69839  0.42927  0.33922  1.0000
  H   H2210     1.0  0.77068  0.06745  0.44122  1.0000
  H   H2211     1.0  0.83642  0.27949  0.44687  1.0000
  Fe  Fe282     1.0  0.89456  0.41421  0.24446  1.0000
  N   N141      1.0  0.88073  0.15779  0.41572  1.0000
  C   C1385     1.0  0.76989  0.43799  0.28380  1.0000
  C   C1386     1.0  0.76015  0.44498  0.26921  1.0000
  C   C1387     1.0  0.75686  0.43290  0.25971  1.0000
  C   C1388     1.0  0.76354  0.41375  0.26454  1.0000
  C   C1389     1.0  0.77379  0.40675  0.27879  1.0000
  C   C1390     1.0  0.77679  0.41885  0.28858  1.0000
  H   H2212     1.0  0.75484  0.45979  0.26544  1.0000
  H   H2213     1.0  0.77079  0.03249  0.42752  1.0000
  H   H2214     1.0  0.77906  0.39192  0.28253  1.0000
  H   H2215     1.0  0.78433  0.41336  0.29986  1.0000
  C   C1391     1.0  0.74461  0.22902  0.45578  1.0000
  C   C1392     1.0  0.75998  0.23331  0.45968  1.0000
  C   C1393     1.0  0.75946  0.25139  0.46159  1.0000
  C   C1394     1.0  0.74365  0.26531  0.45928  1.0000
  H   H2216     1.0  0.83959  0.47982  0.29478  1.0000
  C   C1395     1.0  0.72893  0.24300  0.45320  1.0000
  H   H2217     1.0  0.77220  0.22257  0.46153  1.0000
  H   H2218     1.0  0.77115  0.25448  0.46514  1.0000
  H   H2219     1.0  0.87682  0.17578  0.38940  1.0000
  H   H2220     1.0  0.85315  0.29865  0.45581  1.0000
  C   C1396     1.0  0.80023  0.35428  0.41368  1.0000
  C   C1397     1.0  0.80928  0.36754  0.40052  1.0000
  C   C1398     1.0  0.79902  0.38459  0.39238  1.0000
  C   C1399     1.0  0.77963  0.38851  0.39744  1.0000
  C   C1400     1.0  0.77058  0.37523  0.41056  1.0000
  C   C1401     1.0  0.78083  0.35813  0.41855  1.0000
  H   H2221     1.0  0.82427  0.36467  0.39659  1.0000
  H   H2222     1.0  0.80614  0.39473  0.38225  1.0000
  H   H2223     1.0  0.75558  0.37809  0.41437  1.0000
  H   H2224     1.0  0.77367  0.34784  0.42826  1.0000
  C   C1402     1.0  0.86676  0.21786  0.44903  1.0000
  C   C1403     1.0  0.87027  0.21711  0.46648  1.0000
  C   C1404     1.0  0.87036  0.17414  0.40447  1.0000
  S   S563      1.0  0.94875  0.15472  0.46667  1.0000
  C   C1405     1.0  0.83804  0.24033  0.45571  1.0000
  C   C1406     1.0  0.85050  0.22932  0.44373  1.0000
  H   H2225     1.0  0.84291  0.41745  0.26333  1.0000
  C   C1407     1.0  0.69064  0.47582  0.26151  1.0000
  H   H2226     1.0  0.82547  0.24907  0.45163  1.0000
  H   H2227     1.0  0.84760  0.22975  0.43034  1.0000
  C   C1408     1.0  0.73275  0.12095  0.47027  1.0000
  C   C1409     1.0  0.73910  0.12906  0.45172  1.0000
  C   C1410     1.0  0.75650  0.12136  0.44209  1.0000
  C   C1411     1.0  0.76787  0.10599  0.45119  1.0000
  C   C1412     1.0  0.76141  0.09765  0.46964  1.0000
  H   H2228     1.0  0.82385  0.38756  0.24410  1.0000
  H   H2229     1.0  0.73050  0.14110  0.44471  1.0000
  H   H2230     1.0  0.76135  0.12767  0.42772  1.0000
  H   H2231     1.0  0.76989  0.08547  0.47658  1.0000
  H   H2232     1.0  0.76233  0.36618  0.45519  1.0000
  C   C1413     1.0  0.89584  0.09062  0.43743  1.0000
  C   C1414     1.0  0.91304  0.08932  0.42521  1.0000
  C   C1415     1.0  0.92611  0.09898  0.42619  1.0000
  C   C1416     1.0  0.92204  0.11029  0.43920  1.0000
  C   C1417     1.0  0.90484  0.11164  0.45161  1.0000
  C   C1418     1.0  0.89170  0.10172  0.45078  1.0000
  H   H2233     1.0  0.91632  0.08076  0.41493  1.0000
  H   H2234     1.0  0.93941  0.09777  0.41667  1.0000
  H   H2235     1.0  0.90181  0.12007  0.46196  1.0000
  H   H2236     1.0  0.87842  0.10269  0.46033  1.0000
  C   C1419     1.0  0.85794  0.22823  0.47833  1.0000
  H   H2237     1.0  0.77441  0.49004  0.31196  1.0000
  C   C1420     1.0  0.76545  0.15897  0.45930  1.0000
  H   H2238     1.0  0.73800  0.43018  0.31580  1.0000
  H   H2239     1.0  0.70139  0.46767  0.29740  1.0000
  H   H2240     1.0  0.71725  0.23990  0.44967  1.0000
  S   S564      1.0  0.74165  0.28739  0.46384  1.0000
  H   H2241     1.0  0.84099  0.46701  0.33642  1.0000
  H   H2242     1.0  0.88671  0.14144  0.39474  1.0000
  H   H2243     1.0  0.77156  0.17063  0.44961  1.0000
  H   H2244     1.0  0.78822  0.03652  0.40683  1.0000
  H   H2245     1.0  0.71304  0.41145  0.32741  1.0000
  S   S565      1.0  0.85033  0.07129  0.48624  1.0000
  N   N142      1.0  0.71019  0.43910  0.31050  1.0000
  C   C1421     1.0  0.70260  0.42472  0.32566  1.0000
  H   H2246     1.0  0.79914  0.15808  0.46468  1.0000
  H   H2247     1.0  0.72623  0.41925  0.29372  1.0000
  H   H2248     1.0  0.95498  0.46009  0.25618  1.0000
  H   H2249     1.0  0.80507  0.40711  0.24676  1.0000
  C   C1422     1.0  0.87358  0.39914  0.28558  1.0000
  C   C1423     1.0  0.88265  0.41111  0.28961  1.0000
  C   C1424     1.0  0.87552  0.41873  0.30553  1.0000
  C   C1425     1.0  0.85885  0.41499  0.31714  1.0000
  C   C1426     1.0  0.84977  0.40287  0.31328  1.0000
  C   C1427     1.0  0.85737  0.39462  0.29770  1.0000
  H   H2250     1.0  0.89531  0.41441  0.28054  1.0000
  H   H2251     1.0  0.88278  0.42781  0.30855  1.0000
  H   H2252     1.0  0.83710  0.39961  0.32245  1.0000
  H   H2253     1.0  0.85049  0.38506  0.29489  1.0000
  H   H2254     1.0  0.88560  0.29449  0.41065  1.0000
  C   C1428     1.0  0.83322  0.40974  0.26107  1.0000
  H   H2255     1.0  0.98560  0.39619  0.24813  1.0000
  H   H2256     1.0  0.85724  0.15475  0.43823  1.0000
  H   H2257     1.0  0.68354  0.45431  0.30457  1.0000
  S   S566      1.0  0.67943  0.45719  0.26420  1.0000
  H   H2258     1.0  0.70333  0.42978  0.28906  1.0000
  H   H2259     1.0  0.84932  0.45691  0.30617  1.0000
  C   C1429     1.0  0.78432  0.39035  0.45054  1.0000
  H   H2260     1.0  0.87177  0.16917  0.44049  1.0000
  S   S567      1.0  0.68520  0.36791  0.24835  1.0000
  H   H2261     1.0  0.84844  0.48698  0.33838  1.0000
  C   C1430     1.0  0.78947  0.01275  0.48400  1.0000
  Fe  Fe283     1.0  0.82706  0.09628  0.48632  1.0000
  H   H2262     1.0  0.77611  0.01941  0.48041  1.0000
  S   S568      1.0  0.71143  0.13080  0.48286  1.0000
  C   C1431     1.0  0.90010  0.15996  0.41299  1.0000
  H   H2263     1.0  0.97036  0.43769  0.25806  1.0000
  C   C1432     1.0  0.87353  0.26963  0.44096  1.0000
  H   H2264     1.0  0.88767  0.27161  0.44056  1.0000
  S   S569      1.0  0.92258  0.19730  0.46251  1.0000
  H   H2265     1.0  0.77321  0.40311  0.45081  1.0000
  N   N143      1.0  0.86229  0.28665  0.43145  1.0000
  H   H2266     1.0  0.79451  0.07283  0.41288  1.0000
  H   H2267     1.0  0.87369  0.30534  0.44045  1.0000
  Fe  Fe284     1.0  0.73157  0.40691  0.24404  1.0000
  C   C1433     1.0  0.98216  0.48028  0.24598  1.0000
  H   H2268     1.0  0.72334  0.44747  0.32828  1.0000
  S   S570      1.0  0.87448  0.44140  0.24436  1.0000
  H   H2269     1.0  0.79595  0.13457  0.46876  1.0000
  H   H2270     1.0  0.77304  0.18237  0.47636  1.0000
  N   N144      1.0  0.78040  0.37550  0.46709  1.0000
  H   H2271     1.0  0.71777  0.46123  0.25072  1.0000
  H   H2272     1.0  0.78819  0.05642  0.45477  1.0000
  H   H2273     1.0  0.75008  0.16345  0.46097  1.0000
  H   H2274     1.0  0.79538  0.01751  0.44530  1.0000
  S   S571      1.0  0.66303  0.20965  0.43005  1.0000
  H   H2275     1.0  0.86688  0.26554  0.45588  1.0000
  H   H2276     1.0  0.69735  0.25151  0.48263  1.0000
  H   H2277     1.0  0.81236  0.05378  0.40603  1.0000
  C   C1434     1.0  0.66465  0.36712  0.24185  1.0000
  H   H2278     1.0  0.87937  0.14437  0.44453  1.0000
  H   H2279     1.0  0.76976  0.14689  0.45234  1.0000
  H   H2280     1.0  0.69117  0.46175  0.32168  1.0000
  Fe  Fe285     1.0  0.94877  0.18230  0.44685  1.0000
  H   H2281     1.0  0.73248  0.45391  0.30382  1.0000
  H   H2282     1.0  0.83096  0.48988  0.32511  1.0000
  C   C1435     1.0  0.77969  0.38188  0.48418  1.0000
  H   H2283     1.0  0.90823  0.14821  0.42175  1.0000
  H   H2284     1.0  0.86634  0.13805  0.41242  1.0000
  H   H2285     1.0  0.85570  0.17295  0.40610  1.0000
  C   C1436     1.0  0.88064  0.14068  0.40982  1.0000
  C   C1437     1.0  0.85241  0.47091  0.29924  1.0000
  H   H2286     1.0  0.83492  0.29569  0.42512  1.0000
  H   H2287     1.0  0.86334  0.30446  0.40427  1.0000
  H   H2288     1.0  0.83844  0.39470  0.26646  1.0000
  C   C1438     1.0  0.87160  0.29170  0.41179  1.0000
  C   C1439     1.0  0.86005  0.30212  0.44090  1.0000
  H   H2289     1.0  0.87342  0.28031  0.40428  1.0000
  N   N145      1.0  0.79158  0.04591  0.43005  1.0000
  C   C1440     1.0  0.80367  0.02815  0.43700  1.0000
  C   C1441     1.0  0.80319  0.05920  0.41822  1.0000
  C   C1442     1.0  0.77970  0.05383  0.44598  1.0000
  C   C1443     1.0  0.77973  0.04249  0.41899  1.0000
  H   H2290     1.0  0.81334  0.02214  0.42536  1.0000
  H   H2291     1.0  0.87325  0.45278  0.32518  1.0000
  H   H2292     1.0  0.81159  0.43851  0.24231  1.0000
  H   H2293     1.0  0.81223  0.06219  0.42617  1.0000
  C   C1444     1.0  0.79167  0.14746  0.47454  1.0000
  H   H2294     1.0  0.74916  0.43845  0.24863  1.0000
  C   C1445     1.0  0.84416  0.48083  0.32863  1.0000
  N   N146      1.0  0.77135  0.15421  0.47741  1.0000
  Fe  Fe286     1.0  0.89896  0.45307  0.24305  1.0000
  H   H2295     1.0  0.79314  0.38526  0.48415  1.0000
  H   H2296     1.0  0.86320  0.46905  0.28651  1.0000
  H   H2297     1.0  0.75110  0.17645  0.48793  1.0000
  H   H2298     1.0  0.70583  0.28035  0.48405  1.0000
  H   H2299     1.0  0.98030  0.44498  0.28409  1.0000
  H   H2300     1.0  0.98986  0.46543  0.28003  1.0000
  H   H2301     1.0  0.75907  0.35958  0.48014  1.0000
  H   H2302     1.0  0.99316  0.48632  0.24824  1.0000
  C   C1446     1.0  0.76633  0.17091  0.48568  1.0000
  H   H2303     1.0  0.79662  0.14417  0.48786  1.0000
  H   H2304     1.0  0.76615  0.12647  0.48459  1.0000
  C   C1447     1.0  0.96938  0.45272  0.25138  1.0000
  C   C1448     1.0  0.91530  0.48525  0.25048  1.0000
  H   H2305     1.0  0.78101  0.49057  0.28743  1.0000
  S   S572      1.0  0.82793  0.25504  0.48745  1.0000
  S   S573      1.0  0.71201  0.17829  0.48861  1.0000
  C   C1449     1.0  0.81938  0.40280  0.23887  1.0000
  Fe  Fe287     1.0  0.79320  0.11094  0.59680  1.0000
  S   S574      1.0  0.82362  0.10083  0.58681  1.0000
  S   S575      1.0  0.77299  0.11310  0.57886  1.0000
  Fe  Fe288     1.0  0.79844  0.11519  0.63343  1.0000
  S   S576      1.0  0.82932  0.10489  0.62711  1.0000
  S   S577      1.0  0.78393  0.12798  0.65815  1.0000
  Fe  Fe289     1.0  0.82784  0.12322  0.59895  1.0000
  S   S578      1.0  0.84658  0.14338  0.58288  1.0000
  Fe  Fe290     1.0  0.82243  0.08333  0.61564  1.0000
  S   S579      1.0  0.79738  0.13505  0.60602  1.0000
  S   S580      1.0  0.79158  0.09187  0.62485  1.0000
  H   H2306     1.0  0.79235  0.10439  0.51478  1.0000
  Fe  Fe291     1.0  0.91911  0.21861  0.57669  1.0000
  S   S581      1.0  0.93104  0.18842  0.58662  1.0000
  S   S582      1.0  0.91538  0.23105  0.54746  1.0000
  Fe  Fe292     1.0  0.91639  0.22869  0.61324  1.0000
  S   S583      1.0  0.92783  0.19948  0.62664  1.0000
  S   S584      1.0  0.91007  0.25386  0.62576  1.0000
  Fe  Fe293     1.0  0.94854  0.19930  0.59966  1.0000
  C   C1450     1.0  0.82244  0.31830  0.66798  1.0000
  Fe  Fe294     1.0  0.90918  0.19141  0.61239  1.0000
  S   S585      1.0  0.89217  0.16959  0.62767  1.0000
  S   S586      1.0  0.93844  0.22918  0.58744  1.0000
  S   S587      1.0  0.89588  0.22089  0.60133  1.0000
  S   S588      1.0  0.77144  0.33002  0.51267  1.0000
  Fe  Fe295     1.0  0.69790  0.18811  0.63920  1.0000
  S   S589      1.0  0.67894  0.20171  0.61918  1.0000
  S   S590      1.0  0.69990  0.15768  0.65165  1.0000
  Fe  Fe296     1.0  0.71264  0.22318  0.63422  1.0000
  S   S591      1.0  0.69452  0.24004  0.61384  1.0000
  S   S592      1.0  0.73603  0.23076  0.64227  1.0000
  C   C1451     1.0  0.81648  0.01424  0.49479  1.0000
  N   N147      1.0  0.96777  0.24233  0.62688  1.0000
  Fe  Fe297     1.0  0.70256  0.21460  0.60129  1.0000
  S   S593      1.0  0.71473  0.21368  0.57106  1.0000
  S   S594      1.0  0.68983  0.21090  0.65518  1.0000
  S   S595      1.0  0.72221  0.19883  0.62021  1.0000
  Fe  Fe298     1.0  0.80951  0.30055  0.63409  1.0000
  S   S596      1.0  0.78268  0.31692  0.64706  1.0000
  S   S597      1.0  0.82307  0.27398  0.65090  1.0000
  Fe  Fe299     1.0  0.80955  0.32574  0.59607  1.0000
  S   S598      1.0  0.78303  0.34483  0.60595  1.0000
  S   S599      1.0  0.82503  0.32555  0.56654  1.0000
  Fe  Fe300     1.0  0.79493  0.34192  0.63129  1.0000
  S   S600      1.0  0.78898  0.36505  0.64731  1.0000
  Fe  Fe301     1.0  0.77320  0.31838  0.62093  1.0000
  S   S601      1.0  0.74531  0.31462  0.61908  1.0000
  S   S602      1.0  0.82261  0.32528  0.61988  1.0000
  S   S603      1.0  0.79890  0.29955  0.60944  1.0000
  Fe  Fe302     1.0  0.83818  0.39610  0.71169  1.0000
  Fe  Fe303     1.0  0.82424  0.43313  0.72451  1.0000
  S   S604      1.0  0.84566  0.38224  0.68675  1.0000
  C   C1452     1.0  0.96361  0.20857  0.53967  1.0000
  S   S605      1.0  0.81244  0.46376  0.71642  1.0000
  S   S606      1.0  0.85145  0.42034  0.70873  1.0000
  H   H2307     1.0  0.74022  0.17154  0.59391  1.0000
  H   H2308     1.0  0.76558  0.13598  0.50413  1.0000
  C   C1453     1.0  0.84443  0.46882  0.72358  1.0000
  H   H2309     1.0  0.69542  0.16152  0.59157  1.0000
  H   H2310     1.0  0.80502  0.07528  0.57080  1.0000
  C   C1454     1.0  0.83848  0.01937  0.61332  1.0000
  C   C1455     1.0  0.96172  0.17943  0.53359  1.0000
  H   H2311     1.0  0.66800  0.17325  0.71190  1.0000
  C   C1456     1.0  0.76781  0.27285  0.58719  1.0000
  N   N148      1.0  0.72439  0.15208  0.59286  1.0000
  H   H2312     1.0  0.83865  0.99223  0.60929  1.0000
  C   C1457     1.0  0.80492  0.36945  0.65831  1.0000
  C   C1458     1.0  0.82408  0.36383  0.65261  1.0000
  C   C1459     1.0  0.83636  0.36761  0.66169  1.0000
  C   C1460     1.0  0.82960  0.37696  0.67656  1.0000
  C   C1461     1.0  0.81043  0.38251  0.68234  1.0000
  C   C1462     1.0  0.79815  0.37892  0.67311  1.0000
  H   H2313     1.0  0.82945  0.35686  0.64100  1.0000
  H   H2314     1.0  0.85119  0.36345  0.65703  1.0000
  H   H2315     1.0  0.80504  0.38966  0.69382  1.0000
  H   H2316     1.0  0.78332  0.38335  0.67755  1.0000
  S   S607      1.0  0.91545  0.16394  0.51257  1.0000
  H   H2317     1.0  0.75215  0.14756  0.59754  1.0000
  H   H2318     1.0  0.84563  0.13441  0.54883  1.0000
  C   C1463     1.0  0.73770  0.25431  0.63688  1.0000
  C   C1464     1.0  0.72397  0.26831  0.62949  1.0000
  C   C1465     1.0  0.72608  0.28695  0.62465  1.0000
  C   C1466     1.0  0.74199  0.29158  0.62702  1.0000
  C   C1467     1.0  0.75559  0.27761  0.63464  1.0000
  C   C1468     1.0  0.75341  0.25902  0.63960  1.0000
  H   H2319     1.0  0.71172  0.26481  0.62758  1.0000
  H   H2320     1.0  0.71546  0.29775  0.61890  1.0000
  H   H2321     1.0  0.76780  0.28110  0.63667  1.0000
  H   H2322     1.0  0.76398  0.24825  0.64545  1.0000
  C   C1469     1.0  0.68024  0.20495  0.53365  1.0000
  S   S608      1.0  0.82866  0.02671  0.50261  1.0000
  C   C1470     1.0  0.68192  0.21106  0.56324  1.0000
  C   C1471     1.0  0.70124  0.20885  0.55778  1.0000
  C   C1472     1.0  0.71004  0.20398  0.54065  1.0000
  C   C1473     1.0  0.69960  0.20213  0.52860  1.0000
  H   H2323     1.0  0.74660  0.14374  0.49190  1.0000
  H   H2324     1.0  0.67500  0.21490  0.57644  1.0000
  H   H2325     1.0  0.72498  0.20225  0.53638  1.0000
  H   H2326     1.0  0.70702  0.17930  0.59178  1.0000
  C   C1474     1.0  0.78674  0.32897  0.52714  1.0000
  C   C1475     1.0  0.80562  0.32091  0.52295  1.0000
  C   C1476     1.0  0.81740  0.32015  0.53493  1.0000
  C   C1477     1.0  0.81025  0.32695  0.55141  1.0000
  C   C1478     1.0  0.79132  0.33469  0.55571  1.0000
  C   C1479     1.0  0.77968  0.33597  0.54346  1.0000
  H   H2327     1.0  0.81120  0.31539  0.51045  1.0000
  H   H2328     1.0  0.83203  0.31418  0.53149  1.0000
  H   H2329     1.0  0.78568  0.34007  0.56829  1.0000
  H   H2330     1.0  0.76511  0.34229  0.54678  1.0000
  C   C1480     1.0  0.88611  0.25947  0.63399  1.0000
  C   C1481     1.0  0.87701  0.27815  0.63213  1.0000
  C   C1482     1.0  0.85760  0.28274  0.63719  1.0000
  C   C1483     1.0  0.84735  0.26864  0.64469  1.0000
  C   C1484     1.0  0.85655  0.24996  0.64713  1.0000
  C   C1485     1.0  0.87589  0.24536  0.64149  1.0000
  H   H2331     1.0  0.88492  0.28907  0.62633  1.0000
  H   H2332     1.0  0.85069  0.29716  0.63544  1.0000
  H   H2333     1.0  0.84867  0.23902  0.65300  1.0000
  H   H2334     1.0  0.88290  0.23089  0.64299  1.0000
  C   C1486     1.0  0.75294  0.30400  0.57428  1.0000
  H   H2335     1.0  0.84746  0.44456  0.67112  1.0000
  S   S609      1.0  0.97908  0.18732  0.59909  1.0000
  H   H2336     1.0  0.96634  0.21723  0.61951  1.0000
  C   C1487     1.0  0.91495  0.18300  0.52194  1.0000
  C   C1488     1.0  0.90861  0.18211  0.54108  1.0000
  C   C1489     1.0  0.90835  0.19711  0.54883  1.0000
  C   C1490     1.0  0.91431  0.21304  0.53749  1.0000
  H   H2337     1.0  0.90397  0.16981  0.54995  1.0000
  H   H2338     1.0  0.90339  0.19641  0.56357  1.0000
  C   C1491     1.0  0.76015  0.13548  0.65776  1.0000
  C   C1492     1.0  0.75067  0.12462  0.65254  1.0000
  C   C1493     1.0  0.73178  0.13097  0.65175  1.0000
  C   C1494     1.0  0.72266  0.14861  0.65520  1.0000
  C   C1495     1.0  0.73215  0.15950  0.66031  1.0000
  C   C1496     1.0  0.75072  0.15271  0.66209  1.0000
  H   H2339     1.0  0.75781  0.11117  0.64944  1.0000
  H   H2340     1.0  0.72443  0.12241  0.64802  1.0000
  H   H2341     1.0  0.72515  0.17314  0.66303  1.0000
  H   H2342     1.0  0.75778  0.16105  0.66648  1.0000
  C   C1497     1.0  0.88043  0.16188  0.61466  1.0000
  C   C1498     1.0  0.87855  0.17137  0.59659  1.0000
  C   C1499     1.0  0.86851  0.16534  0.58676  1.0000
  C   C1500     1.0  0.86016  0.14987  0.59502  1.0000
  C   C1501     1.0  0.86219  0.14028  0.61303  1.0000
  C   C1502     1.0  0.87228  0.14628  0.62281  1.0000
  H   H2343     1.0  0.88461  0.18352  0.59036  1.0000
  H   H2344     1.0  0.86699  0.17288  0.57284  1.0000
  H   H2345     1.0  0.85607  0.12820  0.61944  1.0000
  H   H2346     1.0  0.87383  0.13880  0.63675  1.0000
  H   H2347     1.0  0.80079  0.05480  0.61540  1.0000
  C   C1503     1.0  0.80956  0.11944  0.52146  1.0000
  C   C1504     1.0  0.81177  0.12825  0.53459  1.0000
  C   C1505     1.0  0.79986  0.12709  0.55198  1.0000
  C   C1506     1.0  0.78537  0.11753  0.55605  1.0000
  C   C1507     1.0  0.78214  0.11000  0.54238  1.0000
  C   C1508     1.0  0.79439  0.11082  0.52507  1.0000
  H   H2348     1.0  0.82310  0.13539  0.53160  1.0000
  H   H2349     1.0  0.80213  0.13328  0.56240  1.0000
  H   H2350     1.0  0.77080  0.10272  0.54552  1.0000
  C   C1509     1.0  0.69843  0.27876  0.49885  1.0000
  H   H2351     1.0  0.78520  0.27279  0.55179  1.0000
  H   H2352     1.0  0.73629  0.12281  0.59857  1.0000
  H   H2353     1.0  0.85118  0.04488  0.55923  1.0000
  H   H2354     1.0  0.78820  0.29298  0.55821  1.0000
  C   C1510     1.0  0.73836  0.15700  0.60030  1.0000
  H   H2355     1.0  0.71806  0.13059  0.61673  1.0000
  H   H2356     1.0  0.82545  0.30666  0.66061  1.0000
  H   H2357     1.0  0.77541  0.25890  0.58451  1.0000
  C   C1511     1.0  0.80907  0.04117  0.61412  1.0000
  H   H2358     1.0  0.73417  0.15595  0.61563  1.0000
  C   C1512     1.0  0.82786  0.03706  0.61514  1.0000
  H   H2359     1.0  0.70119  0.16278  0.61275  1.0000
  C   C1513     1.0  0.81143  0.00967  0.61023  1.0000
  C   C1514     1.0  0.83032  0.00575  0.61076  1.0000
  H   H2360     1.0  0.74045  0.30356  0.58569  1.0000
  C   C1515     1.0  0.72274  0.13257  0.60133  1.0000
  H   H2361     1.0  0.85311  0.01628  0.61372  1.0000
  N   N149      1.0  0.82649  0.43851  0.66029  1.0000
  C   C1516     1.0  0.82533  0.42698  0.64770  1.0000
  H   H2362     1.0  0.82049  0.41777  0.68485  1.0000
  C   C1517     1.0  0.81533  0.43265  0.67892  1.0000
  C   C1518     1.0  0.81923  0.45835  0.65292  1.0000
  H   H2363     1.0  0.81069  0.42796  0.64677  1.0000
  H   H2364     1.0  0.73873  0.09855  0.49336  1.0000
  H   H2365     1.0  0.94365  0.25644  0.64339  1.0000
  H   H2366     1.0  0.81378  0.04834  0.53368  1.0000
  H   H2367     1.0  0.96956  0.24683  0.59737  1.0000
  H   H2368     1.0  0.89626  0.12683  0.52767  1.0000
  H   H2369     1.0  0.96901  0.16504  0.53208  1.0000
  S   S610      1.0  0.81006  0.41012  0.72522  1.0000
  H   H2370     1.0  0.85500  0.44008  0.64794  1.0000
  H   H2371     1.0  0.96426  0.26565  0.63956  1.0000
  H   H2372     1.0  0.80449  0.46069  0.65158  1.0000
  H   H2373     1.0  0.82744  0.46338  0.63895  1.0000
  H   H2374     1.0  0.94927  0.17835  0.54499  1.0000
  H   H2375     1.0  0.80077  0.29346  0.68418  1.0000
  H   H2376     1.0  0.81593  0.44098  0.68884  1.0000
  N   N150      1.0  0.76172  0.28528  0.57037  1.0000
  C   C1519     1.0  0.92053  0.21402  0.51837  1.0000
  H   H2377     1.0  0.98905  0.16545  0.55328  1.0000
  H   H2378     1.0  0.76261  0.31008  0.57879  1.0000
  C   C1520     1.0  0.98814  0.23746  0.62545  1.0000
  C   C1521     1.0  0.80087  0.02747  0.61174  1.0000
  H   H2379     1.0  0.81973  0.46728  0.66235  1.0000
  H   H2380     1.0  0.92539  0.22624  0.50958  1.0000
  C   C1522     1.0  0.73022  0.15437  0.57241  1.0000
  H   H2381     1.0  0.83117  0.41200  0.65275  1.0000
  H   H2382     1.0  0.84511  0.06871  0.53178  1.0000
  H   H2383     1.0  0.75424  0.26344  0.56216  1.0000
  H   H2384     1.0  0.74398  0.14529  0.56848  1.0000
  H   H2385     1.0  0.73141  0.16905  0.56571  1.0000
  N   N151      1.0  0.82396  0.05744  0.55328  1.0000
  H   H2386     1.0  0.79974  0.05270  0.57435  1.0000
  H   H2387     1.0  0.80046  0.43424  0.67845  1.0000
  C   C1523     1.0  0.74813  0.27760  0.56512  1.0000
  Fe  Fe304     1.0  0.85812  0.40676  0.73684  1.0000
  C   C1524     1.0  0.92106  0.19891  0.51065  1.0000
  C   C1525     1.0  0.82674  0.47719  0.71979  1.0000
  H   H2388     1.0  0.83326  0.43125  0.63338  1.0000
  N   N152      1.0  0.69868  0.25895  0.50777  1.0000
  H   H2389     1.0  0.82606  0.29177  0.71089  1.0000
  C   C1526     1.0  0.96337  0.25417  0.60911  1.0000
  H   H2390     1.0  0.84955  0.45406  0.72425  1.0000
  H   H2391     1.0  0.83242  0.03717  0.57669  1.0000
  N   N153      1.0  0.97404  0.18975  0.53738  1.0000
  H   H2392     1.0  0.83053  0.08474  0.54588  1.0000
  C   C1527     1.0  0.82332  0.04291  0.54376  1.0000
  H   H2393     1.0  0.85188  0.42117  0.66756  1.0000
  H   H2394     1.0  0.72521  0.25488  0.51524  1.0000
  Fe  Fe305     1.0  0.68309  0.19501  0.49141  1.0000
  H   H2395     1.0  0.99011  0.18715  0.55799  1.0000
  H   H2396     1.0  0.67519  0.25771  0.49734  1.0000
  C   C1528     1.0  0.85576  0.47960  0.72621  1.0000
  H   H2397     1.0  0.77373  0.29554  0.54188  1.0000
  C   C1529     1.0  0.87063  0.15640  0.53558  1.0000
  H   H2398     1.0  0.71884  0.23395  0.51430  1.0000
  H   H2399     1.0  0.69003  0.23563  0.50357  1.0000
  H   H2400     1.0  0.96878  0.26725  0.60558  1.0000
  H   H2401     1.0  0.98537  0.19862  0.50830  1.0000
  C   C1530     1.0  0.98094  0.17965  0.55457  1.0000
  C   C1531     1.0  0.95905  0.25257  0.64207  1.0000
  H   H2402     1.0  0.84269  0.15823  0.51932  1.0000
  H   H2403     1.0  0.88005  0.15045  0.54574  1.0000
  H   H2404     1.0  0.85731  0.11681  0.53554  1.0000
  C   C1532     1.0  0.67143  0.20919  0.55113  1.0000
  N   N154      1.0  0.81600  0.31207  0.68817  1.0000
  C   C1533     1.0  0.81249  0.32793  0.69745  1.0000
  H   H2405     1.0  0.73568  0.27641  0.57654  1.0000
  H   H2406     1.0  0.94506  0.22829  0.63243  1.0000
  C   C1534     1.0  0.79867  0.30515  0.69142  1.0000
  H   H2407     1.0  0.80151  0.33948  0.69214  1.0000
  H   H2408     1.0  0.82518  0.33381  0.69490  1.0000
  H   H2409     1.0  0.80782  0.32375  0.71278  1.0000
  H   H2410     1.0  0.75574  0.27054  0.59869  1.0000
  N   N155      1.0  0.86827  0.14193  0.52695  1.0000
  C   C1535     1.0  0.85943  0.12792  0.54150  1.0000
  C   C1536     1.0  0.77796  0.28667  0.55491  1.0000
  H   H2411     1.0  0.81170  0.32939  0.66178  1.0000
  S   S611      1.0  0.83861  0.05373  0.61826  1.0000
  H   H2412     1.0  0.78743  0.31633  0.68607  1.0000
  H   H2413     1.0  0.79351  0.30001  0.70650  1.0000
  N   N156      1.0  0.81351  0.17144  0.63965  1.0000
  C   C1537     1.0  0.82123  0.15170  0.64691  1.0000
  C   C1538     1.0  0.81708  0.18324  0.65066  1.0000
  C   C1539     1.0  0.79328  0.17392  0.64116  1.0000
  C   C1540     1.0  0.82244  0.17687  0.61992  1.0000
  H   H2414     1.0  0.81931  0.14246  0.63854  1.0000
  H   H2415     1.0  0.81422  0.14686  0.66153  1.0000
  H   H2416     1.0  0.83635  0.14937  0.64666  1.0000
  H   H2417     1.0  0.81129  0.19823  0.64567  1.0000
  H   H2418     1.0  0.81063  0.17938  0.66565  1.0000
  H   H2419     1.0  0.83226  0.18174  0.64974  1.0000
  H   H2420     1.0  0.79007  0.16499  0.63324  1.0000
  H   H2421     1.0  0.78682  0.18862  0.63583  1.0000
  H   H2422     1.0  0.78621  0.16991  0.65590  1.0000
  H   H2423     1.0  0.81650  0.19148  0.61379  1.0000
  H   H2424     1.0  0.82068  0.16773  0.61132  1.0000
  H   H2425     1.0  0.83763  0.17577  0.61840  1.0000
  N   N157      1.0  0.86064  0.27418  0.58047  1.0000
  C   C1541     1.0  0.86158  0.29152  0.58542  1.0000
  C   C1542     1.0  0.85572  0.26044  0.59768  1.0000
  C   C1543     1.0  0.87891  0.26653  0.56980  1.0000
  C   C1544     1.0  0.84635  0.27825  0.56905  1.0000
  H   H2426     1.0  0.86473  0.30245  0.57277  1.0000
  H   H2427     1.0  0.87247  0.28905  0.59375  1.0000
  H   H2428     1.0  0.84812  0.29746  0.59379  1.0000
  H   H2429     1.0  0.85468  0.24721  0.59456  1.0000
  H   H2430     1.0  0.86640  0.25691  0.60642  1.0000
  H   H2431     1.0  0.84220  0.26588  0.60635  1.0000
  H   H2432     1.0  0.88306  0.27647  0.55665  1.0000
  H   H2433     1.0  0.87879  0.25334  0.56593  1.0000
  H   H2434     1.0  0.89005  0.26334  0.57799  1.0000
  H   H2435     1.0  0.84543  0.26555  0.56482  1.0000
  H   H2436     1.0  0.84944  0.28890  0.55613  1.0000
  H   H2437     1.0  0.83239  0.28393  0.57678  1.0000
  C   C1545     1.0  0.88658  0.13271  0.51775  1.0000
  C   C1546     1.0  0.71809  0.24889  0.50768  1.0000
  S   S612      1.0  0.66685  0.20464  0.51778  1.0000
  H   H2438     1.0  0.74325  0.28666  0.55247  1.0000
  H   H2439     1.0  0.89332  0.14270  0.50619  1.0000
  H   H2440     1.0  0.86799  0.12121  0.55234  1.0000
  H   H2441     1.0  0.85395  0.14014  0.50646  1.0000
  C   C1547     1.0  0.85644  0.15070  0.51295  1.0000
  H   H2442     1.0  0.97251  0.21686  0.54232  1.0000
  S   S613      1.0  0.82683  0.11824  0.50141  1.0000
  H   H2443     1.0  0.81841  0.03077  0.55385  1.0000
  H   H2444     1.0  0.86957  0.47306  0.72874  1.0000
  H   H2445     1.0  0.82188  0.07880  0.52861  1.0000
  H   H2446     1.0  0.83692  0.05981  0.57461  1.0000
  H   H2447     1.0  0.88540  0.12122  0.51173  1.0000
  C   C1548     1.0  0.83044  0.29692  0.69566  1.0000
  H   H2448     1.0  0.68795  0.24279  0.53420  1.0000
  H   H2449     1.0  0.83725  0.03759  0.53571  1.0000
  C   C1549     1.0  0.80514  0.06416  0.56355  1.0000
  H   H2450     1.0  0.83534  0.32391  0.66492  1.0000
  H   H2451     1.0  0.95166  0.20787  0.55160  1.0000
  H   H2452     1.0  0.67360  0.26511  0.52789  1.0000
  H   H2453     1.0  0.92667  0.19946  0.49609  1.0000
  H   H2454     1.0  0.84372  0.30168  0.69335  1.0000
  H   H2455     1.0  0.83340  0.28483  0.68876  1.0000
  H   H2456     1.0  0.86300  0.16104  0.50157  1.0000
  H   H2457     1.0  0.72006  0.15074  0.56628  1.0000
  C   C1550     1.0  0.98998  0.19135  0.52164  1.0000
  H   H2458     1.0  0.70654  0.19926  0.51510  1.0000
  H   H2459     1.0  0.71258  0.12827  0.59579  1.0000
  H   H2460     1.0  0.77667  0.37090  0.49688  1.0000
  S   S614      1.0  0.80058  0.99256  0.60810  1.0000
  H   H2461     1.0  0.69472  0.26327  0.53561  1.0000
  H   H2462     1.0  0.99201  0.22857  0.63863  1.0000
  C   C1551     1.0  0.68992  0.25062  0.49737  1.0000
  H   H2463     1.0  0.85715  0.16310  0.54330  1.0000
  H   H2464     1.0  0.97787  0.22317  0.57331  1.0000
  C   C1552     1.0  0.70620  0.16444  0.59743  1.0000
  C   C1553     1.0  0.83670  0.04952  0.56650  1.0000
  H   H2465     1.0  0.77698  0.27887  0.59242  1.0000
  H   H2466     1.0  0.74855  0.31388  0.56177  1.0000
  C   C1554     1.0  0.83068  0.07312  0.53931  1.0000
  C   C1555     1.0  0.96044  0.22512  0.63088  1.0000
  H   H2467     1.0  0.79511  0.07009  0.55403  1.0000
  C   C1556     1.0  0.68827  0.25753  0.52721  1.0000
  H   H2468     1.0  0.78624  0.03061  0.61133  1.0000
  H   H2469     1.0  0.67762  0.17057  0.68827  1.0000
  H   H2470     1.0  0.77060  0.16783  0.49934  1.0000
  H   H2471     1.0  0.87665  0.16760  0.52496  1.0000
  H   H2472     1.0  0.96195  0.24399  0.65573  1.0000
  H   H2473     1.0  0.67126  0.19333  0.69370  1.0000
  H   H2474     1.0  0.95663  0.18646  0.52046  1.0000
  H   H2475     1.0  0.94810  0.25811  0.60971  1.0000
  H   H2476     1.0  0.95785  0.21645  0.52710  1.0000
  H   H2477     1.0  0.81588  0.00113  0.64978  1.0000
  H   H2478     1.0  0.96384  0.21561  0.64397  1.0000
  C   C1557     1.0  0.99082  0.21932  0.57810  1.0000
  H   H2479     1.0  0.96934  0.17798  0.56678  1.0000
  C   C1558     1.0  0.76201  0.13947  0.49010  1.0000
  Fe  Fe306     1.0  0.67237  0.22562  0.63374  1.0000
  C   C1559     1.0  0.84607  0.43600  0.66175  1.0000
  C   C1560     1.0  0.66710  0.17958  0.69710  1.0000
  S   S615      1.0  0.77750  0.28388  0.49484  1.0000
  H   H2480     1.0  0.68401  0.28691  0.49900  1.0000
  H   H2481     1.0  0.83645  0.00163  0.66990  1.0000
  H   H2482     1.0  0.99426  0.25010  0.62219  1.0000
  H   H2483     1.0  0.79416  0.03759  0.48952  1.0000
  H   H2484     1.0  0.72632  0.24949  0.49328  1.0000
  H   H2485     1.0  0.70549  0.28535  0.50593  1.0000
  C   C1561     1.0  0.82323  0.99521  0.49482  1.0000
  H   H2486     1.0  0.86098  0.22786  0.49166  1.0000
  Fe  Fe307     1.0  0.78156  0.31310  0.49025  1.0000
  C   C1562     1.0  0.79963  0.02301  0.48924  1.0000
  S   S616      1.0  0.80490  0.08033  0.48905  1.0000
  S   S617      1.0  0.84736  0.38121  0.73866  1.0000
  Fe  Fe308     1.0  0.92199  0.44897  0.83036  1.0000
  S   S618      1.0  0.93075  0.42776  0.81238  1.0000
  H   H2487     1.0  0.81657  0.48540  0.98451  1.0000
  Fe  Fe309     1.0  0.91757  0.42072  0.86614  1.0000
  S   S619      1.0  0.92626  0.39642  0.85198  1.0000
  S   S620      1.0  0.90758  0.41781  0.89702  1.0000
  Fe  Fe310     1.0  0.94828  0.41155  0.83339  1.0000
  Fe  Fe311     1.0  0.90820  0.41422  0.83209  1.0000
  S   S621      1.0  0.88692  0.40203  0.82592  1.0000
  S   S622      1.0  0.94154  0.43391  0.84967  1.0000
  S   S623      1.0  0.89760  0.43719  0.84776  1.0000
  H   H2488     1.0  0.70760  0.40979  0.79084  1.0000
  S   S624      1.0  0.79090  0.42903  0.90168  1.0000
  Fe  Fe312     1.0  0.81548  0.46721  0.92866  1.0000
  H   H2489     1.0  0.87417  0.40055  0.90197  1.0000
  Fe  Fe313     1.0  0.70359  0.42112  0.87546  1.0000
  S   S625      1.0  0.70560  0.44877  0.85660  1.0000
  S   S626      1.0  0.71187  0.41500  0.90322  1.0000
  Fe  Fe314     1.0  0.68506  0.40900  0.85032  1.0000
  S   S627      1.0  0.68527  0.43615  0.82932  1.0000
  C   C1563     1.0  0.80190  0.47703  0.76631  1.0000
  Fe  Fe315     1.0  0.71423  0.43339  0.83335  1.0000
  S   S628      1.0  0.73547  0.44375  0.80872  1.0000
  Fe  Fe316     1.0  0.67668  0.44969  0.85415  1.0000
  H   H2490     1.0  0.85972  0.47682  0.94845  1.0000
  S   S629      1.0  0.71503  0.40530  0.85244  1.0000
  H   H2491     1.0  0.97655  0.36128  0.77965  1.0000
  C   C1564     1.0  0.71671  0.47185  0.89044  1.0000
  H   H2492     1.0  0.85830  0.44889  0.97414  1.0000
  C   C1565     1.0  0.90800  0.47851  0.77701  1.0000
  N   N158      1.0  0.73323  0.48002  0.88094  1.0000
  S   S630      1.0  0.80204  0.38374  0.77761  1.0000
  H   H2493     1.0  0.87592  0.47213  0.97465  1.0000
  H   H2494     1.0  0.75057  0.46084  0.89887  1.0000
  H   H2495     1.0  0.70667  0.47462  0.88109  1.0000
  S   S631      1.0  0.88583  0.40822  0.74147  1.0000
  H   H2496     1.0  0.75918  0.47592  0.98645  1.0000
  C   C1566     1.0  0.74605  0.47607  0.89393  1.0000
  C   C1567     1.0  0.99226  0.40150  0.83669  1.0000
  H   H2497     1.0  0.88165  0.40879  0.87756  1.0000
  H   H2498     1.0  0.99087  0.44166  0.84081  1.0000
  Fe  Fe317     1.0  0.77457  0.47329  0.94563  1.0000
  C   C1568     1.0  0.75457  0.42720  0.80084  1.0000
  C   C1569     1.0  0.76517  0.43174  0.78295  1.0000
  C   C1570     1.0  0.78005  0.41854  0.77596  1.0000
  C   C1571     1.0  0.78430  0.40069  0.78681  1.0000
  C   C1572     1.0  0.77394  0.39623  0.80486  1.0000
  C   C1573     1.0  0.75912  0.40953  0.81192  1.0000
  H   H2499     1.0  0.76163  0.44536  0.77432  1.0000
  H   H2500     1.0  0.78799  0.42206  0.76203  1.0000
  H   H2501     1.0  0.77742  0.38250  0.81337  1.0000
  H   H2502     1.0  0.75131  0.40616  0.82593  1.0000
  H   H2503     1.0  0.85657  0.43705  0.87855  1.0000
  C   C1574     1.0  0.98864  0.45691  0.83494  1.0000
  C   C1575     1.0  0.76904  0.48367  0.77911  1.0000
  C   C1576     1.0  0.95423  0.39460  0.78227  1.0000
  H   H2504     1.0  0.70337  0.37972  0.78659  1.0000
  S   S632      1.0  0.79989  0.47053  0.95707  1.0000
  S   S633      1.0  0.81854  0.43626  0.93490  1.0000
  C   C1577     1.0  0.76930  0.42404  0.90245  1.0000
  C   C1578     1.0  0.76534  0.42147  0.88628  1.0000
  C   C1579     1.0  0.74771  0.41864  0.88636  1.0000
  C   C1580     1.0  0.73420  0.41794  0.90276  1.0000
  C   C1581     1.0  0.73830  0.42018  0.91898  1.0000
  C   C1582     1.0  0.75576  0.42339  0.91880  1.0000
  H   H2505     1.0  0.77580  0.42193  0.87360  1.0000
  H   H2506     1.0  0.74462  0.41685  0.87381  1.0000
  H   H2507     1.0  0.72787  0.41959  0.93169  1.0000
  H   H2508     1.0  0.75876  0.42519  0.93136  1.0000
  H   H2509     1.0  0.66992  0.34804  0.84584  1.0000
  S   S634      1.0  0.77381  0.44286  0.95336  1.0000
  C   C1583     1.0  0.92940  0.47883  0.85149  1.0000
  H   H2510     1.0  0.86219  0.39363  0.77557  1.0000
  H   H2511     1.0  0.97363  0.46279  0.83950  1.0000
  H   H2512     1.0  0.79937  0.47197  0.75477  1.0000
  C   C1584     1.0  0.88612  0.40480  0.80238  1.0000
  C   C1585     1.0  0.87284  0.39779  0.79777  1.0000
  C   C1586     1.0  0.87241  0.39919  0.77905  1.0000
  C   C1587     1.0  0.88551  0.40730  0.76490  1.0000
  C   C1588     1.0  0.89872  0.41445  0.76949  1.0000
  C   C1589     1.0  0.89884  0.41344  0.78821  1.0000
  H   H2513     1.0  0.86291  0.39115  0.80868  1.0000
  C   C1590     1.0  0.86290  0.47958  0.98238  1.0000
  C   C1591     1.0  0.98484  0.40283  0.85525  1.0000
  H   H2514     1.0  0.90881  0.41924  0.79165  1.0000
  C   C1592     1.0  0.88965  0.43653  0.90235  1.0000
  C   C1593     1.0  0.88666  0.45296  0.88898  1.0000
  C   C1594     1.0  0.87106  0.46701  0.89250  1.0000
  C   C1595     1.0  0.85870  0.46491  0.90960  1.0000
  C   C1596     1.0  0.86208  0.44886  0.92335  1.0000
  C   C1597     1.0  0.87756  0.43466  0.91971  1.0000
  H   H2515     1.0  0.89631  0.45481  0.87587  1.0000
  H   H2516     1.0  0.69729  0.37183  0.81131  1.0000
  H   H2517     1.0  0.85268  0.44725  0.93671  1.0000
  H   H2518     1.0  0.87991  0.42203  0.93016  1.0000
  H   H2519     1.0  0.92579  0.37961  0.78146  1.0000
  C   C1598     1.0  0.84740  0.48457  0.95680  1.0000
  H   H2520     1.0  0.73326  0.39014  0.77259  1.0000
  H   H2521     1.0  0.75532  0.47746  0.85705  1.0000
  H   H2522     1.0  0.92630  0.38759  0.81103  1.0000
  H   H2523     1.0  0.94066  0.47638  0.87564  1.0000
  H   H2524     1.0  0.71600  0.35806  0.79786  1.0000
  H   H2525     1.0  0.73676  0.35828  0.81844  1.0000
  H   H2526     1.0  0.93630  0.35589  0.78960  1.0000
  S   S635      1.0  0.79020  0.47292  0.91654  1.0000
  H   H2527     1.0  0.88359  0.47707  0.75717  1.0000
  Fe  Fe318     1.0  0.80056  0.43991  0.96273  1.0000
  C   C1599     1.0  0.72948  0.37284  0.81917  1.0000
  H   H2528     1.0  0.82524  0.40316  0.89914  1.0000
  H   H2529     1.0  0.80434  0.46466  0.77773  1.0000
  S   S636      1.0  0.97801  0.39898  0.82270  1.0000
  N   N159      1.0  0.84634  0.47722  0.97699  1.0000
  H   H2530     1.0  0.99152  0.45881  0.81951  1.0000
  H   H2531     1.0  0.84345  0.38287  0.89869  1.0000
  C   C1600     1.0  0.87767  0.47978  0.77147  1.0000
  H   H2532     1.0  0.92324  0.46678  0.85743  1.0000
  H   H2533     1.0  0.70062  0.40178  0.81543  1.0000
  C   C1601     1.0  0.66904  0.48905  0.89994  1.0000
  Fe  Fe319     1.0  0.79185  0.44210  0.92489  1.0000
  N   N160      1.0  0.72243  0.38262  0.80197  1.0000
  H   H2534     1.0  0.97059  0.40158  0.86123  1.0000
  H   H2535     1.0  0.84110  0.39765  0.91467  1.0000
  S   S637      1.0  0.83866  0.48204  0.91341  1.0000
  N   N161      1.0  0.95034  0.37611  0.79240  1.0000
  H   H2536     1.0  0.70924  0.47761  0.90301  1.0000
  C   C1602     1.0  0.96808  0.36267  0.79369  1.0000
  C   C1603     1.0  0.93940  0.36985  0.78239  1.0000
  C   C1604     1.0  0.93967  0.37738  0.81137  1.0000
  C   C1605     1.0  0.84561  0.45722  0.98142  1.0000
  C   C1606     1.0  0.93884  0.48456  0.86200  1.0000
  Fe  Fe320     1.0  0.82017  0.39707  0.75198  1.0000
  H   H2537     1.0  0.96216  0.39989  0.78970  1.0000
  H   H2538     1.0  0.97660  0.36719  0.80116  1.0000
  H   H2539     1.0  0.94687  0.36898  0.76790  1.0000
  H   H2540     1.0  0.94770  0.38180  0.81936  1.0000
  H   H2541     1.0  0.96572  0.34860  0.80146  1.0000
  H   H2542     1.0  0.98146  0.46908  0.86687  1.0000
  H   H2543     1.0  0.72212  0.40969  0.80628  1.0000
  C   C1607     1.0  0.70923  0.37260  0.79927  1.0000
  S   S638      1.0  0.67887  0.38195  0.84742  1.0000
  H   H2544     1.0  0.74710  0.45638  0.86858  1.0000
  H   H2545     1.0  0.73945  0.37999  0.82170  1.0000
  H   H2546     1.0  0.86829  0.47925  0.88177  1.0000
  H   H2547     1.0  0.91466  0.47511  0.76312  1.0000
  H   H2548     1.0  0.79202  0.48586  0.80011  1.0000
  H   H2549     1.0  0.72051  0.45645  0.89505  1.0000
  S   S639      1.0  0.91877  0.47972  0.81934  1.0000
  H   H2550     1.0  0.85407  0.39452  0.86441  1.0000
  H   H2551     1.0  0.85913  0.41739  0.85632  1.0000
  H   H2552     1.0  0.90872  0.42091  0.75851  1.0000
  H   H2553     1.0  0.71798  0.37226  0.83163  1.0000
  H   H2554     1.0  0.83552  0.41460  0.86559  1.0000
  H   H2555     1.0  0.87612  0.38611  0.88579  1.0000
  H   H2556     1.0  0.83283  0.43458  0.88813  1.0000
  S   S640      1.0  0.67373  0.42295  0.87494  1.0000
  H   H2557     1.0  0.84943  0.42862  0.90299  1.0000
  C   C1608     1.0  0.74270  0.47176  0.86451  1.0000
  N   N162      1.0  0.85243  0.40881  0.88614  1.0000
  C   C1609     1.0  0.87191  0.40068  0.88796  1.0000
  C   C1610     1.0  0.85016  0.40883  0.86731  1.0000
  C   C1611     1.0  0.84758  0.42814  0.88904  1.0000
  C   C1612     1.0  0.84005  0.39760  0.90028  1.0000
  H   H2558     1.0  0.93625  0.36376  0.81940  1.0000
  C   C1613     1.0  0.71279  0.40181  0.80368  1.0000
  H   H2559     1.0  0.83490  0.48339  0.95239  1.0000
  H   H2560     1.0  0.77050  0.47129  0.79074  1.0000
  H   H2561     1.0  0.74799  0.39124  0.78722  1.0000
  S   S641      1.0  0.83174  0.42136  0.75250  1.0000
  C   C1614     1.0  0.73812  0.38324  0.78585  1.0000
  H   H2562     1.0  0.90784  0.46518  0.78746  1.0000
  H   H2563     1.0  0.74616  0.36904  0.78447  1.0000
  H   H2564     1.0  0.96257  0.39410  0.76801  1.0000
  H   H2565     1.0  0.75879  0.48183  0.88720  1.0000
  H   H2566     1.0  0.94118  0.40505  0.78081  1.0000
  H   H2567     1.0  0.87668  0.46612  0.78117  1.0000
  H   H2568     1.0  0.83353  0.45485  0.97715  1.0000
  H   H2569     1.0  0.73337  0.47447  0.85444  1.0000
  C   C1615     1.0  0.66539  0.48867  0.86911  1.0000
  H   H2570     1.0  0.81500  0.48246  0.76104  1.0000
  H   H2571     1.0  0.73935  0.48215  0.90647  1.0000
  H   H2572     1.0  0.88016  0.48035  0.80652  1.0000
  H   H2573     1.0  0.66787  0.48267  0.91459  1.0000
  C   C1616     1.0  0.66425  0.48040  0.88800  1.0000
  H   H2574     1.0  0.76568  0.47909  0.76771  1.0000
  H   H2575     1.0  0.91707  0.48599  0.78064  1.0000
  H   H2576     1.0  0.99005  0.40633  0.88068  1.0000
  H   H2577     1.0  0.86331  0.48803  0.77123  1.0000
  C   C1617     1.0  0.82948  0.48759  0.98740  1.0000
  N   N163      1.0  0.88907  0.48986  0.77702  1.0000
  C   C1618     1.0  0.76121  0.48992  0.98482  1.0000
  C   C1619     1.0  0.92761  0.48886  0.83357  1.0000
  H   H2578     1.0  0.66428  0.21267  0.97836  1.0000
  S   S642      1.0  0.80882  0.42041  0.98867  1.0000
  Fe  Fe321     1.0  0.81114  0.53422  0.16392  1.0000
  S   S643      1.0  0.83790  0.52742  0.14419  1.0000
  S   S644      1.0  0.79709  0.51233  0.18411  1.0000
  Fe  Fe322     1.0  0.80453  0.57473  0.14501  1.0000
  S   S645      1.0  0.83086  0.57156  0.12331  1.0000
  S   S646      1.0  0.78336  0.60144  0.14275  1.0000
  Fe  Fe323     1.0  0.82318  0.54544  0.12166  1.0000
  S   S647      1.0  0.82386  0.53395  0.09670  1.0000
  Fe  Fe324     1.0  0.84343  0.55395  0.14767  1.0000
  S   S648      1.0  0.87285  0.55180  0.15038  1.0000
  S   S649      1.0  0.79585  0.55011  0.14124  1.0000
  S   S650      1.0  0.81765  0.55928  0.16958  1.0000
  Fe  Fe325     1.0  0.91181  0.58518  0.21597  1.0000
  C   C1620     1.0  0.99058  0.55658  0.20548  1.0000
  S   S651      1.0  0.88746  0.59852  0.20186  1.0000
  H   H2579     1.0  0.90066  0.52564  0.19315  1.0000
  H   H2580     1.0  0.88490  0.51102  0.09532  1.0000
  H   H2581     1.0  0.98732  0.52739  0.23383  1.0000
  C   C1621     1.0  0.77511  0.52208  0.05391  1.0000
  H   H2582     1.0  0.78845  0.52357  0.04391  1.0000
  H   H2583     1.0  0.74164  0.56286  0.17687  1.0000
  H   H2584     1.0  0.71012  0.52909  0.19801  1.0000
  S   S652      1.0  0.94191  0.57719  0.20280  1.0000
  H   H2585     1.0  0.88873  0.49478  0.22514  1.0000
  H   H2586     1.0  0.84231  0.49330  0.10028  1.0000
  C   C1622     1.0  0.80204  0.60687  0.08945  1.0000
  S   S653      1.0  0.71310  0.60886  0.20839  1.0000
  C   C1623     1.0  0.82618  0.56877  0.03741  1.0000
  H   H2587     1.0  0.76926  0.63021  0.08644  1.0000
  C   C1624     1.0  0.76743  0.49525  0.15680  1.0000
  H   H2588     1.0  0.86802  0.49392  0.13564  1.0000
  C   C1625     1.0  0.81836  0.54206  0.06109  1.0000
  H   H2589     1.0  0.72271  0.56965  0.20711  1.0000
  H   H2590     1.0  0.79557  0.57259  0.09532  1.0000
  H   H2591     1.0  0.78233  0.58305  0.11451  1.0000
  H   H2592     1.0  0.77208  0.53259  0.06272  1.0000
  Fe  Fe326     1.0  0.94112  0.55044  0.22385  1.0000
  C   C1626     1.0  0.71718  0.55692  0.20896  1.0000
  N   N164      1.0  0.87508  0.51602  0.20540  1.0000
  H   H2593     1.0  0.79687  0.59141  0.06306  1.0000
  H   H2594     1.0  0.76803  0.61633  0.10959  1.0000
  H   H2595     1.0  0.77071  0.57900  0.09848  1.0000
  N   N165      1.0  0.78479  0.60207  0.08805  1.0000
  C   C1627     1.0  0.76862  0.61593  0.09484  1.0000
  H   H2596     1.0  0.74494  0.53235  0.22334  1.0000
  H   H2597     1.0  0.85893  0.54035  0.19089  1.0000
  H   H2598     1.0  0.75436  0.55018  0.20564  1.0000
  C   C1628     1.0  0.94133  0.50734  0.23113  1.0000
  H   H2599     1.0  0.86738  0.50821  0.23525  1.0000
  C   C1629     1.0  0.77355  0.51154  0.99466  1.0000
  H   H2600     1.0  0.74668  0.53968  0.17272  1.0000
  H   H2601     1.0  0.86441  0.51402  0.08604  1.0000
  H   H2602     1.0  0.81290  0.52944  0.06514  1.0000
  C   C1630     1.0  0.87994  0.50900  0.22401  1.0000
  C   C1631     1.0  0.73592  0.54998  0.17982  1.0000
  H   H2603     1.0  0.66969  0.63682  0.21917  1.0000
  H   H2604     1.0  0.86790  0.58352  0.99727  1.0000
  H   H2605     1.0  0.88794  0.51805  0.22693  1.0000
  H   H2606     1.0  0.81454  0.59673  0.08446  1.0000
  H   H2607     1.0  0.71952  0.51996  0.21878  1.0000
  S   S654      1.0  0.97030  0.60376  0.22001  1.0000
  H   H2608     1.0  0.97918  0.54979  0.20546  1.0000
  H   H2609     1.0  0.85092  0.53538  0.21558  1.0000
  H   H2610     1.0  0.72358  0.55356  0.17323  1.0000
  C   C1632     1.0  0.76426  0.60286  0.16147  1.0000
  C   C1633     1.0  0.74838  0.61653  0.15876  1.0000
  C   C1634     1.0  0.73286  0.61813  0.17328  1.0000
  C   C1635     1.0  0.73318  0.60634  0.19078  1.0000
  C   C1636     1.0  0.74917  0.59276  0.19364  1.0000
  C   C1637     1.0  0.76461  0.59082  0.17890  1.0000
  H   H2611     1.0  0.74804  0.62594  0.14539  1.0000
  H   H2612     1.0  0.72061  0.62869  0.17097  1.0000
  H   H2613     1.0  0.74972  0.58389  0.20720  1.0000
  H   H2614     1.0  0.77694  0.58037  0.18115  1.0000
  C   C1638     1.0  0.87687  0.56563  0.16390  1.0000
  C   C1639     1.0  0.89442  0.56214  0.16845  1.0000
  C   C1640     1.0  0.89768  0.57195  0.18034  1.0000
  C   C1641     1.0  0.88355  0.58575  0.18727  1.0000
  C   C1642     1.0  0.86608  0.58946  0.18248  1.0000
  C   C1643     1.0  0.86266  0.57927  0.17099  1.0000
  H   H2615     1.0  0.90550  0.55171  0.16287  1.0000
  H   H2616     1.0  0.91122  0.56910  0.18386  1.0000
  H   H2617     1.0  0.85514  0.60017  0.18776  1.0000
  H   H2618     1.0  0.84910  0.58208  0.16754  1.0000
  C   C1644     1.0  0.82478  0.54779  0.07409  1.0000
  C   C1645     1.0  0.83202  0.56404  0.06873  1.0000
  C   C1646     1.0  0.83278  0.57448  0.05037  1.0000
  H   H2619     1.0  0.83740  0.56829  0.07859  1.0000
  H   H2620     1.0  0.83854  0.58695  0.04617  1.0000
  H   H2621     1.0  0.78695  0.61585  0.05919  1.0000
  H   H2622     1.0  0.87148  0.54503  0.20580  1.0000
  C   C1647     1.0  0.67006  0.65191  0.21408  1.0000
  C   C1648     1.0  0.72308  0.52587  0.20358  1.0000
  H   H2623     1.0  0.71294  0.55164  0.22419  1.0000
  H   H2624     1.0  0.86234  0.51948  0.10815  1.0000
  Fe  Fe327     1.0  0.81981  0.56810  0.99491  1.0000
  S   S655      1.0  0.82698  0.58204  0.01453  1.0000
  C   C1649     1.0  0.87015  0.50950  0.09903  1.0000
  C   C1650     1.0  0.86361  0.53502  0.20442  1.0000
  N   N166      1.0  0.73106  0.54263  0.20008  1.0000
  S   S656      1.0  0.91050  0.55743  0.23503  1.0000
  H   H2625     1.0  0.80220  0.60683  0.10413  1.0000
  H   H2626     1.0  0.77218  0.59903  0.06679  1.0000
  H   H2627     1.0  0.80361  0.62096  0.08107  1.0000
  C   C1651     1.0  0.89232  0.51642  0.19108  1.0000
  H   H2628     1.0  0.70439  0.56128  0.20298  1.0000
  H   H2629     1.0  0.73291  0.51473  0.19702  1.0000
  C   C1652     1.0  0.81888  0.55258  0.04288  1.0000
  H   H2630     1.0  0.98452  0.56752  0.21382  1.0000
  H   H2631     1.0  0.76414  0.52562  0.04546  1.0000
  H   H2632     1.0  0.80518  0.49866  0.06593  1.0000
  H   H2633     1.0  0.76891  0.49250  0.04477  1.0000
  H   H2634     1.0  0.81360  0.54815  0.03308  1.0000
  S   S657      1.0  0.95602  0.52243  0.21799  1.0000
  Fe  Fe328     1.0  0.80276  0.53753  0.99192  1.0000
  S   S658      1.0  0.83067  0.53748  0.99682  1.0000
  Fe  Fe329     1.0  0.94773  0.58735  0.22579  1.0000
  S   S659      1.0  0.91768  0.59805  0.23708  1.0000
  H   H2635     1.0  0.75876  0.52703  0.20176  1.0000
  H   H2636     1.0  0.66868  0.65568  0.19923  1.0000
  S   S660      1.0  0.78717  0.51530  0.00836  1.0000
  H   H2637     1.0  0.75532  0.61263  0.09428  1.0000
  C   C1653     1.0  0.78328  0.58335  0.09955  1.0000
  C   C1654     1.0  0.74799  0.53784  0.20806  1.0000
  C   C1655     1.0  0.78520  0.60213  0.06842  1.0000
  C   C1656     1.0  0.80477  0.49497  0.15482  1.0000
  H   H2638     1.0  0.86071  0.50857  0.18807  1.0000
  H   H2639     1.0  0.90131  0.50230  0.19145  1.0000
  H   H2640     1.0  0.81917  0.49514  0.15390  1.0000
  H   H2641     1.0  0.74666  0.50484  0.07147  1.0000
  N   N167      1.0  0.77621  0.50298  0.06531  1.0000
  C   C1657     1.0  0.79124  0.50127  0.16938  1.0000
  C   C1658     1.0  0.98762  0.59580  0.23357  1.0000
  H   H2642     1.0  0.85139  0.50293  0.21258  1.0000
  H   H2643     1.0  0.75556  0.51106  0.08854  1.0000
  S   S661      1.0  0.79106  0.56769  0.99219  1.0000
  C   C1659     1.0  0.75852  0.50151  0.07872  1.0000
  C   C1660     1.0  0.86450  0.50365  0.20206  1.0000
  H   H2644     1.0  0.84023  0.49814  0.12264  1.0000
  H   H2645     1.0  0.78948  0.50867  0.08472  1.0000
  H   H2646     1.0  0.68414  0.65347  0.21454  1.0000
  H   H2647     1.0  0.75296  0.49555  0.15743  1.0000
  C   C1661     1.0  0.79144  0.49865  0.07557  1.0000
  H   H2648     1.0  0.88924  0.52169  0.17683  1.0000
  C   C1662     1.0  0.76916  0.49404  0.99772  1.0000
  C   C1663     1.0  0.77267  0.50080  0.17069  1.0000
  H   H2649     1.0  0.76231  0.50551  0.18197  1.0000
  C   C1664     1.0  0.94132  0.49133  0.22525  1.0000
  H   H2650     1.0  0.66996  0.68601  0.21859  1.0000
  Fe  Fe330     1.0  0.71337  0.59090  0.23709  1.0000
  S   S662      1.0  0.66627  0.82512  0.47888  1.0000
  H   H2651     1.0  0.78760  0.50673  0.29715  1.0000
  H   H2652     1.0  0.77376  0.81399  0.45188  1.0000
  S   S663      1.0  0.80000  0.89685  0.48229  1.0000
  C   C1665     1.0  0.68057  0.49239  0.26720  1.0000
  Fe  Fe331     1.0  0.88918  0.81889  0.47977  1.0000
  S   S664      1.0  0.88890  0.83285  0.44991  1.0000
  S   S665      1.0  0.71287  0.60291  0.26138  1.0000
  C   C1666     1.0  0.83889  0.82353  0.46190  1.0000
  H   H2653     1.0  0.99177  0.78286  0.46059  1.0000
  H   H2654     1.0  0.88037  0.89066  0.45877  1.0000
  Fe  Fe332     1.0  0.81306  0.91834  0.46022  1.0000
  S   S666      1.0  0.78600  0.93804  0.45659  1.0000
  S   S667      1.0  0.83479  0.91099  0.43566  1.0000
  H   H2655     1.0  0.82622  0.80173  0.44698  1.0000
  H   H2656     1.0  0.76453  0.53272  0.30774  1.0000
  H   H2657     1.0  0.78445  0.60854  0.28533  1.0000
  H   H2658     1.0  0.76509  0.51598  0.26540  1.0000
  S   S668      1.0  0.79226  0.72678  0.48122  1.0000
  C   C1667     1.0  0.75354  0.52484  0.30908  1.0000
  H   H2659     1.0  0.81125  0.64633  0.27265  1.0000
  Fe  Fe333     1.0  0.77343  0.91760  0.48050  1.0000
  Fe  Fe334     1.0  0.73219  0.57630  0.27081  1.0000
  S   S669      1.0  0.70974  0.56106  0.28734  1.0000
  S   S670      1.0  0.75896  0.57054  0.28092  1.0000
  Fe  Fe335     1.0  0.79103  0.95062  0.47833  1.0000
  Fe  Fe336     1.0  0.82582  0.60846  0.34619  1.0000
  S   S671      1.0  0.79853  0.62444  0.35896  1.0000
  S   S672      1.0  0.84343  0.62246  0.32055  1.0000
  Fe  Fe337     1.0  0.81848  0.57123  0.37005  1.0000
  S   S673      1.0  0.79086  0.58437  0.38508  1.0000
  S   S674      1.0  0.82759  0.53981  0.37565  1.0000
  Fe  Fe338     1.0  0.78672  0.60091  0.35687  1.0000
  S   S675      1.0  0.75934  0.60586  0.34784  1.0000
  Fe  Fe339     1.0  0.80524  0.60665  0.38607  1.0000
  S   S676      1.0  0.79637  0.61850  0.41235  1.0000
  S   S677      1.0  0.81348  0.58655  0.34176  1.0000
  S   S678      1.0  0.83354  0.59200  0.37341  1.0000
  Fe  Fe340     1.0  0.81895  0.72835  0.46055  1.0000
  H   H2660     1.0  0.90625  0.50438  0.26916  1.0000
  S   S679      1.0  0.82997  0.75483  0.45349  1.0000
  Fe  Fe341     1.0  0.82245  0.68945  0.45300  1.0000
  S   S680      1.0  0.79602  0.68524  0.47312  1.0000
  S   S681      1.0  0.83935  0.66740  0.43684  1.0000
  Fe  Fe342     1.0  0.78491  0.71475  0.46048  1.0000
  S   S682      1.0  0.75923  0.72396  0.44837  1.0000
  H   H2661     1.0  0.85374  0.83918  0.42735  1.0000
  H   H2662     1.0  0.74056  0.53531  0.30723  1.0000
  S   S683      1.0  0.81065  0.71835  0.43899  1.0000
  S   S684      1.0  0.83391  0.69984  0.47226  1.0000
  Fe  Fe343     1.0  0.71437  0.83776  0.45569  1.0000
  H   H2663     1.0  0.80098  0.61314  0.26403  1.0000
  S   S685      1.0  0.74292  0.84472  0.44600  1.0000
  Fe  Fe344     1.0  0.67662  0.83599  0.44845  1.0000
  C   C1668     1.0  0.74397  0.50254  0.29751  1.0000
  C   C1669     1.0  0.77627  0.49948  0.29801  1.0000
  H   H2664     1.0  0.94581  0.63352  0.26464  1.0000
  H   H2665     1.0  0.94609  0.81642  0.48593  1.0000
  H   H2666     1.0  0.82705  0.59505  0.27971  1.0000
  H   H2667     1.0  0.67133  0.66012  0.24632  1.0000
  S   S686      1.0  0.68780  0.85858  0.45387  1.0000
  S   S687      1.0  0.70443  0.81612  0.44718  1.0000
  C   C1670     1.0  0.74158  0.73768  0.46165  1.0000
  C   C1671     1.0  0.72926  0.75224  0.45280  1.0000
  C   C1672     1.0  0.71631  0.76456  0.46299  1.0000
  H   H2668     1.0  0.78499  0.63208  0.27323  1.0000
  H   H2669     1.0  0.89343  0.91662  0.47526  1.0000
  H   H2670     1.0  0.91229  0.61644  0.27105  1.0000
  H   H2671     1.0  0.73000  0.75427  0.43799  1.0000
  H   H2672     1.0  0.70685  0.77584  0.45612  1.0000
  C   C1673     1.0  0.81900  0.60022  0.29246  1.0000
  H   H2673     1.0  0.95346  0.58260  0.28595  1.0000
  C   C1674     1.0  0.94798  0.61813  0.26654  1.0000
  H   H2674     1.0  0.85412  0.81823  0.45787  1.0000
  H   H2675     1.0  0.78832  0.63943  0.30217  1.0000
  H   H2676     1.0  0.87375  0.49655  0.28915  1.0000
  C   C1675     1.0  0.86656  0.58826  0.32175  1.0000
  C   C1676     1.0  0.80935  0.63092  0.41935  1.0000
  C   C1677     1.0  0.80154  0.63832  0.43541  1.0000
  C   C1678     1.0  0.81060  0.64952  0.44083  1.0000
  C   C1679     1.0  0.82783  0.65307  0.43048  1.0000
  C   C1680     1.0  0.83599  0.64514  0.41476  1.0000
  C   C1681     1.0  0.82670  0.63425  0.40907  1.0000
  H   H2677     1.0  0.78824  0.63560  0.44354  1.0000
  H   H2678     1.0  0.80425  0.65527  0.45309  1.0000
  H   H2679     1.0  0.84938  0.64769  0.40673  1.0000
  H   H2680     1.0  0.83289  0.62852  0.39672  1.0000
  C   C1682     1.0  0.75838  0.58001  0.29991  1.0000
  C   C1683     1.0  0.74307  0.59303  0.30641  1.0000
  C   C1684     1.0  0.74343  0.60091  0.32119  1.0000
  C   C1685     1.0  0.75904  0.59572  0.32950  1.0000
  C   C1686     1.0  0.77410  0.58236  0.32321  1.0000
  C   C1687     1.0  0.77381  0.57457  0.30844  1.0000
  H   H2681     1.0  0.73108  0.59725  0.29989  1.0000
  H   H2682     1.0  0.73165  0.61117  0.32605  1.0000
  H   H2683     1.0  0.78595  0.57791  0.32977  1.0000
  H   H2684     1.0  0.78562  0.56435  0.30356  1.0000
  H   H2685     1.0  0.79461  0.77640  0.46956  1.0000
  H   H2686     1.0  0.74637  0.80521  0.47472  1.0000
  H   H2687     1.0  0.88533  0.56163  0.32258  1.0000
  Fe  Fe345     1.0  0.69026  0.58690  0.27580  1.0000
  C   C1688     1.0  0.80987  0.83672  0.45145  1.0000
  H   H2688     1.0  0.80265  0.84112  0.43944  1.0000
  H   H2689     1.0  0.86032  0.58512  0.33639  1.0000
  H   H2690     1.0  0.73956  0.79552  0.45886  1.0000
  H   H2691     1.0  0.85016  0.50722  0.29764  1.0000
  C   C1689     1.0  0.88068  0.57495  0.31392  1.0000
  S   S688      1.0  0.78313  0.98184  0.47654  1.0000
  H   H2692     1.0  0.77521  0.76939  0.48662  1.0000
  S   S689      1.0  0.90718  0.56232  0.28585  1.0000
  C   C1690     1.0  0.76131  0.55932  0.37460  1.0000
  C   C1691     1.0  0.83244  0.81318  0.43699  1.0000
  H   H2693     1.0  0.86984  0.91751  0.47411  1.0000
  C   C1692     1.0  0.79571  0.50945  0.35302  1.0000
  C   C1693     1.0  0.79429  0.52874  0.34724  1.0000
  C   C1694     1.0  0.80431  0.53795  0.35392  1.0000
  C   C1695     1.0  0.81598  0.52801  0.36628  1.0000
  C   C1696     1.0  0.98502  0.58307  0.25052  1.0000
  H   H2694     1.0  0.84746  0.80736  0.43238  1.0000
  H   H2695     1.0  0.78523  0.53667  0.33774  1.0000
  H   H2696     1.0  0.80280  0.55280  0.34970  1.0000
  C   C1697     1.0  0.89084  0.88463  0.46783  1.0000
  H   H2697     1.0  0.82921  0.60028  0.30074  1.0000
  C   C1698     1.0  0.74593  0.89095  0.47341  1.0000
  C   C1699     1.0  0.76160  0.88327  0.46141  1.0000
  C   C1700     1.0  0.76067  0.86912  0.45289  1.0000
  C   C1701     1.0  0.74417  0.86250  0.45652  1.0000
  C   C1702     1.0  0.72864  0.87009  0.46865  1.0000
  S   S690      1.0  0.73484  0.56594  0.24502  1.0000
  H   H2698     1.0  0.77427  0.88849  0.45843  1.0000
  H   H2699     1.0  0.77260  0.86356  0.44327  1.0000
  H   H2700     1.0  0.83235  0.84862  0.41905  1.0000
  Fe  Fe346     1.0  0.71120  0.55190  0.26100  1.0000
  H   H2701     1.0  0.88846  0.59890  0.26914  1.0000
  Fe  Fe347     1.0  0.67910  0.84640  0.48415  1.0000
  C   C1703     1.0  0.72949  0.88430  0.47696  1.0000
  C   C1704     1.0  0.81948  0.63205  0.27655  1.0000
  H   H2702     1.0  0.96298  0.61238  0.26665  1.0000
  C   C1705     1.0  0.84952  0.77062  0.46899  1.0000
  C   C1706     1.0  0.83742  0.75839  0.47228  1.0000
  H   H2703     1.0  0.82755  0.62750  0.26348  1.0000
  H   H2704     1.0  0.85261  0.65970  0.47886  1.0000
  C   C1707     1.0  0.77037  0.76997  0.45266  1.0000
  H   H2705     1.0  0.85482  0.77722  0.45488  1.0000
  H   H2706     1.0  0.80750  0.84915  0.45769  1.0000
  H   H2707     1.0  0.74747  0.49357  0.28705  1.0000
  C   C1708     1.0  0.87420  0.85481  0.44654  1.0000
  C   C1709     1.0  0.86094  0.86108  0.46130  1.0000
  C   C1710     1.0  0.84865  0.87829  0.45806  1.0000
  C   C1711     1.0  0.84984  0.88941  0.44012  1.0000
  C   C1712     1.0  0.86328  0.88324  0.42544  1.0000
  C   C1713     1.0  0.87536  0.86594  0.42863  1.0000
  H   H2708     1.0  0.86003  0.85270  0.47518  1.0000
  H   H2709     1.0  0.83837  0.88300  0.46945  1.0000
  H   H2710     1.0  0.86426  0.89183  0.41154  1.0000
  H   H2711     1.0  0.88561  0.86118  0.41716  1.0000
  H   H2712     1.0  0.71583  0.86521  0.47152  1.0000
  H   H2713     1.0  0.73814  0.56760  0.35039  1.0000
  H   H2714     1.0  0.95579  0.60702  0.30089  1.0000
  H   H2715     1.0  0.83303  0.81221  0.47248  1.0000
  H   H2716     1.0  0.93543  0.58656  0.27306  1.0000
  C   C1714     1.0  0.86892  0.60956  0.29180  1.0000
  C   C1715     1.0  0.86090  0.60569  0.31078  1.0000
  H   H2717     1.0  0.86446  0.62298  0.28322  1.0000
  C   C1716     1.0  0.88071  0.91107  0.48269  1.0000
  S   S691      1.0  0.74624  0.90881  0.48426  1.0000
  C   C1717     1.0  0.92924  0.51153  0.24743  1.0000
  H   H2718     1.0  0.97293  0.83208  0.47250  1.0000
  H   H2719     1.0  0.80295  0.82613  0.46205  1.0000
  H   H2720     1.0  0.75136  0.51646  0.32355  1.0000
  N   N168      1.0  0.82991  0.82936  0.44553  1.0000
  H   H2721     1.0  0.90396  0.88921  0.46002  1.0000
  H   H2722     1.0  0.99371  0.54504  0.24152  1.0000
  C   C1718     1.0  0.77963  0.78108  0.47540  1.0000
  H   H2723     1.0  0.83709  0.83534  0.46881  1.0000
  C   C1719     1.0  0.79389  0.61816  0.27710  1.0000
  N   N169      1.0  0.75882  0.51285  0.29521  1.0000
  C   C1720     1.0  0.86275  0.49754  0.30194  1.0000
  N   N170      1.0  0.80742  0.61896  0.28781  1.0000
  H   H2724     1.0  0.67236  0.81122  0.41774  1.0000
  C   C1721     1.0  0.97423  0.81950  0.48319  1.0000
  H   H2725     1.0  0.90695  0.61254  0.29601  1.0000
  H   H2726     1.0  0.91363  0.63390  0.28251  1.0000
  C   C1722     1.0  0.88879  0.57882  0.29498  1.0000
  C   C1723     1.0  0.76153  0.52450  0.27625  1.0000
  N   N171      1.0  0.76833  0.78626  0.46085  1.0000
  H   H2727     1.0  0.82592  0.81706  0.42455  1.0000
  H   H2728     1.0  0.74180  0.49331  0.31155  1.0000
  H   H2729     1.0  0.97243  0.57771  0.25533  1.0000
  Fe  Fe348     1.0  0.69466  0.80704  0.47807  1.0000
  H   H2730     1.0  0.89350  0.86918  0.46970  1.0000
  C   C1724     1.0  0.79735  0.62542  0.30513  1.0000
  H   H2731     1.0  0.85542  0.89071  0.48860  1.0000
  H   H2732     1.0  0.85539  0.62776  0.47454  1.0000
  H   H2733     1.0  0.86497  0.78303  0.48118  1.0000
  C   C1725     1.0  0.71542  0.76204  0.48210  1.0000
  H   H2734     1.0  0.74868  0.53494  0.27389  1.0000
  C   C1726     1.0  0.91607  0.50062  0.25700  1.0000
  H   H2735     1.0  0.94507  0.61522  0.25396  1.0000
  H   H2736     1.0  0.76576  0.75819  0.46345  1.0000
  H   H2737     1.0  0.93910  0.62861  0.29949  1.0000
  H   H2738     1.0  0.66577  0.49395  0.27257  1.0000
  H   H2739     1.0  0.72896  0.58062  0.36843  1.0000
  H   H2740     1.0  0.74344  0.78144  0.48095  1.0000
  H   H2741     1.0  0.76845  0.56141  0.35977  1.0000
  H   H2742     1.0  0.75862  0.57296  0.37879  1.0000
  H   H2743     1.0  0.68174  0.51970  0.27030  1.0000
  H   H2744     1.0  0.82714  0.50073  0.38100  1.0000
  S   S692      1.0  0.66633  0.60219  0.29422  1.0000
  N   N172      1.0  0.93606  0.60998  0.28380  1.0000
  H   H2745     1.0  0.78831  0.61578  0.31414  1.0000
  H   H2746     1.0  0.71725  0.89025  0.48601  1.0000
  S   S693      1.0  0.70644  0.82728  0.48638  1.0000
  C   C1727     1.0  0.83849  0.84406  0.43177  1.0000
  C   C1728     1.0  0.74860  0.79236  0.46923  1.0000
  H   H2747     1.0  0.77827  0.79299  0.48202  1.0000
  H   H2748     1.0  0.76183  0.77321  0.44180  1.0000
  S   S694      1.0  0.90051  0.78829  0.48852  1.0000
  H   H2749     1.0  0.76595  0.80630  0.43530  1.0000
  H   H2750     1.0  0.77278  0.53235  0.27389  1.0000
  C   C1729     1.0  0.80790  0.49925  0.36486  1.0000
  N   N173      1.0  0.77903  0.69273  0.40756  1.0000
  C   C1730     1.0  0.77625  0.71322  0.40439  1.0000
  C   C1731     1.0  0.76793  0.68768  0.39680  1.0000
  C   C1732     1.0  0.77304  0.68512  0.42760  1.0000
  C   C1733     1.0  0.79891  0.68487  0.40147  1.0000
  H   H2751     1.0  0.76143  0.71962  0.40914  1.0000
  H   H2752     1.0  0.78045  0.71953  0.38941  1.0000
  H   H2753     1.0  0.78451  0.71740  0.41232  1.0000
  H   H2754     1.0  0.76982  0.67225  0.39890  1.0000
  H   H2755     1.0  0.75284  0.69331  0.40113  1.0000
  H   H2756     1.0  0.77206  0.69318  0.38160  1.0000
  H   H2757     1.0  0.77415  0.66980  0.43042  1.0000
  H   H2758     1.0  0.75834  0.69142  0.43288  1.0000
  H   H2759     1.0  0.78162  0.68800  0.43610  1.0000
  H   H2760     1.0  0.80409  0.69073  0.38656  1.0000
  H   H2761     1.0  0.80137  0.66951  0.40303  1.0000
  H   H2762     1.0  0.80769  0.68772  0.40981  1.0000
  H   H2763     1.0  0.92973  0.58311  0.29788  1.0000
  H   H2764     1.0  0.82494  0.64945  0.47742  1.0000
  H   H2765     1.0  0.83650  0.85665  0.43761  1.0000
  H   H2766     1.0  0.81039  0.58990  0.30081  1.0000
  C   C1734     1.0  0.88260  0.59599  0.28383  1.0000
  N   N174      1.0  0.74390  0.55278  0.37726  1.0000
  C   C1735     1.0  0.74813  0.53448  0.37195  1.0000
  C   C1736     1.0  0.73453  0.55100  0.39705  1.0000
  C   C1737     1.0  0.73167  0.56641  0.36545  1.0000
  C   C1738     1.0  0.70875  0.50484  0.25922  1.0000
  H   H2767     1.0  0.75813  0.52407  0.37988  1.0000
  H   H2768     1.0  0.75453  0.53550  0.35692  1.0000
  H   H2769     1.0  0.73540  0.52873  0.37450  1.0000
  H   H2770     1.0  0.74351  0.54091  0.40628  1.0000
  H   H2771     1.0  0.73118  0.56461  0.40144  1.0000
  H   H2772     1.0  0.72130  0.54608  0.39966  1.0000
  H   H2773     1.0  0.71806  0.56238  0.36755  1.0000
  C   C1739     1.0  0.68958  0.50697  0.26593  1.0000
  H   H2774     1.0  0.77122  0.54925  0.38287  1.0000
  C   C1740     1.0  0.94101  0.61343  0.30012  1.0000
  S   S695      1.0  0.68956  0.57633  0.25082  1.0000
  C   C1741     1.0  0.81806  0.50855  0.37146  1.0000
  C   C1742     1.0  0.91638  0.61862  0.28333  1.0000
  Fe  Fe349     1.0  0.91855  0.56950  0.25517  1.0000
  H   H2775     1.0  0.93224  0.60744  0.31335  1.0000
  S   S696      1.0  0.94911  0.55987  0.24574  1.0000
  C   C1743     1.0  0.74062  0.73507  0.48079  1.0000
  C   C1744     1.0  0.93884  0.58969  0.28525  1.0000
  S   S697      1.0  0.72131  0.52194  0.25780  1.0000
  H   H2776     1.0  0.82967  0.63306  0.28443  1.0000
  H   H2777     1.0  0.78936  0.79728  0.43906  1.0000
  H   H2778     1.0  0.73054  0.51224  0.29564  1.0000
  S   S698      1.0  0.81923  0.93260  0.47990  1.0000
  C   C1745     1.0  0.85540  0.77379  0.48387  1.0000
  H   H2779     1.0  0.75007  0.72377  0.48768  1.0000
  S   S699      1.0  0.78102  0.49898  0.34613  1.0000
  H   H2780     1.0  0.86768  0.50405  0.31094  1.0000
  C   C1746     1.0  0.77472  0.80160  0.44611  1.0000
  H   H2781     1.0  0.78509  0.76494  0.44620  1.0000
  H   H2782     1.0  0.92990  0.52332  0.25261  1.0000
  H   H2783     1.0  0.80711  0.62635  0.31350  1.0000
  N   N175      1.0  0.88440  0.89052  0.48592  1.0000
  H   H2784     1.0  0.66475  0.79631  0.39564  1.0000
  Fe  Fe350     1.0  0.93214  0.83815  0.62990  1.0000
  S   S700      1.0  0.94231  0.80722  0.63485  1.0000
  S   S701      1.0  0.92350  0.85176  0.65464  1.0000
  Fe  Fe351     1.0  0.93665  0.84177  0.58827  1.0000
  S   S702      1.0  0.94644  0.81108  0.58975  1.0000
  S   S703      1.0  0.93196  0.86328  0.56258  1.0000
  Fe  Fe352     1.0  0.92394  0.80789  0.61545  1.0000
  S   S704      1.0  0.89950  0.79339  0.62443  1.0000
  Fe  Fe353     1.0  0.96385  0.81347  0.60896  1.0000
  S   S705      1.0  0.86388  0.51191  0.72885  1.0000
  S   S706      1.0  0.91269  0.83871  0.61199  1.0000
  S   S707      1.0  0.95523  0.84445  0.60575  1.0000
  H   H2785     1.0  0.87186  0.88065  0.54337  1.0000
  Fe  Fe354     1.0  0.84339  0.93578  0.58807  1.0000
  S   S708      1.0  0.81240  0.94495  0.59277  1.0000
  S   S709      1.0  0.86016  0.93333  0.55973  1.0000
  Fe  Fe355     1.0  0.84504  0.93216  0.62812  1.0000
  S   S710      1.0  0.81424  0.94141  0.63637  1.0000
  S   S711      1.0  0.86362  0.92700  0.64861  1.0000
  Fe  Fe356     1.0  0.81256  0.92251  0.61859  1.0000
  S   S712      1.0  0.79337  0.90222  0.63093  1.0000
  Fe  Fe357     1.0  0.81686  0.96304  0.60992  1.0000
  C   C1747     1.0  0.83810  0.91733  0.52453  1.0000
  S   S713      1.0  0.84331  0.91164  0.61231  1.0000
  S   S714      1.0  0.84788  0.95550  0.60315  1.0000
  C   C1748     1.0  0.83206  0.70140  0.52392  1.0000
  H   H2786     1.0  0.87490  0.65979  0.64864  1.0000
  C   C1749     1.0  0.80844  0.96304  0.53778  1.0000
  H   H2787     1.0  0.91148  0.62060  0.66483  1.0000
  H   H2788     1.0  0.92417  0.63582  0.64673  1.0000
  H   H2789     1.0  0.69739  0.91125  0.53199  1.0000
  H   H2790     1.0  0.89188  0.67958  0.65661  1.0000
  Fe  Fe358     1.0  0.87518  0.78927  0.51135  1.0000
  H   H2791     1.0  0.86353  0.65036  0.49871  1.0000
  H   H2792     1.0  0.67149  0.85160  0.69732  1.0000
  S   S715      1.0  0.84249  0.60815  0.73078  1.0000
  C   C1750     1.0  0.73261  0.90376  0.53768  1.0000
  Fe  Fe359     1.0  0.84569  0.67741  0.63354  1.0000
  S   S716      1.0  0.84960  0.69810  0.64814  1.0000
  S   S717      1.0  0.84377  0.64717  0.64561  1.0000
  Fe  Fe360     1.0  0.84861  0.70390  0.59568  1.0000
  S   S718      1.0  0.85217  0.72694  0.60717  1.0000
  S   S719      1.0  0.85312  0.70993  0.56433  1.0000
  Fe  Fe361     1.0  0.87155  0.70519  0.62300  1.0000
  S   S720      1.0  0.89977  0.71001  0.62282  1.0000
  Fe  Fe362     1.0  0.82982  0.71847  0.63115  1.0000
  S   S721      1.0  0.80999  0.74192  0.64323  1.0000
  S   S722      1.0  0.86971  0.68260  0.60983  1.0000
  S   S723      1.0  0.82416  0.69735  0.61822  1.0000
  Fe  Fe363     1.0  0.73475  0.85381  0.59835  1.0000
  S   S724      1.0  0.75472  0.87273  0.58230  1.0000
  Fe  Fe364     1.0  0.72911  0.81412  0.60764  1.0000
  S   S725      1.0  0.69889  0.82170  0.62052  1.0000
  S   S726      1.0  0.74111  0.78405  0.60585  1.0000
  Fe  Fe365     1.0  0.69797  0.84602  0.59635  1.0000
  H   H2793     1.0  0.79405  0.93584  0.56253  1.0000
  S   S727      1.0  0.72726  0.83679  0.58200  1.0000
  S   S728      1.0  0.73870  0.83047  0.62305  1.0000
  C   C1751     1.0  0.88370  0.86959  0.54596  1.0000
  C   C1752     1.0  0.84289  0.70665  0.53348  1.0000
  C   C1753     1.0  0.84034  0.70154  0.55293  1.0000
  C   C1754     1.0  0.82718  0.69071  0.56281  1.0000
  H   H2794     1.0  0.82519  0.68661  0.57783  1.0000
  C   C1755     1.0  0.79111  0.75347  0.63248  1.0000
  C   C1756     1.0  0.78192  0.74376  0.62547  1.0000
  C   C1757     1.0  0.76651  0.75328  0.61738  1.0000
  C   C1758     1.0  0.76040  0.77255  0.61608  1.0000
  C   C1759     1.0  0.76968  0.78223  0.62300  1.0000
  C   C1760     1.0  0.78484  0.77266  0.63142  1.0000
  H   H2795     1.0  0.78648  0.72886  0.62665  1.0000
  H   H2796     1.0  0.75924  0.74569  0.61221  1.0000
  H   H2797     1.0  0.76530  0.79708  0.62183  1.0000
  H   H2798     1.0  0.79189  0.78018  0.63692  1.0000
  C   C1761     1.0  0.84208  0.61888  0.70719  1.0000
  C   C1762     1.0  0.84123  0.63819  0.70149  1.0000
  C   C1763     1.0  0.84137  0.64713  0.68272  1.0000
  C   C1764     1.0  0.84258  0.63675  0.66948  1.0000
  C   C1765     1.0  0.84342  0.61746  0.67520  1.0000
  C   C1766     1.0  0.84311  0.60855  0.69398  1.0000
  H   H2799     1.0  0.84027  0.64630  0.71166  1.0000
  H   H2800     1.0  0.84042  0.66202  0.67852  1.0000
  H   H2801     1.0  0.84429  0.60934  0.66504  1.0000
  H   H2802     1.0  0.84376  0.59368  0.69821  1.0000
  H   H2803     1.0  0.76444  0.97258  0.56265  1.0000
  S   S729      1.0  0.81129  0.89709  0.52900  1.0000
  H   H2804     1.0  0.85315  0.71493  0.52577  1.0000
  C   C1767     1.0  0.78198  0.89516  0.61713  1.0000
  C   C1768     1.0  0.77076  0.88200  0.62571  1.0000
  C   C1769     1.0  0.76204  0.87538  0.61513  1.0000
  C   C1770     1.0  0.76464  0.88178  0.59585  1.0000
  C   C1771     1.0  0.77580  0.89506  0.58720  1.0000
  C   C1772     1.0  0.78435  0.90186  0.59786  1.0000
  H   H2805     1.0  0.76882  0.87685  0.64063  1.0000
  H   H2806     1.0  0.75341  0.86523  0.62193  1.0000
  H   H2807     1.0  0.77795  0.89994  0.57224  1.0000
  H   H2808     1.0  0.79307  0.91194  0.59122  1.0000
  H   H2809     1.0  0.69505  0.78468  0.65398  1.0000
  C   C1773     1.0  0.73305  0.87370  0.53209  1.0000
  H   H2810     1.0  0.88467  0.73071  0.53842  1.0000
  H   H2811     1.0  0.73997  0.90824  0.52313  1.0000
  S   S730      1.0  0.69626  0.84283  0.66390  1.0000
  H   H2812     1.0  0.81240  0.97947  0.64717  1.0000
  H   H2813     1.0  0.91252  0.66920  0.66597  1.0000
  C   C1774     1.0  0.84784  0.97514  0.64952  1.0000
  S   S731      1.0  0.90452  0.82778  0.49664  1.0000
  H   H2814     1.0  0.81502  0.89575  0.56559  1.0000
  C   C1775     1.0  0.83563  0.91160  0.56294  1.0000
  C   C1776     1.0  0.84789  0.92229  0.55069  1.0000
  C   C1777     1.0  0.84930  0.92505  0.53146  1.0000
  H   H2815     1.0  0.69833  0.88892  0.52727  1.0000
  H   H2816     1.0  0.83439  0.90948  0.57780  1.0000
  H   H2817     1.0  0.85858  0.93362  0.52201  1.0000
  C   C1778     1.0  0.90026  0.77034  0.62301  1.0000
  C   C1779     1.0  0.91697  0.75795  0.61843  1.0000
  C   C1780     1.0  0.91678  0.73942  0.61834  1.0000
  C   C1781     1.0  0.89991  0.73331  0.62264  1.0000
  C   C1782     1.0  0.88325  0.74580  0.62695  1.0000
  C   C1783     1.0  0.88345  0.76419  0.62721  1.0000
  H   H2818     1.0  0.93001  0.76257  0.61520  1.0000
  H   H2819     1.0  0.92973  0.72982  0.61501  1.0000
  H   H2820     1.0  0.87018  0.74121  0.63051  1.0000
  H   H2821     1.0  0.87048  0.77366  0.63084  1.0000
  C   C1784     1.0  0.90643  0.87229  0.65304  1.0000
  C   C1785     1.0  0.90705  0.88626  0.66175  1.0000
  C   C1786     1.0  0.89374  0.90290  0.66050  1.0000
  C   C1787     1.0  0.87948  0.90553  0.65086  1.0000
  C   C1788     1.0  0.87841  0.89123  0.64281  1.0000
  C   C1789     1.0  0.89202  0.87474  0.64363  1.0000
  H   H2822     1.0  0.91806  0.88436  0.66921  1.0000
  H   H2823     1.0  0.89459  0.91379  0.66691  1.0000
  H   H2824     1.0  0.86703  0.89277  0.63610  1.0000
  H   H2825     1.0  0.89116  0.86386  0.63726  1.0000
  H   H2826     1.0  0.92643  0.73847  0.55078  1.0000
  H   H2827     1.0  0.81586  0.95691  0.54959  1.0000
  H   H2828     1.0  0.83400  0.70568  0.50895  1.0000
  H   H2829     1.0  0.72406  0.91647  0.54258  1.0000
  H   H2830     1.0  0.82640  0.52182  0.72167  1.0000
  C   C1790     1.0  0.81653  0.68518  0.55319  1.0000
  C   C1791     1.0  0.81475  0.98663  0.65727  1.0000
  C   C1792     1.0  0.90420  0.66789  0.65636  1.0000
  H   H2831     1.0  0.88217  0.63396  0.68478  1.0000
  C   C1793     1.0  0.91417  0.84100  0.55300  1.0000
  C   C1794     1.0  0.91384  0.85896  0.55483  1.0000
  C   C1795     1.0  0.89873  0.87335  0.55099  1.0000
  H   H2832     1.0  0.92582  0.82984  0.55590  1.0000
  H   H2833     1.0  0.89845  0.88732  0.55216  1.0000
  H   H2834     1.0  0.69460  0.78892  0.68556  1.0000
  C   C1796     1.0  0.81885  0.69063  0.53373  1.0000
  H   H2835     1.0  0.80637  0.67679  0.56087  1.0000
  Fe  Fe366     1.0  0.70816  0.83978  0.63408  1.0000
  C   C1797     1.0  0.70694  0.89894  0.52711  1.0000
  H   H2836     1.0  0.69192  0.84328  0.52246  1.0000
  N   N176      1.0  0.90474  0.90730  0.58793  1.0000
  C   C1798     1.0  0.91223  0.91346  0.56790  1.0000
  C   C1799     1.0  0.92022  0.89793  0.59778  1.0000
  C   C1800     1.0  0.89244  0.89419  0.59028  1.0000
  C   C1801     1.0  0.89401  0.92370  0.59572  1.0000
  H   H2837     1.0  0.90087  0.92025  0.56001  1.0000
  H   H2838     1.0  0.92067  0.90154  0.56157  1.0000
  H   H2839     1.0  0.92131  0.92363  0.56559  1.0000
  H   H2840     1.0  0.91506  0.89328  0.61296  1.0000
  H   H2841     1.0  0.92845  0.88536  0.59232  1.0000
  H   H2842     1.0  0.92991  0.90732  0.59616  1.0000
  H   H2843     1.0  0.88594  0.88987  0.60511  1.0000
  H   H2844     1.0  0.90025  0.88125  0.58541  1.0000
  H   H2845     1.0  0.88107  0.90049  0.58233  1.0000
  H   H2846     1.0  0.90287  0.93380  0.59444  1.0000
  H   H2847     1.0  0.88783  0.91966  0.61074  1.0000
  H   H2848     1.0  0.88245  0.93114  0.58830  1.0000
  C   C1802     1.0  0.88437  0.85176  0.54349  1.0000
  H   H2849     1.0  0.71353  0.90380  0.51236  1.0000
  C   C1803     1.0  0.89996  0.71892  0.56910  1.0000
  H   H2850     1.0  0.81817  0.76807  0.54417  1.0000
  H   H2851     1.0  0.69568  0.84039  0.55499  1.0000
  S   S732      1.0  0.70521  0.86479  0.61082  1.0000
  H   H2852     1.0  0.76459  0.96887  0.53078  1.0000
  N   N177      1.0  0.72107  0.89028  0.53879  1.0000
  H   H2853     1.0  0.88848  0.71187  0.56991  1.0000
  H   H2854     1.0  0.91318  0.71004  0.56348  1.0000
  H   H2855     1.0  0.90034  0.71925  0.58360  1.0000
  C   C1804     1.0  0.68188  0.85166  0.53147  1.0000
  C   C1805     1.0  0.82910  0.95791  0.67543  1.0000
  N   N178      1.0  0.78854  0.96204  0.54347  1.0000
  H   H2856     1.0  0.89478  0.75096  0.52914  1.0000
  C   C1806     1.0  0.66656  0.86397  0.52493  1.0000
  C   C1807     1.0  0.82587  0.90657  0.53688  1.0000
  H   H2857     1.0  0.91268  0.67019  0.64197  1.0000
  C   C1808     1.0  0.83691  0.75266  0.50541  1.0000
  H   H2858     1.0  0.87690  0.76339  0.55695  1.0000
  C   C1809     1.0  0.71170  0.88467  0.55832  1.0000
  H   H2859     1.0  0.88304  0.63514  0.65186  1.0000
  H   H2860     1.0  0.91151  0.76090  0.54788  1.0000
  C   C1810     1.0  0.83142  0.50704  0.72231  1.0000
  S   S733      1.0  0.70022  0.77795  0.49483  1.0000
  H   H2861     1.0  0.86762  0.74276  0.56629  1.0000
  H   H2862     1.0  0.85059  0.98905  0.64170  1.0000
  C   C1811     1.0  0.88718  0.64735  0.68062  1.0000
  H   H2863     1.0  0.89567  0.65048  0.63380  1.0000
  H   H2864     1.0  0.72193  0.87859  0.56759  1.0000
  H   H2865     1.0  0.74384  0.86682  0.54066  1.0000
  C   C1812     1.0  0.91531  0.63454  0.66095  1.0000
  C   C1813     1.0  0.82475  0.90367  0.55603  1.0000
  N   N179      1.0  0.89861  0.64961  0.66159  1.0000
  N   N180      1.0  0.89232  0.80764  0.67688  1.0000
  C   C1814     1.0  0.87493  0.80779  0.69102  1.0000
  C   C1815     1.0  0.90663  0.81198  0.68433  1.0000
  C   C1816     1.0  0.88881  0.82184  0.66004  1.0000
  C   C1817     1.0  0.89889  0.78906  0.67203  1.0000
  H   H2866     1.0  0.86383  0.80471  0.68571  1.0000
  H   H2867     1.0  0.86963  0.82164  0.69497  1.0000
  H   H2868     1.0  0.87703  0.79720  0.70393  1.0000
  H   H2869     1.0  0.91997  0.81188  0.67400  1.0000
  H   H2870     1.0  0.90234  0.82615  0.68763  1.0000
  H   H2871     1.0  0.90955  0.80175  0.69721  1.0000
  H   H2872     1.0  0.90178  0.82230  0.64938  1.0000
  H   H2873     1.0  0.88361  0.83603  0.66315  1.0000
  H   H2874     1.0  0.87857  0.81876  0.65354  1.0000
  H   H2875     1.0  0.90183  0.77795  0.68434  1.0000
  H   H2876     1.0  0.91185  0.78856  0.66116  1.0000
  H   H2877     1.0  0.88846  0.78542  0.66622  1.0000
  N   N181      1.0  0.82232  0.84652  0.58222  1.0000
  C   C1818     1.0  0.80648  0.83726  0.59162  1.0000
  C   C1819     1.0  0.83982  0.83246  0.58087  1.0000
  C   C1820     1.0  0.82333  0.85979  0.59306  1.0000
  C   C1821     1.0  0.81964  0.85665  0.56333  1.0000
  H   H2878     1.0  0.79307  0.84758  0.59264  1.0000
  H   H2879     1.0  0.80783  0.82968  0.60604  1.0000
  H   H2880     1.0  0.80537  0.82709  0.58386  1.0000
  H   H2881     1.0  0.85205  0.83917  0.57455  1.0000
  H   H2882     1.0  0.84196  0.82401  0.59480  1.0000
  H   H2883     1.0  0.84005  0.82278  0.57193  1.0000
  H   H2884     1.0  0.83481  0.86743  0.58608  1.0000
  H   H2885     1.0  0.82566  0.85262  0.60730  1.0000
  H   H2886     1.0  0.81024  0.87032  0.59471  1.0000
  H   H2887     1.0  0.83111  0.86417  0.55589  1.0000
  H   H2888     1.0  0.80636  0.86714  0.56375  1.0000
  H   H2889     1.0  0.81934  0.84708  0.55452  1.0000
  S   S734      1.0  0.86277  0.81903  0.50104  1.0000
  H   H2890     1.0  0.74341  0.89757  0.54637  1.0000
  H   H2891     1.0  0.70208  0.75991  0.66126  1.0000
  N   N182      1.0  0.71843  0.77605  0.66761  1.0000
  C   C1822     1.0  0.72509  0.79364  0.65934  1.0000
  C   C1823     1.0  0.73456  0.76042  0.66918  1.0000
  C   C1824     1.0  0.70730  0.77311  0.65552  1.0000
  C   C1825     1.0  0.70681  0.77713  0.68628  1.0000
  C   C1826     1.0  0.96054  0.79434  0.50452  1.0000
  C   C1827     1.0  0.68405  0.85007  0.54985  1.0000
  H   H2892     1.0  0.71331  0.80577  0.65812  1.0000
  H   H2893     1.0  0.73010  0.74687  0.67541  1.0000
  H   H2894     1.0  0.74355  0.75925  0.65527  1.0000
  H   H2895     1.0  0.87572  0.91597  0.49607  1.0000
  H   H2896     1.0  0.84578  0.96778  0.63946  1.0000
  C   C1828     1.0  0.83455  0.98732  0.67745  1.0000
  H   H2897     1.0  0.81696  0.95847  0.68721  1.0000
  H   H2898     1.0  0.71478  0.77941  0.69573  1.0000
  H   H2899     1.0  0.70140  0.76414  0.69296  1.0000
  H   H2900     1.0  0.78630  0.96231  0.51567  1.0000
  C   C1829     1.0  0.87959  0.74910  0.56555  1.0000
  C   C1830     1.0  0.89659  0.73687  0.53838  1.0000
  H   H2901     1.0  0.90953  0.72825  0.53186  1.0000
  N   N183      1.0  0.89727  0.73790  0.55742  1.0000
  H   H2902     1.0  0.80671  0.50293  0.71597  1.0000
  C   C1831     1.0  0.88765  0.64869  0.64838  1.0000
  C   C1832     1.0  0.97743  0.78697  0.51060  1.0000
  C   C1833     1.0  0.66620  0.84180  0.69288  1.0000
  H   H2903     1.0  0.83206  0.74563  0.51944  1.0000
  H   H2904     1.0  0.79281  0.93399  0.53976  1.0000
  C   C1834     1.0  0.67073  0.86063  0.56167  1.0000
  N   N184      1.0  0.83155  0.97675  0.66492  1.0000
  H   H2905     1.0  0.78022  0.98478  0.52162  1.0000
  C   C1835     1.0  0.77949  0.97293  0.55811  1.0000
  Fe  Fe367     1.0  0.87897  0.82530  0.51879  1.0000
  N   N185      1.0  0.80189  0.75033  0.56528  1.0000
  C   C1836     1.0  0.79693  0.74235  0.55173  1.0000
  C   C1837     1.0  0.81943  0.75703  0.55695  1.0000
  C   C1838     1.0  0.80433  0.73585  0.58224  1.0000
  C   C1839     1.0  0.78693  0.76604  0.57025  1.0000
  H   H2906     1.0  0.78380  0.73705  0.55758  1.0000
  H   H2907     1.0  0.80793  0.73043  0.54775  1.0000
  H   H2908     1.0  0.79511  0.75284  0.53870  1.0000
  H   H2909     1.0  0.82690  0.94956  0.66634  1.0000
  H   H2910     1.0  0.82383  0.76284  0.56686  1.0000
  H   H2911     1.0  0.83099  0.74559  0.55281  1.0000
  H   H2912     1.0  0.79129  0.73069  0.58913  1.0000
  H   H2913     1.0  0.80865  0.74119  0.59255  1.0000
  H   H2914     1.0  0.81519  0.72362  0.57896  1.0000
  H   H2915     1.0  0.79006  0.77209  0.58079  1.0000
  H   H2916     1.0  0.77339  0.76156  0.57634  1.0000
  H   H2917     1.0  0.78488  0.77740  0.55787  1.0000
  C   C1840     1.0  0.85267  0.62306  0.49002  1.0000
  H   H2918     1.0  0.89506  0.88778  0.51043  1.0000
  S   S735      1.0  0.80524  0.68372  0.52196  1.0000
  Fe  Fe368     1.0  0.91361  0.79719  0.50750  1.0000
  H   H2919     1.0  0.83899  0.91961  0.50972  1.0000
  S   S736      1.0  0.86659  0.84760  0.53521  1.0000
  H   H2920     1.0  0.91361  0.74780  0.57090  1.0000
  S   S737      1.0  0.82502  0.55976  0.73361  1.0000
  H   H2921     1.0  0.92396  0.63482  0.67074  1.0000
  C   C1841     1.0  0.89966  0.83751  0.54688  1.0000
  H   H2922     1.0  0.90025  0.82370  0.54501  1.0000
  H   H2923     1.0  0.89509  0.64752  0.69109  1.0000
  H   H2924     1.0  0.87963  0.75032  0.57988  1.0000
  C   C1842     1.0  0.91286  0.74664  0.55674  1.0000
  S   S738      1.0  0.94186  0.78258  0.51401  1.0000
  C   C1843     1.0  0.66892  0.82225  0.67126  1.0000
  H   H2925     1.0  0.70338  0.87405  0.55977  1.0000
  H   H2926     1.0  0.87465  0.65874  0.68162  1.0000
  H   H2927     1.0  0.71564  0.77238  0.64126  1.0000
  H   H2928     1.0  0.82998  0.61953  0.52392  1.0000
  C   C1844     1.0  0.67584  0.83497  0.67681  1.0000
  C   C1845     1.0  0.82283  0.64392  0.49275  1.0000
  H   H2929     1.0  0.99198  0.82579  0.52193  1.0000
  H   H2930     1.0  0.73370  0.79634  0.66792  1.0000
  H   H2931     1.0  0.84164  0.94996  0.68117  1.0000
  H   H2932     1.0  0.98228  0.84591  0.55348  1.0000
  H   H2933     1.0  0.73366  0.79337  0.64515  1.0000
  S   S739      1.0  0.88906  0.79552  0.53126  1.0000
  Fe  Fe369     1.0  0.80379  0.91273  0.50175  1.0000
  H   H2934     1.0  0.74035  0.87753  0.51736  1.0000
  H   H2935     1.0  0.97871  0.77437  0.52126  1.0000
  H   H2936     1.0  0.86063  0.96704  0.65471  1.0000
  H   H2937     1.0  0.74342  0.76228  0.67800  1.0000
  H   H2938     1.0  0.81035  0.97770  0.53254  1.0000
  C   C1846     1.0  0.83713  0.63154  0.51962  1.0000
  C   C1847     1.0  0.78674  0.94240  0.55072  1.0000
  H   H2939     1.0  0.86276  0.88659  0.51028  1.0000
  H   H2940     1.0  0.72481  0.86324  0.53267  1.0000
  S   S740      1.0  0.85677  0.76823  0.52085  1.0000
  H   H2941     1.0  0.77196  0.94108  0.55575  1.0000
  C   C1848     1.0  0.77950  0.96984  0.52722  1.0000
  H   H2942     1.0  0.84609  0.61071  0.49343  1.0000
  H   H2943     1.0  0.81558  0.63209  0.49587  1.0000
  S   S741      1.0  0.77603  0.93184  0.50204  1.0000
  H   H2944     1.0  0.81327  0.65499  0.49973  1.0000
  H   H2945     1.0  0.70213  0.89671  0.56371  1.0000
  H   H2946     1.0  0.80206  0.98756  0.66843  1.0000
  H   H2947     1.0  0.82251  0.98882  0.68925  1.0000
  H   H2948     1.0  0.97256  0.82678  0.55309  1.0000
  H   H2949     1.0  0.84716  0.98029  0.68342  1.0000
  H   H2950     1.0  0.78584  0.96742  0.57066  1.0000
  H   H2951     1.0  0.98572  0.82689  0.62948  1.0000
  H   H2952     1.0  0.72662  0.74514  0.50586  1.0000
  C   C1849     1.0  0.84929  0.49871  0.72565  1.0000
  C   C1850     1.0  0.82030  0.49635  0.71906  1.0000
  H   H2953     1.0  0.81559  0.95531  0.52646  1.0000
  H   H2954     1.0  0.67621  0.81684  0.65899  1.0000
  H   H2955     1.0  0.82811  0.64277  0.52679  1.0000
  H   H2956     1.0  0.86899  0.86855  0.49732  1.0000
  H   H2957     1.0  0.78077  0.98779  0.55311  1.0000
  C   C1851     1.0  0.84921  0.76469  0.50211  1.0000
  C   C1852     1.0  0.86715  0.88384  0.49591  1.0000
  H   H2958     1.0  0.82178  0.73992  0.49319  1.0000
  H   H2959     1.0  0.83627  0.98837  0.49914  1.0000
  S   S742      1.0  0.67193  0.85900  0.58499  1.0000
  C   C1853     1.0  0.89890  0.88256  0.49727  1.0000
  H   H2960     1.0  0.98307  0.82588  0.57218  1.0000
  C   C1854     1.0  0.99264  0.79586  0.50305  1.0000
  H   H2961     1.0  0.90099  0.86709  0.50120  1.0000
  H   H2962     1.0  0.85028  0.62711  0.52500  1.0000
  H   H2963     1.0  0.86634  0.61841  0.49439  1.0000
  C   C1855     1.0  0.95898  0.81068  0.49081  1.0000
  C   C1856     1.0  0.72737  0.74713  0.49105  1.0000
  C   C1857     1.0  0.98429  0.83045  0.55683  1.0000
  C   C1858     1.0  0.83109  0.74941  0.49052  1.0000
  Fe  Fe370     1.0  0.80656  0.69749  0.49162  1.0000
  H   H2964     1.0  0.66337  0.84613  0.63252  1.0000
  H   H2965     1.0  0.84130  0.66577  0.50103  1.0000
  C   C1859     1.0  0.84995  0.65419  0.49421  1.0000
  N   N186      1.0  0.84066  0.63814  0.49917  1.0000
  S   S743      1.0  0.66275  0.86672  0.50226  1.0000
  C   C1860     1.0  0.81333  0.98507  0.48898  1.0000
  H   H2966     1.0  0.91249  0.88622  0.48971  1.0000
  H   H2967     1.0  0.99333  0.79697  0.54702  1.0000
  H   H2968     1.0  0.81877  0.97050  0.48871  1.0000
  C   C1861     1.0  0.99115  0.81208  0.48918  1.0000
  Fe  Fe371     1.0  0.93210  0.57548  0.86905  1.0000
  S   S744      1.0  0.94355  0.59233  0.84137  1.0000
  S   S745      1.0  0.90884  0.58784  0.89013  1.0000
  Fe  Fe372     1.0  0.95406  0.53914  0.85895  1.0000
  S   S746      1.0  0.96739  0.55264  0.83062  1.0000
  C   C1862     1.0  0.94552  0.50105  0.85504  1.0000
  Fe  Fe373     1.0  0.97089  0.57326  0.84546  1.0000
  H   H2969     1.0  0.88244  0.59528  0.76801  1.0000
  Fe  Fe374     1.0  0.93899  0.57020  0.82908  1.0000
  S   S747      1.0  0.92750  0.57616  0.80280  1.0000
  S   S748      1.0  0.95978  0.55815  0.87424  1.0000
  S   S749      1.0  0.92546  0.55504  0.85641  1.0000
  H   H2970     1.0  0.90331  0.55540  0.83251  1.0000
  Fe  Fe375     1.0  0.83887  0.54458  0.96572  1.0000
  S   S750      1.0  0.83022  0.57537  0.96397  1.0000
  S   S751      1.0  0.86658  0.53054  0.95128  1.0000
  H   H2971     1.0  0.89379  0.58289  0.94030  1.0000
  N   N187      1.0  0.88818  0.51778  0.88528  1.0000
  H   H2972     1.0  0.88729  0.55758  0.77239  1.0000
  Fe  Fe376     1.0  0.80261  0.57161  0.96137  1.0000
  S   S752      1.0  0.78920  0.58888  0.93752  1.0000
  C   C1863     1.0  0.88138  0.56107  0.97283  1.0000
  H   H2973     1.0  0.87430  0.51515  0.91402  1.0000
  S   S753      1.0  0.81211  0.54123  0.96098  1.0000
  H   H2974     1.0  0.90693  0.51957  0.90158  1.0000
  Fe  Fe377     1.0  0.70906  0.56790  0.90995  1.0000
  S   S754      1.0  0.71206  0.57099  0.93772  1.0000
  Fe  Fe378     1.0  0.72960  0.55539  0.87398  1.0000
  S   S755      1.0  0.70347  0.55424  0.86582  1.0000
  S   S756      1.0  0.75944  0.54468  0.86179  1.0000
  Fe  Fe379     1.0  0.69474  0.54112  0.89582  1.0000
  S   S757      1.0  0.71891  0.58366  0.88121  1.0000
  S   S758      1.0  0.72174  0.53994  0.90317  1.0000
  C   C1864     1.0  0.76550  0.54610  0.83758  1.0000
  C   C1865     1.0  0.78432  0.54345  0.82899  1.0000
  C   C1866     1.0  0.75731  0.55020  0.80756  1.0000
  C   C1867     1.0  0.75197  0.54948  0.82685  1.0000
  H   H2975     1.0  0.79484  0.54078  0.83722  1.0000
  H   H2976     1.0  0.74685  0.55285  0.79927  1.0000
  H   H2977     1.0  0.73743  0.55153  0.83338  1.0000
  C   C1868     1.0  0.76749  0.58437  0.93783  1.0000
  C   C1869     1.0  0.76067  0.58918  0.92130  1.0000
  C   C1870     1.0  0.74367  0.58508  0.92114  1.0000
  C   C1871     1.0  0.73325  0.57651  0.93762  1.0000
  C   C1872     1.0  0.73993  0.57198  0.95420  1.0000
  C   C1873     1.0  0.75712  0.57572  0.95427  1.0000
  H   H2978     1.0  0.76861  0.59597  0.90857  1.0000
  H   H2979     1.0  0.73854  0.58879  0.90834  1.0000
  H   H2980     1.0  0.73192  0.56538  0.96700  1.0000
  H   H2981     1.0  0.76218  0.57225  0.96711  1.0000
  Fe  Fe380     1.0  0.69182  0.58138  0.87561  1.0000
  H   H2982     1.0  0.87528  0.51241  0.86542  1.0000
  S   S759      1.0  0.83489  0.52838  0.77110  1.0000
  C   C1874     1.0  0.89078  0.55702  0.78551  1.0000
  C   C1875     1.0  0.78992  0.49763  0.78809  1.0000
  C   C1876     1.0  0.91011  0.56450  0.80280  1.0000
  H   H2983     1.0  0.94730  0.52484  0.83230  1.0000
  H   H2984     1.0  0.67387  0.53034  0.94527  1.0000
  C   C1877     1.0  0.89704  0.57126  0.90593  1.0000
  C   C1878     1.0  0.87780  0.57605  0.91210  1.0000
  C   C1879     1.0  0.86829  0.56337  0.92562  1.0000
  C   C1880     1.0  0.87805  0.54603  0.93336  1.0000
  C   C1881     1.0  0.89726  0.54115  0.92707  1.0000
  C   C1882     1.0  0.90672  0.55366  0.91320  1.0000
  H   H2985     1.0  0.87024  0.58961  0.90640  1.0000
  H   H2986     1.0  0.85341  0.56707  0.92997  1.0000
  H   H2987     1.0  0.90490  0.52776  0.93306  1.0000
  H   H2988     1.0  0.92161  0.54992  0.90852  1.0000
  H   H2989     1.0  0.67159  0.50694  0.97521  1.0000
  H   H2990     1.0  0.87738  0.54136  0.83202  1.0000
  H   H2991     1.0  0.79296  0.55771  0.91729  1.0000
  C   C1883     1.0  0.90137  0.58094  0.97363  1.0000
  H   H2992     1.0  0.76076  0.52828  0.91655  1.0000
  S   S760      1.0  0.78273  0.54900  0.77479  1.0000
  H   H2993     1.0  0.71751  0.51487  0.97606  1.0000
  C   C1884     1.0  0.88533  0.54779  0.81909  1.0000
  H   H2994     1.0  0.68232  0.67806  0.86554  1.0000
  H   H2995     1.0  0.85427  0.59074  0.97961  1.0000
  N   N188      1.0  0.78611  0.49147  0.77265  1.0000
  H   H2996     1.0  0.67759  0.54649  0.95723  1.0000
  H   H2997     1.0  0.91344  0.57149  0.77294  1.0000
  S   S761      1.0  0.67396  0.60455  0.85836  1.0000
  C   C1885     1.0  0.85358  0.59412  0.79772  1.0000
  H   H2998     1.0  0.84802  0.58300  0.79503  1.0000
  H   H2999     1.0  0.66554  0.55169  0.84966  1.0000
  C   C1886     1.0  0.75682  0.50361  0.96939  1.0000
  H   H3000     1.0  0.71408  0.50934  0.93816  1.0000
  H   H3001     1.0  0.79614  0.51395  0.75196  1.0000
  H   H3002     1.0  0.67746  0.66315  0.85313  1.0000
  C   C1887     1.0  0.90557  0.56490  0.78584  1.0000
  Fe  Fe381     1.0  0.84858  0.54882  0.77653  1.0000
  C   C1888     1.0  0.90696  0.51403  0.88938  1.0000
  S   S762      1.0  0.86434  0.55549  0.74730  1.0000
  H   H3003     1.0  0.89839  0.51588  0.76753  1.0000
  H   H3004     1.0  0.86944  0.61222  0.75220  1.0000
  C   C1889     1.0  0.72743  0.50039  0.87487  1.0000
  C   C1890     1.0  0.86808  0.59044  0.98238  1.0000
  C   C1891     1.0  0.68458  0.53490  0.94980  1.0000
  H   H3005     1.0  0.86905  0.58993  0.94681  1.0000
  C   C1892     1.0  0.89009  0.50776  0.76367  1.0000
  Fe  Fe382     1.0  0.83932  0.57803  0.74228  1.0000
  N   N189      1.0  0.85591  0.60924  0.78107  1.0000
  H   H3006     1.0  0.68273  0.52623  0.86838  1.0000
  S   S763      1.0  0.68111  0.56792  0.90508  1.0000
  H   H3007     1.0  0.91668  0.52055  0.87745  1.0000
  H   H3008     1.0  0.82786  0.62444  0.78774  1.0000
  H   H3009     1.0  0.69033  0.50015  0.98766  1.0000
  S   S764      1.0  0.75134  0.49725  0.95110  1.0000
  C   C1893     1.0  0.88096  0.53809  0.88105  1.0000
  H   H3010     1.0  0.77129  0.53916  0.97763  1.0000
  C   C1894     1.0  0.86822  0.60141  0.76527  1.0000
  H   H3011     1.0  0.79099  0.53471  0.88032  1.0000
  C   C1895     1.0  0.79388  0.52111  0.92607  1.0000
  C   C1896     1.0  0.87574  0.50905  0.90170  1.0000
  H   H3012     1.0  0.80915  0.51568  0.92375  1.0000
  H   H3013     1.0  0.86277  0.59027  0.76247  1.0000
  H   H3014     1.0  0.75576  0.53234  0.95568  1.0000
  H   H3015     1.0  0.67308  0.51160  0.84741  1.0000
  H   H3016     1.0  0.78721  0.51312  0.89561  1.0000
  H   H3017     1.0  0.86706  0.58741  0.80216  1.0000
  H   H3018     1.0  0.91315  0.57362  0.96431  1.0000
  C   C1897     1.0  0.75945  0.52166  0.96739  1.0000
  H   H3019     1.0  0.79001  0.52791  0.93827  1.0000
  C   C1898     1.0  0.76782  0.54033  0.91286  1.0000
  H   H3020     1.0  0.76302  0.54995  0.90039  1.0000
  H   H3021     1.0  0.81233  0.54662  0.90214  1.0000
  H   H3022     1.0  0.85539  0.62922  0.79694  1.0000
  H   H3023     1.0  0.88391  0.60473  0.94736  1.0000
  H   H3024     1.0  0.76283  0.54779  0.92457  1.0000
  C   C1899     1.0  0.90007  0.55570  0.81940  1.0000
  C   C1900     1.0  0.67556  0.50570  0.89294  1.0000
  C   C1901     1.0  0.83761  0.61837  0.77618  1.0000
  C   C1902     1.0  0.94248  0.51191  0.83768  1.0000
  H   H3025     1.0  0.79247  0.56113  0.89311  1.0000
  C   C1903     1.0  0.77614  0.54792  0.79894  1.0000
  C   C1904     1.0  0.79692  0.55063  0.90526  1.0000
  H   H3026     1.0  0.80418  0.54267  0.80318  1.0000
  S   S765      1.0  0.68186  0.51594  0.90821  1.0000
  S   S766      1.0  0.86057  0.54064  0.80251  1.0000
  N   N190      1.0  0.78825  0.53424  0.90938  1.0000
  H   H3027     1.0  0.89858  0.51622  0.85644  1.0000
  H   H3028     1.0  0.88847  0.50168  0.80020  1.0000
  H   H3029     1.0  0.84832  0.49955  0.95290  1.0000
  H   H3030     1.0  0.86654  0.54134  0.87857  1.0000
  H   H3031     1.0  0.82910  0.50281  0.98370  1.0000
  Fe  Fe383     1.0  0.84874  0.53670  0.74144  1.0000
  S   S767      1.0  0.95705  0.50829  0.86842  1.0000
  H   H3032     1.0  0.93199  0.51380  0.81313  1.0000
  H   H3033     1.0  0.88961  0.54506  0.86835  1.0000
  H   H3034     1.0  0.83101  0.60834  0.77295  1.0000
  H   H3035     1.0  0.86634  0.63460  0.77276  1.0000
  C   C1905     1.0  0.67726  0.51370  0.87395  1.0000
  C   C1906     1.0  0.78963  0.54453  0.80969  1.0000
  H   H3036     1.0  0.80955  0.51924  0.89084  1.0000
  H   H3037     1.0  0.83888  0.62970  0.76352  1.0000
  H   H3038     1.0  0.87814  0.61651  0.78881  1.0000
  N   N191      1.0  0.69528  0.51932  0.96150  1.0000
  H   H3039     1.0  0.71789  0.50384  0.86490  1.0000
  C   C1907     1.0  0.88249  0.58995  0.95023  1.0000
  H   H3040     1.0  0.78699  0.50894  0.93003  1.0000
  H   H3041     1.0  0.69383  0.49919  0.94661  1.0000
  C   C1908     1.0  0.88044  0.54874  0.80218  1.0000
  S   S768      1.0  0.82457  0.57256  0.77231  1.0000
  Fe  Fe384     1.0  0.81231  0.55264  0.76409  1.0000
  H   H3042     1.0  0.88083  0.54464  0.89267  1.0000
  H   H3043     1.0  0.88113  0.49381  0.90570  1.0000
  H   H3044     1.0  0.86798  0.56027  0.96995  1.0000
  H   H3045     1.0  0.84385  0.59938  0.80975  1.0000
  C   C1909     1.0  0.79432  0.52492  0.89333  1.0000
  C   C1910     1.0  0.67397  0.67765  0.85553  1.0000
  H   H3046     1.0  0.86608  0.50173  0.79650  1.0000
  H   H3047     1.0  0.80255  0.50386  0.78356  1.0000
  C   C1911     1.0  0.86430  0.62304  0.78506  1.0000
  C   C1912     1.0  0.76826  0.52551  0.97979  1.0000
  H   H3048     1.0  0.91292  0.49884  0.89241  1.0000
  H   H3049     1.0  0.67862  0.68694  0.84206  1.0000
  H   H3050     1.0  0.89469  0.49465  0.87167  1.0000
  C   C1913     1.0  0.88916  0.50994  0.86901  1.0000
  C   C1914     1.0  0.93371  0.50571  0.82684  1.0000
  H   H3051     1.0  0.86158  0.51092  0.89894  1.0000
  C   C1915     1.0  0.78357  0.50760  0.75704  1.0000
  C   C1916     1.0  0.70423  0.50435  0.95100  1.0000
  H   H3052     1.0  0.69386  0.54084  0.93706  1.0000
  H   H3053     1.0  0.90334  0.59548  0.97140  1.0000
  H   H3054     1.0  0.86374  0.49455  0.97940  1.0000
  C   C1917     1.0  0.88054  0.49351  0.79587  1.0000
  H   H3055     1.0  0.87602  0.51652  0.76331  1.0000
  C   C1918     1.0  0.68265  0.51202  0.97859  1.0000
  H   H3056     1.0  0.71995  0.50697  0.88691  1.0000
  H   H3057     1.0  0.73958  0.50710  0.86789  1.0000
  H   H3058     1.0  0.86921  0.60515  0.98073  1.0000
  C   C1919     1.0  0.67190  0.50536  0.86209  1.0000
  N   N192      1.0  0.88332  0.58061  0.96977  1.0000
  H   H3059     1.0  0.75684  0.49410  0.78416  1.0000
  H   H3060     1.0  0.71997  0.53079  0.95402  1.0000
  C   C1920     1.0  0.70966  0.52604  0.96657  1.0000
  H   H3061     1.0  0.77178  0.51881  0.76133  1.0000
  H   H3062     1.0  0.89261  0.55321  0.96350  1.0000
  H   H3063     1.0  0.78082  0.50351  0.74504  1.0000
  H   H3064     1.0  0.71238  0.49230  0.95944  1.0000
  H   H3065     1.0  0.66261  0.57647  0.84620  1.0000
  H   H3066     1.0  0.98238  0.49270  0.83721  1.0000
  H   H3067     1.0  0.89637  0.50565  0.74923  1.0000
  H   H3068     1.0  0.70357  0.53808  0.97354  1.0000
  H   H3069     1.0  0.67577  0.52296  0.98688  1.0000
  H   H3070     1.0  0.77825  0.50858  0.79314  1.0000
  H   H3071     1.0  0.90247  0.57402  0.98828  1.0000
  H   H3072     1.0  0.88178  0.55360  0.98747  1.0000
