data_image0
_chemical_formula_structural       CSFeS2FeS2FeSFeS3HC2HCNC3HC6H4CSC5H3C6H8C2HCH2NHCH5C3SH2SH5FeCH4SH2CH2C2HNC4H13SCHSHFeH5CFeH4C5H3CH3FeNSCH3SFeS2CSFeSFeS3FeS2FeS2FeSFeHS2Fe2S2FeSFeS3FeS2FeS2FeSFeS3C3H2C6H4CHC6H6C6H4C6H7C6H4C3NH2C3NCNHSH4CH3CNH2C2H8CHSH2CH3CHCNHNC4H12FeHCFeH2NCH3CHSNHNH2CH2CSH5NCH2CH3CSH2SCH2CHCSC4H2CH4C2H2CH3CH4CH6C5HC2H3CH2C2H4CH3CH3CH4CH3CH2Fe2CS3FeS2FeS2FeSFeS4CH2C6H4C6H4C2HNC2H2CHCH5C6H5CH2SH5SHCH2FeCHC2HCNCH3CH3SHC2HCFeH3CSH2SCH3CH2NC2NC3H9CHSHCHC2HSHCH2CHCH2SHCH5CH2NC2H7CH2NH6CHFeHCH3CSHFeS2FeS2FeSFeHS2C4H3C6H4C6H5SHNHCNH2CH4SHCHSHC2H2CHCH2C2H5NHC3SH4CHCNH4CH3FeS2FeS2FeSFeS3FeS2FeS2FeSFeS3H4SH3FeCSFeSC2S2HFeS2FeS2FeSFeS3FeS2FeS2FeHFeS3H4C6H5C3H6C5H4CH2CH7CHC6H4C6H4C2H2CH3CHC6H4CHNHC3H3C6H4C6H4NC4H11NC2HC2H5CHCH2NH2CH5C2HC3H4NHFeH2NCH2C3H7NH3NCHCH2CHC2H2CH3CH7CH3CNCH6NCHC2H3CH6C2H2CHC3FeHSCHC2HFeHCFeS2FeS2FeSH2S3H2C7H4C6H3SC6SH4CH2CHFeCHFe2HFeHCH2FeH3CH3NH2CSHCH3CS2H2SH3NH3SC2FeH3SC2HSHCH3SCNC2H3FeSFeS2FeSFeS3FeSCFeS2FeSFeS3FeS2HFeHFeS2NFeS2CH4S2CHCH6CHC4H4CFeS2C7H4C2HC3H4C6H4C2HCHCHS2HC6H5NC4H17FeH5CHCH2CH2NSCHCSCHCHCH3FeH2CSC2H3CH8NHCNHC2H3CHCH4CH2CHNFeCHFeS2FeSFeS2FeS2FeS2Fe2S3C4H2NHNC2H2CH3C6H4C4H5CH3CHC2H2CHCHCSCHSH5CH11CH2FeSHFeSHFeSFeS3FeSCFeS2FeSFeS3FeS2FeS2FeSFeHS2FeHSH2C3HS2CSHC3HFeCHC6H4C6H4C6H4C6H4CHCH2NH2CH2CH6CHNC2SH3C2H2SH4CS2H2NH2CH4C3HCFeHCH2C2HNC4H18C3H9CH3C3HCH2C2H4NH2CHNH3CH2CHC4H2NFeS2FeS2FeSFeHS2FeS2FeSCFeSFeS3HFeSHFeSFeSFeS3H2FeS2Fe2HS2NH2CHCHC6H4C6H4CFeC3H2C4HSH2CSC6H4C3SH4C7H4NC4H17SCH3CH4NC2H6CHCH7CH5C2H5C3NHNH3C2H3CHSCH4C2H3SNCHSH3CH2CH2C2H3CHNCH3CH3C2HN2FeS2FeS2FeSFeS3FeSCFeS2FeS2CH2C3HC8H5CHCHC4H4CHC4NC2H2NHC3H3CHNH3NCH3CH3CH6CSNH3CH2CHSH2CHCH3CFeH2SH5C2HSH5C4H4C2SH3CH2CHCHCH2C2HCHCH8CH2C2H3CHC2HFeS2FeS2FeSFeS3FeS2FeSCFeSFeS3FeSHFeS2FeSHS2FeHSCH4CS2H3C5HCH6C6H4C6H5CHC6H4CH2CHCH4C3H3NCH4NH3FeCH2C2HCH3C2H3FeHSCH2C4H3CSHCH4NH2CH4CH2SNCHC2H2CH4C2HCHCSHCH7SHFeS2FeS2FeSFeS3FeS2FeS2FeSFeS3HFeS2FeSFeNSH3CHSHCHNCH2C2SFeC3SH2C2HCFeCH4C6H4C2H3C6H4CH2C4H3C6H4SH4NC4H13CHCH2SH4CHCHCH4CH7C2H3C2H4CHC2H2CNH2C2HCH3CNH2SC2HNHCHC2NC4HFeCH3SCH7CH2CH4CH3FeS2FeS2FeSFeHS2FeS2FeSHFeHFeHS2H2CHC7H5CH2CH2C3H2SNH3C4H3CHCHCHNCH4C3H9SH3C2H2FeSHFeS2FeSFeS4CFeS2FeS2FeSFeS3FeS2FeS2FeHFeS3NHC3H2CH2C6H4CH3C2HNH4CHC7H4C8H4CHCH2CHC2HCH2C2H3CH4CH2CH2S2CNC4H12NC4H3FeC2H5SHCH3NH5FeC2S2H3CH3CHCH6SNHCNH2CH2CH2CH6CHCHCH5C2H2CHFeS2FeS2FeSFeS3CFeS2FeS2FeSFeS3HC2HFeS2FeSFeSFeS3HCHC3H6C4HCH5C7H4C6H3C3HC6H6C4H3C3H2C6H5CHCHSH3CHC4H7CHC3H6CHCH3NC4H12NCH3NH2CHCH5CHS2CH2NCH3CHCH3NC4H4CH2CHNH2CHNH5NCH2CH3CH2CH3C2H2C2H3CH2NCH3C2H3NH5SCH4CHSH3FeS2FeSFeSFeS3FeS2FeS2FeSFeS3C2HCHC4H4C2HSC2HCH2C6H5C2H2C2H6C2H2NSCHCNH2CHCNC4H13C3H2CHCH3CH2CH2CHC3H4NH9CHCH3CH2FeS2FeS2FeSFeS3HSCFeS2FeS2FeSH2SHFeS2FeSFeSFeS3HSH4CHC2H2N2HC6H4C6HCH2C6H4C4HCH2CH4C5H7NH2CH2CH2CFeSH4CH4C2HCHC3H3CH5C4HCFeC2H3C2HNC4H12NHCH5CH2CHNCH13CH2CNH4C2HCSHSCFeSFeSH2SFeS2FeS2FeSFeS3C6H4CHC5H4C6H4CHCH2C2H3NCHC2H6NC2H2SH2CH2SH7CSCH2NCH2C3NCHCH3NHC2H2CH18NC3HC2HC3HC2HSHCH4Fe2C2H2FeCSFeCSC3S2FeSHFeS2FeSFeS3FeS2FeS2FeHFeS3FeSCFeS2FeNFeS2FeS2FeS2FeSFeS3NHCH3C2H3C6H4C6H4C6H4C6H7CHC3H5C6H4CH3C2H4CHC3H6SCH8C2H5CHNH2SH5CH2CSH2CHSH3C2H5C2NH6C3SHNCHCHC4NCH4CNH10C2H2CH3CHC2SCHC4NCH5CHCH8CHCH6CHNCHSHCSNHFeSHFeHSFeH2CHS2FeS2FeS2FeSFeHS4C6H4CH3C6H7CH2C6H5CH2C2FeNC4H12CSHCHC2H2CHNH2CHCHNC4H12NHC4H5SH4SCH2NHCHFeHS2H2SNH2CH2CFeH3SH2CHCH2CH3Fe2S2FeS2FeS2FeSHFeSFeS3H2SHSHC7H4CHFeC6H4CHC3H5CSHCHC3H3CHNH2CH3CH7SH5FeS2FeSCFeSFeS3FeSHFeS2FeSFeS3CHCHSCFeCFeSFeS2FeS2FeSFeS3FeS2FeS2FeSFeS3C6H4C6H5C2H3C2H5CHC3SH5CH2C2H5C6H4C6H4C6H4C5NH4C6H4NHCH4CH2CHSH2CHNC4HFeCH2SCH4CNC4H12N2H2S2H4C3H2CH2FeH5SHSCNCHCNC3H13NHC2H10C3H3CHCHSHCH7CHNH8C2HCNH6CSHCH4CH3CHSNHFeSFeH2SH2NFeSFeSFeS2FeS2FeSCHS2C6H4C6H5FeCH5SH2CH2FeCHFeCNCH3SHCS2H3CHSH7CFeH3CH2CHCHC5H
_chemical_formula_sum              "C1440 S576 Fe288 H2304 N144"
_cell_length_a       72.6164
_cell_length_b       71.7585
_cell_length_c       71.9244
_cell_angle_alpha    81.0685
_cell_angle_beta     81.2736
_cell_angle_gamma    81.2004

_space_group_name_H-M_alt    "P 1"
_space_group_IT_number       1

loop_
  _space_group_symop_operation_xyz
  'x, y, z'

loop_
  _atom_site_type_symbol
  _atom_site_label
  _atom_site_symmetry_multiplicity
  _atom_site_fract_x
  _atom_site_fract_y
  _atom_site_fract_z
  _atom_site_occupancy
  C   C1        1.0  0.05793  0.40089  0.24980  1.0000
  S   S1        1.0  0.21807  0.39097  0.12875  1.0000
  Fe  Fe1       1.0  0.10617  0.40132  0.15040  1.0000
  S   S2        1.0  0.11068  0.40767  0.17880  1.0000
  S   S3        1.0  0.12951  0.40066  0.12530  1.0000
  Fe  Fe2       1.0  0.06490  0.39410  0.16422  1.0000
  S   S4        1.0  0.06685  0.39968  0.19354  1.0000
  S   S5        1.0  0.03858  0.38212  0.16046  1.0000
  Fe  Fe3       1.0  0.08177  0.42414  0.17927  1.0000
  S   S6        1.0  0.07190  0.45160  0.19135  1.0000
  Fe  Fe4       1.0  0.09531  0.38277  0.19054  1.0000
  S   S7        1.0  0.10338  0.36107  0.21493  1.0000
  S   S8        1.0  0.07803  0.41999  0.14975  1.0000
  S   S9        1.0  0.09265  0.37498  0.16222  1.0000
  H   H1        1.0  0.19598  0.39386  0.09713  1.0000
  C   C2        1.0  0.01543  0.39455  0.16197  1.0000
  C   C3        1.0  0.99914  0.41133  0.32277  1.0000
  H   H2        1.0  0.06304  0.39496  0.23624  1.0000
  C   C4        1.0  0.24007  0.48306  0.12126  1.0000
  N   N1        1.0  0.13893  0.45063  0.27215  1.0000
  C   C5        1.0  0.01169  0.41339  0.15346  1.0000
  C   C6        1.0  0.04573  0.43142  0.23374  1.0000
  C   C7        1.0  0.02542  0.39400  0.30491  1.0000
  H   H3        1.0  0.02324  0.42108  0.14690  1.0000
  C   C8        1.0  0.10734  0.37183  0.23401  1.0000
  C   C9        1.0  0.10000  0.36515  0.25261  1.0000
  C   C10       1.0  0.10346  0.37348  0.26797  1.0000
  C   C11       1.0  0.11489  0.38797  0.26475  1.0000
  C   C12       1.0  0.12233  0.39452  0.24617  1.0000
  C   C13       1.0  0.11823  0.38675  0.23079  1.0000
  H   H4        1.0  0.09165  0.35352  0.25513  1.0000
  H   H5        1.0  0.09788  0.36822  0.28232  1.0000
  H   H6        1.0  0.13132  0.40561  0.24361  1.0000
  H   H7        1.0  0.12411  0.39182  0.21651  1.0000
  C   C14       1.0  0.11514  0.47854  0.21439  1.0000
  S   S10       1.0  0.03105  0.42822  0.31395  1.0000
  C   C15       1.0  0.08375  0.47960  0.20629  1.0000
  C   C16       1.0  0.08865  0.46159  0.20044  1.0000
  C   C17       1.0  0.10667  0.45187  0.20204  1.0000
  C   C18       1.0  0.11989  0.46030  0.20907  1.0000
  C   C19       1.0  0.12654  0.44833  0.25837  1.0000
  H   H8        1.0  0.05853  0.48751  0.17039  1.0000
  H   H9        1.0  0.11054  0.43793  0.19779  1.0000
  H   H10       1.0  0.13397  0.45291  0.20979  1.0000
  C   C20       1.0  0.19351  0.39491  0.12714  1.0000
  C   C21       1.0  0.18075  0.39687  0.14377  1.0000
  C   C22       1.0  0.16116  0.39929  0.14333  1.0000
  C   C23       1.0  0.15405  0.39929  0.12630  1.0000
  C   C24       1.0  0.16678  0.39747  0.10965  1.0000
  C   C25       1.0  0.18639  0.39541  0.11002  1.0000
  H   H11       1.0  0.18611  0.39666  0.15705  1.0000
  H   H12       1.0  0.15156  0.40105  0.15615  1.0000
  H   H13       1.0  0.16147  0.39749  0.09638  1.0000
  H   H14       1.0  0.04343  0.39734  0.25466  1.0000
  H   H15       1.0  0.15494  0.47178  0.27723  1.0000
  H   H16       1.0  0.06705  0.39320  0.26044  1.0000
  H   H17       1.0  0.08299  0.42033  0.22653  1.0000
  H   H18       1.0  0.02215  0.48559  0.31239  1.0000
  C   C26       1.0  0.00025  0.38464  0.17013  1.0000
  C   C27       1.0  0.01454  0.37941  0.30499  1.0000
  H   H19       1.0  0.07898  0.47783  0.15592  1.0000
  C   C28       1.0  0.07786  0.42566  0.24041  1.0000
  H   H20       1.0  0.13386  0.48119  0.26677  1.0000
  H   H21       1.0  0.11467  0.46013  0.25760  1.0000
  N   N2        1.0  0.05847  0.42165  0.24748  1.0000
  H   H22       1.0  0.13440  0.44839  0.24385  1.0000
  C   C29       1.0  0.05236  0.42865  0.26601  1.0000
  H   H23       1.0  0.06151  0.42144  0.27681  1.0000
  H   H24       1.0  0.22651  0.41627  0.00203  1.0000
  H   H25       1.0  0.04978  0.42635  0.21966  1.0000
  H   H26       1.0  0.05728  0.48539  0.14613  1.0000
  H   H27       1.0  0.15397  0.47066  0.25259  1.0000
  C   C30       1.0  0.12830  0.44941  0.29142  1.0000
  C   C31       1.0  0.01764  0.41000  0.31374  1.0000
  C   C32       1.0  0.15511  0.43537  0.27169  1.0000
  S   S11       1.0  0.07366  0.38598  0.32138  1.0000
  H   H28       1.0  0.24298  0.46551  0.03373  1.0000
  H   H29       1.0  0.00302  0.37004  0.17667  1.0000
  S   S12       1.0  0.12069  0.39781  0.28361  1.0000
  H   H30       1.0  0.04617  0.44708  0.23128  1.0000
  H   H31       1.0  0.03092  0.42898  0.23868  1.0000
  H   H32       1.0  0.04830  0.46145  0.32246  1.0000
  H   H33       1.0  0.05274  0.44424  0.26488  1.0000
  H   H34       1.0  0.03974  0.39293  0.29791  1.0000
  Fe  Fe5       1.0  0.09929  0.40024  0.30949  1.0000
  C   C33       1.0  0.14576  0.46937  0.26704  1.0000
  H   H35       1.0  0.16347  0.43590  0.25735  1.0000
  H   H36       1.0  0.10261  0.49720  0.32183  1.0000
  H   H37       1.0  0.08778  0.41877  0.25057  1.0000
  H   H38       1.0  0.07874  0.44122  0.23816  1.0000
  S   S13       1.0  0.08356  0.42953  0.30807  1.0000
  H   H39       1.0  0.03772  0.42599  0.27172  1.0000
  H   H40       1.0  0.24161  0.47329  0.13472  1.0000
  C   C34       1.0  0.09707  0.48821  0.21297  1.0000
  H   H41       1.0  0.16465  0.43651  0.28207  1.0000
  H   H42       1.0  0.12049  0.43471  0.26217  1.0000
  C   C35       1.0  0.06643  0.48892  0.15580  1.0000
  C   C36       1.0  0.99612  0.38058  0.31438  1.0000
  H   H43       1.0  0.15040  0.42103  0.27528  1.0000
  N   N3        1.0  0.14895  0.34575  0.17162  1.0000
  C   C37       1.0  0.13307  0.33503  0.17964  1.0000
  C   C38       1.0  0.16690  0.33317  0.17335  1.0000
  C   C39       1.0  0.14821  0.36202  0.18215  1.0000
  C   C40       1.0  0.14764  0.35281  0.15135  1.0000
  H   H44       1.0  0.13314  0.32255  0.17218  1.0000
  H   H45       1.0  0.11932  0.34414  0.17851  1.0000
  H   H46       1.0  0.13339  0.32982  0.19503  1.0000
  H   H47       1.0  0.17915  0.34092  0.16744  1.0000
  H   H48       1.0  0.16837  0.32760  0.18846  1.0000
  H   H49       1.0  0.16798  0.32077  0.16549  1.0000
  H   H50       1.0  0.16016  0.37028  0.17675  1.0000
  H   H51       1.0  0.14859  0.35728  0.19761  1.0000
  H   H52       1.0  0.13498  0.37192  0.18084  1.0000
  H   H53       1.0  0.14734  0.34103  0.14307  1.0000
  H   H54       1.0  0.15982  0.36030  0.14463  1.0000
  H   H55       1.0  0.13470  0.36310  0.14948  1.0000
  H   H56       1.0  0.12354  0.43517  0.29595  1.0000
  S   S14       1.0  0.13182  0.48933  0.22262  1.0000
  C   C41       1.0  0.02400  0.49394  0.32364  1.0000
  H   H57       1.0  0.13696  0.45162  0.30219  1.0000
  S   S15       1.0  0.24050  0.40873  0.07486  1.0000
  H   H58       1.0  0.11558  0.46026  0.29218  1.0000
  Fe  Fe6       1.0  0.05904  0.41573  0.32266  1.0000
  H   H59       1.0  0.02047  0.36711  0.29802  1.0000
  H   H60       1.0  0.06969  0.48699  0.20545  1.0000
  H   H61       1.0  0.23741  0.48822  0.01958  1.0000
  H   H62       1.0  0.22837  0.47915  0.11491  1.0000
  H   H63       1.0  0.24061  0.40345  0.03163  1.0000
  C   C42       1.0  0.23703  0.40386  0.00224  1.0000
  Fe  Fe7       1.0  0.24246  0.39372  0.10457  1.0000
  H   H64       1.0  0.01885  0.34414  0.33043  1.0000
  H   H65       1.0  0.21992  0.49727  0.15152  1.0000
  H   H66       1.0  0.06022  0.48063  0.32587  1.0000
  H   H67       1.0  0.09509  0.49908  0.12976  1.0000
  C   C43       1.0  0.24500  0.39663  0.01900  1.0000
  C   C44       1.0  0.04996  0.47084  0.33289  1.0000
  C   C45       1.0  0.02865  0.18406  0.39023  1.0000
  C   C46       1.0  0.01834  0.25386  0.58387  1.0000
  C   C47       1.0  0.05334  0.16358  0.40529  1.0000
  H   H68       1.0  0.13330  0.19962  0.54907  1.0000
  H   H69       1.0  0.04333  0.19861  0.61032  1.0000
  H   H70       1.0  0.13113  0.05011  0.54648  1.0000
  C   C48       1.0  0.18312  0.09615  0.64875  1.0000
  H   H71       1.0  0.15367  0.31502  0.64739  1.0000
  H   H72       1.0  0.04008  0.48422  0.36658  1.0000
  H   H73       1.0  0.23402  0.00515  0.65149  1.0000
  Fe  Fe8       1.0  0.08158  0.38882  0.34985  1.0000
  N   N4        1.0  0.03174  0.48145  0.33977  1.0000
  S   S16       1.0  0.07613  0.36686  0.37607  1.0000
  C   C49       1.0  0.00001  0.21655  0.63014  1.0000
  H   H74       1.0  0.16745  0.33373  0.63713  1.0000
  H   H75       1.0  0.03962  0.37322  0.62984  1.0000
  H   H76       1.0  0.99974  0.26302  0.64472  1.0000
  S   S17       1.0  0.06509  0.41814  0.35168  1.0000
  Fe  Fe9       1.0  0.16101  0.08289  0.60945  1.0000
  S   S18       1.0  0.19107  0.08672  0.59841  1.0000
  S   S19       1.0  0.13925  0.10582  0.62168  1.0000
  C   C50       1.0  0.23023  0.06530  0.44650  1.0000
  S   S20       1.0  0.19828  0.04048  0.59489  1.0000
  Fe  Fe10      1.0  0.19855  0.05923  0.61688  1.0000
  S   S21       1.0  0.22092  0.05175  0.63618  1.0000
  Fe  Fe11      1.0  0.18796  0.06765  0.57743  1.0000
  S   S22       1.0  0.20138  0.07168  0.54721  1.0000
  S   S23       1.0  0.16889  0.05662  0.62979  1.0000
  S   S24       1.0  0.15727  0.06549  0.58708  1.0000
  Fe  Fe12      1.0  0.14998  0.06166  0.46812  1.0000
  S   S25       1.0  0.13063  0.06978  0.44586  1.0000
  S   S26       1.0  0.13876  0.06408  0.49855  1.0000
  Fe  Fe13      1.0  0.18417  0.05167  0.43978  1.0000
  S   S27       1.0  0.16745  0.05911  0.41519  1.0000
  S   S28       1.0  0.21426  0.03804  0.43354  1.0000
  Fe  Fe14      1.0  0.15408  0.08490  0.42920  1.0000
  S   S29       1.0  0.15302  0.11486  0.41269  1.0000
  Fe  Fe15      1.0  0.14578  0.04329  0.43421  1.0000
  H   H77       1.0  0.03321  0.33931  0.38662  1.0000
  S   S30       1.0  0.17253  0.07841  0.45249  1.0000
  S   S31       1.0  0.16333  0.03422  0.45790  1.0000
  Fe  Fe16      1.0  0.09228  0.25599  0.61729  1.0000
  Fe  Fe17      1.0  0.07729  0.25110  0.58101  1.0000
  S   S32       1.0  0.07291  0.22082  0.59111  1.0000
  S   S33       1.0  0.06537  0.26383  0.55397  1.0000
  Fe  Fe18      1.0  0.06139  0.23124  0.61899  1.0000
  S   S34       1.0  0.03308  0.22709  0.63587  1.0000
  Fe  Fe19      1.0  0.10127  0.21767  0.60112  1.0000
  S   S35       1.0  0.12474  0.19468  0.59156  1.0000
  S   S36       1.0  0.06361  0.26187  0.60811  1.0000
  S   S37       1.0  0.10644  0.24773  0.58899  1.0000
  Fe  Fe20      1.0  0.08567  0.25591  0.41254  1.0000
  S   S38       1.0  0.06506  0.23477  0.41529  1.0000
  S   S39       1.0  0.09286  0.27601  0.38533  1.0000
  Fe  Fe21      1.0  0.09359  0.24413  0.45324  1.0000
  S   S40       1.0  0.07322  0.22281  0.45972  1.0000
  S   S41       1.0  0.11151  0.24951  0.47438  1.0000
  Fe  Fe22      1.0  0.08567  0.21390  0.43129  1.0000
  S   S42       1.0  0.08722  0.18189  0.43136  1.0000
  Fe  Fe23      1.0  0.05433  0.24484  0.44339  1.0000
  S   S43       1.0  0.02341  0.25317  0.45181  1.0000
  S   S44       1.0  0.10747  0.23396  0.42581  1.0000
  S   S45       1.0  0.07349  0.26725  0.43968  1.0000
  C   C51       1.0  0.00944  0.23512  0.45234  1.0000
  C   C52       1.0  0.01684  0.21596  0.45611  1.0000
  C   C53       1.0  0.02461  0.33459  0.34253  1.0000
  H   H78       1.0  0.03130  0.21216  0.45879  1.0000
  H   H79       1.0  0.04169  0.23486  0.55838  1.0000
  C   C54       1.0  0.07852  0.25936  0.53214  1.0000
  C   C55       1.0  0.06902  0.25940  0.51656  1.0000
  C   C56       1.0  0.07908  0.25615  0.49885  1.0000
  C   C57       1.0  0.09872  0.25332  0.49653  1.0000
  C   C58       1.0  0.10826  0.25346  0.51207  1.0000
  C   C59       1.0  0.09816  0.25619  0.52995  1.0000
  H   H80       1.0  0.05383  0.26196  0.51813  1.0000
  H   H81       1.0  0.07162  0.25611  0.48692  1.0000
  H   H82       1.0  0.12347  0.25142  0.51027  1.0000
  H   H83       1.0  0.10556  0.25637  0.54188  1.0000
  C   C60       1.0  0.01964  0.21373  0.62601  1.0000
  H   H84       1.0  0.23917  0.08706  0.38052  1.0000
  C   C61       1.0  0.13521  0.13355  0.41909  1.0000
  C   C62       1.0  0.11835  0.12978  0.43027  1.0000
  C   C63       1.0  0.10400  0.14481  0.43411  1.0000
  C   C64       1.0  0.10648  0.16383  0.42725  1.0000
  C   C65       1.0  0.12350  0.16769  0.41641  1.0000
  C   C66       1.0  0.13771  0.15259  0.41218  1.0000
  H   H85       1.0  0.11618  0.11523  0.43563  1.0000
  H   H86       1.0  0.09089  0.14163  0.44247  1.0000
  H   H87       1.0  0.12554  0.18223  0.41087  1.0000
  H   H88       1.0  0.15066  0.15567  0.40345  1.0000
  H   H89       1.0  0.12476  0.21817  0.53139  1.0000
  H   H90       1.0  0.09576  0.18895  0.56846  1.0000
  C   C67       1.0  0.13497  0.13034  0.61257  1.0000
  C   C68       1.0  0.12044  0.14210  0.62209  1.0000
  C   C69       1.0  0.11697  0.16178  0.61579  1.0000
  C   C70       1.0  0.12817  0.16996  0.60000  1.0000
  C   C71       1.0  0.14270  0.15820  0.59047  1.0000
  C   C72       1.0  0.14603  0.13849  0.59663  1.0000
  H   H91       1.0  0.11178  0.13593  0.63441  1.0000
  H   H92       1.0  0.10573  0.17062  0.62326  1.0000
  H   H93       1.0  0.15145  0.16438  0.57824  1.0000
  H   H94       1.0  0.15719  0.12964  0.58910  1.0000
  C   C73       1.0  0.18448  0.07200  0.53219  1.0000
  C   C74       1.0  0.18938  0.06378  0.51540  1.0000
  C   C75       1.0  0.17540  0.06194  0.50456  1.0000
  C   C76       1.0  0.15658  0.06841  0.51052  1.0000
  C   C77       1.0  0.15182  0.07737  0.52684  1.0000
  C   C78       1.0  0.16577  0.07921  0.53764  1.0000
  H   H95       1.0  0.20388  0.05829  0.51110  1.0000
  H   H96       1.0  0.17914  0.05502  0.49193  1.0000
  H   H97       1.0  0.13732  0.08280  0.53118  1.0000
  H   H98       1.0  0.16206  0.08628  0.55014  1.0000
  H   H99       1.0  0.01108  0.18692  0.46003  1.0000
  H   H100      1.0  0.03943  0.38249  0.65148  1.0000
  H   H101      1.0  0.04320  0.15435  0.41375  1.0000
  C   C79       1.0  0.08069  0.34164  0.37806  1.0000
  C   C80       1.0  0.09013  0.33214  0.36308  1.0000
  C   C81       1.0  0.09362  0.31206  0.36548  1.0000
  C   C82       1.0  0.08759  0.30125  0.38278  1.0000
  C   C83       1.0  0.07779  0.31076  0.39761  1.0000
  C   C84       1.0  0.07450  0.33082  0.39530  1.0000
  H   H102      1.0  0.09498  0.34024  0.34973  1.0000
  H   H103      1.0  0.10116  0.30486  0.35389  1.0000
  H   H104      1.0  0.07270  0.30268  0.41085  1.0000
  H   H105      1.0  0.06703  0.33802  0.40693  1.0000
  C   C85       1.0  0.08424  0.47604  0.36480  1.0000
  C   C86       1.0  0.09325  0.47767  0.34611  1.0000
  C   C87       1.0  0.99750  0.19517  0.60785  1.0000
  N   N5        1.0  0.10784  0.19535  0.53935  1.0000
  H   H106      1.0  0.08250  0.46211  0.37256  1.0000
  H   H107      1.0  0.21368  0.10029  0.42617  1.0000
  C   C88       1.0  0.08379  0.33766  0.64079  1.0000
  C   C89       1.0  0.09400  0.29842  0.63787  1.0000
  C   C90       1.0  0.09025  0.32519  0.65609  1.0000
  N   N6        1.0  0.14317  0.02102  0.55328  1.0000
  C   C91       1.0  0.18666  0.12446  0.62624  1.0000
  N   N7        1.0  0.18374  0.11688  0.64662  1.0000
  H   H108      1.0  0.23114  0.07059  0.40051  1.0000
  S   S46       1.0  0.15543  0.01198  0.61372  1.0000
  H   H109      1.0  0.00805  0.26603  0.58827  1.0000
  H   H110      1.0  0.05643  0.46163  0.34477  1.0000
  H   H111      1.0  0.15492  0.00473  0.53061  1.0000
  H   H112      1.0  0.14851  0.02961  0.52320  1.0000
  C   C92       1.0  0.03716  0.19108  0.41923  1.0000
  H   H113      1.0  0.04858  0.19083  0.42802  1.0000
  H   H114      1.0  0.12143  0.19495  0.51064  1.0000
  H   H115      1.0  0.15917  0.36571  0.64756  1.0000
  C   C93       1.0  0.11758  0.18496  0.52367  1.0000
  N   N8        1.0  0.21333  0.09739  0.39691  1.0000
  H   H116      1.0  0.22146  0.11959  0.37486  1.0000
  H   H117      1.0  0.01882  0.24254  0.59629  1.0000
  C   C94       1.0  0.02820  0.20120  0.61321  1.0000
  C   C95       1.0  0.09050  0.20695  0.53350  1.0000
  H   H118      1.0  0.08052  0.19789  0.53038  1.0000
  H   H119      1.0  0.08314  0.21550  0.54477  1.0000
  H   H120      1.0  0.09367  0.21710  0.52044  1.0000
  H   H121      1.0  0.09354  0.17180  0.55342  1.0000
  H   H122      1.0  0.10858  0.17528  0.51983  1.0000
  H   H123      1.0  0.03246  0.25873  0.58076  1.0000
  H   H124      1.0  0.03164  0.37066  0.34070  1.0000
  H   H125      1.0  0.13850  0.35474  0.62811  1.0000
  C   C96       1.0  0.23317  0.04875  0.43787  1.0000
  H   H126      1.0  0.11853  0.35835  0.64579  1.0000
  S   S47       1.0  0.07819  0.36247  0.64167  1.0000
  H   H127      1.0  0.04684  0.32487  0.36990  1.0000
  H   H128      1.0  0.20044  0.13601  0.65440  1.0000
  C   C97       1.0  0.03690  0.36032  0.35254  1.0000
  H   H129      1.0  0.22399  0.12335  0.39846  1.0000
  H   H130      1.0  0.02160  0.19889  0.38697  1.0000
  H   H131      1.0  0.00326  0.34192  0.64825  1.0000
  C   C98       1.0  0.13087  0.34795  0.64140  1.0000
  H   H132      1.0  0.11431  0.03396  0.55507  1.0000
  C   C99       1.0  0.03452  0.49317  0.35405  1.0000
  N   N9        1.0  0.01331  0.24681  0.56729  1.0000
  H   H133      1.0  0.20686  0.09199  0.37016  1.0000
  N   N10       1.0  0.11953  0.29855  0.43539  1.0000
  C   C100      1.0  0.12015  0.28182  0.42553  1.0000
  C   C101      1.0  0.13473  0.29503  0.44755  1.0000
  C   C102      1.0  0.10117  0.30172  0.44733  1.0000
  C   C103      1.0  0.12205  0.31551  0.42116  1.0000
  H   H134      1.0  0.10859  0.28372  0.41661  1.0000
  H   H135      1.0  0.11871  0.26869  0.43583  1.0000
  H   H136      1.0  0.13359  0.27920  0.41602  1.0000
  H   H137      1.0  0.14878  0.29231  0.43907  1.0000
  H   H138      1.0  0.13476  0.30735  0.45521  1.0000
  H   H139      1.0  0.13305  0.28232  0.45847  1.0000
  H   H140      1.0  0.09871  0.28905  0.45805  1.0000
  H   H141      1.0  0.08937  0.30456  0.43862  1.0000
  H   H142      1.0  0.10030  0.31407  0.45519  1.0000
  H   H143      1.0  0.12140  0.32850  0.42803  1.0000
  H   H144      1.0  0.11092  0.31830  0.41160  1.0000
  H   H145      1.0  0.13581  0.31364  0.41196  1.0000
  Fe  Fe24      1.0  0.16806  0.03962  0.60635  1.0000
  H   H146      1.0  0.00262  0.27468  0.55443  1.0000
  C   C104      1.0  0.14432  0.01722  0.53349  1.0000
  Fe  Fe25      1.0  0.09124  0.42995  0.33690  1.0000
  H   H147      1.0  0.18666  0.09821  0.38700  1.0000
  H   H148      1.0  0.06420  0.18988  0.37636  1.0000
  N   N11       1.0  0.14314  0.34224  0.65652  1.0000
  C   C105      1.0  0.24555  0.07466  0.44777  1.0000
  H   H149      1.0  0.19629  0.08853  0.64180  1.0000
  H   H150      1.0  0.21313  0.11333  0.64958  1.0000
  H   H151      1.0  0.02369  0.49185  0.65746  1.0000
  C   C106      1.0  0.01713  0.19184  0.60424  1.0000
  H   H152      1.0  0.99749  0.36617  0.63773  1.0000
  S   S48       1.0  0.10359  0.45750  0.33520  1.0000
  N   N12       1.0  0.04442  0.18347  0.40120  1.0000
  H   H153      1.0  0.11575  0.17266  0.56114  1.0000
  N   N13       1.0  0.02483  0.34507  0.35863  1.0000
  H   H154      1.0  0.01561  0.32298  0.34664  1.0000
  H   H155      1.0  0.00458  0.47544  0.35393  1.0000
  C   C107      1.0  0.12035  0.20794  0.54395  1.0000
  H   H156      1.0  0.02706  0.26742  0.54720  1.0000
  H   H157      1.0  0.03353  0.17838  0.37652  1.0000
  C   C108      1.0  0.08189  0.33033  0.62426  1.0000
  S   S49       1.0  0.10854  0.40101  0.33773  1.0000
  H   H158      1.0  0.01775  0.17547  0.39830  1.0000
  H   H159      1.0  0.20101  0.12650  0.39108  1.0000
  H   H160      1.0  0.19076  0.10430  0.41879  1.0000
  H   H161      1.0  0.07057  0.19495  0.39796  1.0000
  H   H162      1.0  0.02654  0.18255  0.42789  1.0000
  N   N14       1.0  0.02113  0.36126  0.65343  1.0000
  C   C109      1.0  0.07863  0.49241  0.37389  1.0000
  H   H163      1.0  0.20284  0.08054  0.42233  1.0000
  H   H164      1.0  0.07245  0.49100  0.38863  1.0000
  C   C110      1.0  0.24235  0.06063  0.62805  1.0000
  H   H165      1.0  0.11329  0.21637  0.55544  1.0000
  H   H166      1.0  0.13078  0.17612  0.52761  1.0000
  H   H167      1.0  0.06526  0.16262  0.41364  1.0000
  C   C111      1.0  0.19941  0.12051  0.65591  1.0000
  S   S50       1.0  0.08935  0.22562  0.63010  1.0000
  H   H168      1.0  0.07684  0.33985  0.61236  1.0000
  H   H169      1.0  0.05909  0.15736  0.39202  1.0000
  S   S51       1.0  0.10254  0.27420  0.63597  1.0000
  C   C112      1.0  0.10296  0.18158  0.55628  1.0000
  H   H170      1.0  0.03940  0.47001  0.65954  1.0000
  H   H171      1.0  0.20026  0.11791  0.61907  1.0000
  C   C113      1.0  0.08678  0.31076  0.62286  1.0000
  H   H172      1.0  0.18663  0.14017  0.62403  1.0000
  C   C114      1.0  0.03237  0.33179  0.37440  1.0000
  S   S52       1.0  0.12971  0.02080  0.42786  1.0000
  C   C115      1.0  0.00934  0.35494  0.64120  1.0000
  C   C116      1.0  0.03551  0.34531  0.65908  1.0000
  C   C117      1.0  0.00541  0.20171  0.45674  1.0000
  C   C118      1.0  0.01310  0.26224  0.55107  1.0000
  H   H173      1.0  0.04453  0.34019  0.64646  1.0000
  H   H174      1.0  0.03746  0.36847  0.36438  1.0000
  C   C119      1.0  0.20121  0.09037  0.38550  1.0000
  H   H175      1.0  0.00594  0.24813  0.66580  1.0000
  H   H176      1.0  0.21618  0.07100  0.45208  1.0000
  H   H177      1.0  0.24149  0.09055  0.40428  1.0000
  H   H178      1.0  0.05164  0.35442  0.34769  1.0000
  C   C120      1.0  0.15888  0.32795  0.65034  1.0000
  C   C121      1.0  0.23212  0.08594  0.39542  1.0000
  H   H179      1.0  0.17531  0.12150  0.61876  1.0000
  H   H180      1.0  0.02379  0.18225  0.59423  1.0000
  C   C122      1.0  0.02430  0.47613  0.66127  1.0000
  H   H181      1.0  0.02344  0.32026  0.37965  1.0000
  H   H182      1.0  0.01768  0.35140  0.62758  1.0000
  H   H183      1.0  0.03038  0.20610  0.41678  1.0000
  C   C123      1.0  0.05844  0.19518  0.39009  1.0000
  H   H184      1.0  0.18676  0.00330  0.58439  1.0000
  H   H185      1.0  0.19998  0.07500  0.39015  1.0000
  H   H186      1.0  0.08558  0.30532  0.60994  1.0000
  H   H187      1.0  0.05226  0.21033  0.38698  1.0000
  C   C124      1.0  0.21506  0.11762  0.38998  1.0000
  H   H188      1.0  0.00506  0.36161  0.37714  1.0000
  H   H189      1.0  0.01986  0.38962  0.63825  1.0000
  H   H190      1.0  0.16839  0.32333  0.66145  1.0000
  H   H191      1.0  0.02395  0.22480  0.54976  1.0000
  H   H192      1.0  0.23114  0.08340  0.60795  1.0000
  H   H193      1.0  0.12530  0.33549  0.63784  1.0000
  C   C125      1.0  0.01845  0.46787  0.34846  1.0000
  C   C126      1.0  0.03036  0.37738  0.64276  1.0000
  C   C127      1.0  0.16146  0.02574  0.55642  1.0000
  C   C128      1.0  0.09572  0.49582  0.33632  1.0000
  C   C129      1.0  0.02734  0.23060  0.56212  1.0000
  H   H194      1.0  0.12773  0.04097  0.57129  1.0000
  C   C130      1.0  0.20479  0.09558  0.41694  1.0000
  C   C131      1.0  0.09566  0.30574  0.65449  1.0000
  H   H195      1.0  0.13054  0.01447  0.53029  1.0000
  H   H196      1.0  0.24321  0.08771  0.45407  1.0000
  H   H197      1.0  0.16520  0.03885  0.54704  1.0000
  C   C132      1.0  0.00547  0.35356  0.36502  1.0000
  H   H198      1.0  0.10111  0.29625  0.66620  1.0000
  H   H199      1.0  0.16125  0.02822  0.57135  1.0000
  C   C133      1.0  0.12842  0.03721  0.55671  1.0000
  C   C134      1.0  0.24428  0.00844  0.61409  1.0000
  H   H200      1.0  0.01367  0.27111  0.65971  1.0000
  H   H201      1.0  0.02798  0.21879  0.57411  1.0000
  H   H202      1.0  0.17302  0.01408  0.55345  1.0000
  H   H203      1.0  0.21337  0.01231  0.64001  1.0000
  C   C135      1.0  0.16575  0.12634  0.65554  1.0000
  H   H204      1.0  0.99940  0.36363  0.35340  1.0000
  H   H205      1.0  0.01746  0.47074  0.65072  1.0000
  H   H206      1.0  0.00961  0.25736  0.53822  1.0000
  C   C136      1.0  0.24351  0.07653  0.61415  1.0000
  H   H207      1.0  0.17119  0.09298  0.64225  1.0000
  H   H208      1.0  0.23418  0.02130  0.61032  1.0000
  H   H209      1.0  0.15367  0.12384  0.64876  1.0000
  C   C137      1.0  0.15059  0.35913  0.66034  1.0000
  H   H210      1.0  0.01588  0.45892  0.33800  1.0000
  H   H211      1.0  0.02393  0.45804  0.36053  1.0000
  H   H212      1.0  0.16654  0.01209  0.40593  1.0000
  H   H213      1.0  0.03899  0.32809  0.33722  1.0000
  C   C138      1.0  0.00164  0.26317  0.65977  1.0000
  H   H214      1.0  0.13902  0.37023  0.66486  1.0000
  H   H215      1.0  0.16561  0.14202  0.65412  1.0000
  H   H216      1.0  0.18125  0.08981  0.66393  1.0000
  C   C139      1.0  0.13848  0.00397  0.56650  1.0000
  H   H217      1.0  0.13682  0.00665  0.58155  1.0000
  H   H218      1.0  0.99591  0.34248  0.36959  1.0000
  Fe  Fe26      1.0  0.06135  0.38257  0.70734  1.0000
  Fe  Fe27      1.0  0.10328  0.38023  0.69793  1.0000
  C   C140      1.0  0.21330  0.45010  0.93910  1.0000
  S   S53       1.0  0.13113  0.36694  0.70692  1.0000
  S   S54       1.0  0.08170  0.40153  0.71176  1.0000
  S   S55       1.0  0.08317  0.35994  0.69634  1.0000
  Fe  Fe28      1.0  0.10111  0.41353  0.82104  1.0000
  S   S56       1.0  0.08925  0.40332  0.85101  1.0000
  S   S57       1.0  0.09563  0.44470  0.81061  1.0000
  Fe  Fe29      1.0  0.11901  0.37446  0.81324  1.0000
  S   S58       1.0  0.10857  0.36114  0.84240  1.0000
  S   S59       1.0  0.13830  0.35531  0.79474  1.0000
  Fe  Fe30      1.0  0.08119  0.37963  0.83805  1.0000
  S   S60       1.0  0.05486  0.36503  0.84381  1.0000
  Fe  Fe31      1.0  0.11782  0.38596  0.85237  1.0000
  S   S61       1.0  0.13323  0.38172  0.87841  1.0000
  S   S62       1.0  0.09114  0.39116  0.80799  1.0000
  S   S63       1.0  0.13013  0.39802  0.82337  1.0000
  S   S64       1.0  0.22117  0.38297  0.87660  1.0000
  C   C141      1.0  0.06464  0.37713  0.76554  1.0000
  H   H219      1.0  0.20623  0.34143  0.83773  1.0000
  H   H220      1.0  0.05562  0.37683  0.80307  1.0000
  C   C142      1.0  0.15747  0.38335  0.87792  1.0000
  C   C143      1.0  0.16565  0.37844  0.89484  1.0000
  C   C144      1.0  0.18501  0.37892  0.89491  1.0000
  C   C145      1.0  0.19638  0.38427  0.87799  1.0000
  C   C146      1.0  0.18806  0.38968  0.86119  1.0000
  C   C147      1.0  0.16872  0.38929  0.86114  1.0000
  H   H221      1.0  0.15709  0.37384  0.90793  1.0000
  H   H222      1.0  0.19123  0.37461  0.90792  1.0000
  H   H223      1.0  0.19673  0.39400  0.84808  1.0000
  H   H224      1.0  0.16259  0.39346  0.84808  1.0000
  C   C148      1.0  0.09960  0.45482  0.82990  1.0000
  C   C149      1.0  0.11478  0.44674  0.83962  1.0000
  C   C150      1.0  0.11779  0.45402  0.85565  1.0000
  C   C151      1.0  0.10543  0.46923  0.86218  1.0000
  C   C152      1.0  0.09008  0.47722  0.85261  1.0000
  C   C153      1.0  0.08725  0.47011  0.83632  1.0000
  H   H225      1.0  0.12439  0.43498  0.83466  1.0000
  H   H226      1.0  0.12986  0.44799  0.86275  1.0000
  H   H227      1.0  0.22527  0.49489  0.93171  1.0000
  H   H228      1.0  0.07523  0.47606  0.82907  1.0000
  C   C154      1.0  0.03178  0.37735  0.84352  1.0000
  C   C155      1.0  0.01672  0.36695  0.84414  1.0000
  H   H229      1.0  0.14083  0.32993  0.68592  1.0000
  N   N15       1.0  0.11129  0.42281  0.91238  1.0000
  C   C156      1.0  0.00950  0.40632  0.84343  1.0000
  C   C157      1.0  0.02812  0.39712  0.84287  1.0000
  H   H230      1.0  0.01942  0.35164  0.84469  1.0000
  H   H231      1.0  0.22620  0.46558  0.90436  1.0000
  C   C158      1.0  0.07649  0.48348  0.67604  1.0000
  H   H232      1.0  0.03959  0.40528  0.84235  1.0000
  C   C159      1.0  0.11275  0.40360  0.92346  1.0000
  H   H233      1.0  0.22090  0.43550  0.93838  1.0000
  H   H234      1.0  0.08283  0.47707  0.77315  1.0000
  H   H235      1.0  0.10537  0.44391  0.69125  1.0000
  H   H236      1.0  0.07311  0.38603  0.77132  1.0000
  H   H237      1.0  0.07297  0.37242  0.75237  1.0000
  C   C160      1.0  0.13236  0.36393  0.73147  1.0000
  C   C161      1.0  0.14737  0.35170  0.73858  1.0000
  C   C162      1.0  0.14889  0.34906  0.75802  1.0000
  C   C163      1.0  0.13561  0.35888  0.77048  1.0000
  C   C164      1.0  0.12059  0.37121  0.76342  1.0000
  C   C165      1.0  0.11886  0.37360  0.74394  1.0000
  H   H238      1.0  0.15785  0.34422  0.72903  1.0000
  H   H239      1.0  0.16052  0.33952  0.76337  1.0000
  H   H240      1.0  0.11044  0.37903  0.77288  1.0000
  H   H241      1.0  0.10741  0.38327  0.73851  1.0000
  H   H242      1.0  0.20261  0.45248  0.92913  1.0000
  C   C166      1.0  0.24036  0.46052  0.94801  1.0000
  H   H243      1.0  0.12979  0.44177  0.89605  1.0000
  H   H244      1.0  0.02470  0.49429  0.69072  1.0000
  S   S65       1.0  0.11001  0.47878  0.88163  1.0000
  H   H245      1.0  0.00202  0.35560  0.67893  1.0000
  H   H246      1.0  0.10686  0.47785  0.76308  1.0000
  H   H247      1.0  0.13948  0.46973  0.80706  1.0000
  H   H248      1.0  0.09594  0.49350  0.78007  1.0000
  H   H249      1.0  0.03963  0.47199  0.69407  1.0000
  S   S66       1.0  0.23191  0.40378  0.96518  1.0000
  H   H250      1.0  0.03154  0.32057  0.70062  1.0000
  C   C167      1.0  0.10289  0.43711  0.92506  1.0000
  H   H251      1.0  0.04490  0.34961  0.66809  1.0000
  H   H252      1.0  0.20852  0.48505  0.95018  1.0000
  Fe  Fe32      1.0  0.07853  0.41512  0.68193  1.0000
  C   C168      1.0  0.01656  0.45011  0.68543  1.0000
  H   H253      1.0  0.15529  0.49981  0.83766  1.0000
  C   C169      1.0  0.02471  0.47862  0.69428  1.0000
  C   C170      1.0  0.09358  0.48685  0.76780  1.0000
  H   H254      1.0  0.01762  0.47595  0.70910  1.0000
  C   C171      1.0  0.21581  0.48367  0.93559  1.0000
  N   N16       1.0  0.14276  0.49747  0.81299  1.0000
  C   C172      1.0  0.08596  0.49753  0.68059  1.0000
  H   H255      1.0  0.09871  0.39989  0.93018  1.0000
  H   H256      1.0  0.99928  0.27939  0.69141  1.0000
  H   H257      1.0  0.12006  0.34424  0.67891  1.0000
  C   C173      1.0  0.08433  0.49186  0.73636  1.0000
  H   H258      1.0  0.12247  0.46874  0.69878  1.0000
  H   H259      1.0  0.20503  0.48705  0.92567  1.0000
  H   H260      1.0  0.08855  0.43444  0.93185  1.0000
  S   S67       1.0  0.07084  0.44695  0.67397  1.0000
  H   H261      1.0  0.23342  0.46056  0.96289  1.0000
  C   C174      1.0  0.13217  0.33390  0.67402  1.0000
  C   C175      1.0  0.99811  0.37619  0.84438  1.0000
  H   H262      1.0  0.17640  0.31960  0.86251  1.0000
  C   C176      1.0  0.09989  0.45881  0.68829  1.0000
  Fe  Fe33      1.0  0.23968  0.38309  0.89972  1.0000
  H   H263      1.0  0.11906  0.39252  0.91427  1.0000
  H   H264      1.0  0.16344  0.47367  0.80661  1.0000
  H   H265      1.0  0.00999  0.44582  0.70018  1.0000
  C   C177      1.0  0.08336  0.46407  0.67989  1.0000
  S   S68       1.0  0.24394  0.36425  0.92741  1.0000
  H   H266      1.0  0.11163  0.43702  0.93652  1.0000
  H   H267      1.0  0.15553  0.35004  0.85693  1.0000
  S   S69       1.0  0.05643  0.39753  0.67856  1.0000
  C   C178      1.0  0.24241  0.39485  0.98589  1.0000
  H   H268      1.0  0.15949  0.35547  0.67206  1.0000
  H   H269      1.0  0.12177  0.40246  0.93489  1.0000
  H   H270      1.0  0.13662  0.41715  0.89319  1.0000
  C   C179      1.0  0.00544  0.35967  0.73035  1.0000
  H   H271      1.0  0.08512  0.41966  0.90333  1.0000
  H   H272      1.0  0.14858  0.46976  0.82886  1.0000
  N   N17       1.0  0.22642  0.46449  0.93441  1.0000
  C   C180      1.0  0.10956  0.47290  0.69253  1.0000
  C   C181      1.0  0.00480  0.33248  0.71426  1.0000
  N   N18       1.0  0.05970  0.36072  0.77958  1.0000
  C   C182      1.0  0.07709  0.34899  0.78517  1.0000
  C   C183      1.0  0.04889  0.34907  0.77113  1.0000
  C   C184      1.0  0.04812  0.36767  0.79649  1.0000
  H   H273      1.0  0.07389  0.33645  0.79573  1.0000
  H   H274      1.0  0.08627  0.34372  0.77268  1.0000
  H   H275      1.0  0.08548  0.35724  0.79181  1.0000
  H   H276      1.0  0.05686  0.34418  0.75788  1.0000
  H   H277      1.0  0.03541  0.35735  0.76726  1.0000
  H   H278      1.0  0.04534  0.33629  0.78115  1.0000
  H   H279      1.0  0.04449  0.35569  0.80763  1.0000
  H   H280      1.0  0.03470  0.37626  0.79292  1.0000
  H   H281      1.0  0.05183  0.38645  0.76126  1.0000
  C   C185      1.0  0.02464  0.35942  0.72397  1.0000
  H   H282      1.0  0.10560  0.41364  0.88695  1.0000
  S   S70       1.0  0.03652  0.37714  0.72910  1.0000
  H   H283      1.0  0.19460  0.33023  0.81111  1.0000
  C   C186      1.0  0.15849  0.34897  0.84145  1.0000
  H   H284      1.0  0.10162  0.45177  0.91706  1.0000
  C   C187      1.0  0.03407  0.34520  0.71339  1.0000
  C   C188      1.0  0.02421  0.33153  0.70882  1.0000
  H   H285      1.0  0.04896  0.34460  0.70882  1.0000
  S   S71       1.0  0.23955  0.41008  0.91178  1.0000
  H   H286      1.0  0.13999  0.42558  0.91448  1.0000
  C   C189      1.0  0.09927  0.42358  0.89735  1.0000
  H   H287      1.0  0.16787  0.31120  0.84357  1.0000
  H   H288      1.0  0.18976  0.35011  0.85670  1.0000
  C   C190      1.0  0.00933  0.36736  0.67062  1.0000
  H   H289      1.0  0.17894  0.35208  0.80729  1.0000
  C   C191      1.0  0.13025  0.42701  0.90365  1.0000
  H   H290      1.0  0.14732  0.34175  0.83767  1.0000
  H   H291      1.0  0.00679  0.42158  0.84327  1.0000
  S   S72       1.0  0.10187  0.39522  0.66818  1.0000
  H   H292      1.0  0.09139  0.33055  0.66904  1.0000
  C   C192      1.0  0.19179  0.34886  0.84123  1.0000
  H   H293      1.0  0.19271  0.31100  0.84334  1.0000
  H   H294      1.0  0.16981  0.32986  0.81151  1.0000
  H   H295      1.0  0.19125  0.36355  0.83341  1.0000
  H   H296      1.0  0.15702  0.36371  0.83377  1.0000
  H   H297      1.0  0.20580  0.45016  0.95379  1.0000
  C   C193      1.0  0.17866  0.31924  0.84689  1.0000
  H   H298      1.0  0.08019  0.48861  0.85796  1.0000
  H   H299      1.0  0.09718  0.43809  0.88928  1.0000
  N   N19       1.0  0.17736  0.33867  0.83631  1.0000
  C   C194      1.0  0.18040  0.33762  0.81567  1.0000
  C   C195      1.0  0.10264  0.49231  0.68870  1.0000
  H   H300      1.0  0.99814  0.37044  0.73880  1.0000
  H   H301      1.0  0.19759  0.11505  0.67134  1.0000
  H   H302      1.0  0.00946  0.44390  0.67563  1.0000
  H   H303      1.0  0.12656  0.32094  0.67181  1.0000
  H   H304      1.0  0.07326  0.48235  0.74082  1.0000
  H   H305      1.0  0.12275  0.49571  0.83820  1.0000
  H   H306      1.0  0.24529  0.44977  0.91372  1.0000
  C   C196      1.0  0.23626  0.46366  0.91494  1.0000
  H   H307      1.0  0.02896  0.33300  0.66731  1.0000
  H   H308      1.0  0.01788  0.37202  0.68023  1.0000
  N   N20       1.0  0.01519  0.47105  0.68085  1.0000
  H   H309      1.0  0.13369  0.50034  0.78547  1.0000
  H   H310      1.0  0.09738  0.48309  0.73069  1.0000
  H   H311      1.0  0.06387  0.48776  0.66935  1.0000
  H   H312      1.0  0.16295  0.12088  0.67090  1.0000
  H   H313      1.0  0.03149  0.44337  0.68425  1.0000
  H   H314      1.0  0.11365  0.49328  0.81688  1.0000
  C   C197      1.0  0.14887  0.47676  0.81388  1.0000
  H   H315      1.0  0.99835  0.37945  0.66697  1.0000
  Fe  Fe34      1.0  0.08006  0.37626  0.66761  1.0000
  H   H316      1.0  0.24556  0.47498  0.91068  1.0000
  C   C198      1.0  0.12336  0.50072  0.82273  1.0000
  H   H317      1.0  0.02321  0.59220  0.22450  1.0000
  H   H318      1.0  0.04549  0.52052  0.14023  1.0000
  H   H319      1.0  0.08636  0.52400  0.12586  1.0000
  C   C199      1.0  0.03636  0.52133  0.20640  1.0000
  S   S73       1.0  0.00093  0.51487  0.20254  1.0000
  H   H320      1.0  0.21642  0.52149  0.14065  1.0000
  Fe  Fe35      1.0  0.14337  0.54675  0.17582  1.0000
  S   S74       1.0  0.15202  0.53761  0.20473  1.0000
  S   S75       1.0  0.16407  0.55129  0.14879  1.0000
  Fe  Fe36      1.0  0.10072  0.55047  0.19176  1.0000
  S   S76       1.0  0.10653  0.54236  0.22204  1.0000
  S   S77       1.0  0.07169  0.56001  0.18236  1.0000
  Fe  Fe37      1.0  0.12969  0.56084  0.21398  1.0000
  S   S78       1.0  0.13974  0.58265  0.22808  1.0000
  Fe  Fe38      1.0  0.12827  0.52004  0.20991  1.0000
  H   H321      1.0  0.18171  0.63213  0.17093  1.0000
  S   S79       1.0  0.12212  0.57099  0.18465  1.0000
  S   S80       1.0  0.12129  0.52702  0.18006  1.0000
  C   C200      1.0  0.05151  0.54839  0.19008  1.0000
  C   C201      1.0  0.05214  0.53121  0.20231  1.0000
  C   C202      1.0  0.01861  0.54654  0.18747  1.0000
  C   C203      1.0  0.03458  0.55614  0.18292  1.0000
  H   H322      1.0  0.06500  0.52522  0.20810  1.0000
  H   H323      1.0  0.20743  0.60599  0.17770  1.0000
  H   H324      1.0  0.03396  0.56944  0.17345  1.0000
  C   C204      1.0  0.13364  0.58371  0.29220  1.0000
  C   C205      1.0  0.14873  0.59059  0.28002  1.0000
  C   C206      1.0  0.15038  0.58997  0.26048  1.0000
  C   C207      1.0  0.13732  0.58187  0.25293  1.0000
  C   C208      1.0  0.12243  0.57440  0.26510  1.0000
  C   C209      1.0  0.12045  0.57554  0.28475  1.0000
  H   H325      1.0  0.15897  0.59687  0.28567  1.0000
  H   H326      1.0  0.16185  0.59586  0.25119  1.0000
  H   H327      1.0  0.11216  0.56832  0.25931  1.0000
  H   H328      1.0  0.10876  0.57014  0.29404  1.0000
  C   C210      1.0  0.22632  0.55891  0.14635  1.0000
  C   C211      1.0  0.21768  0.56215  0.12983  1.0000
  C   C212      1.0  0.19865  0.55963  0.13079  1.0000
  C   C213      1.0  0.18807  0.55385  0.14824  1.0000
  C   C214      1.0  0.19684  0.55025  0.16470  1.0000
  C   C215      1.0  0.21585  0.55277  0.16373  1.0000
  H   H329      1.0  0.22552  0.56703  0.11638  1.0000
  H   H330      1.0  0.19201  0.56242  0.11796  1.0000
  H   H331      1.0  0.18898  0.54553  0.17817  1.0000
  H   H332      1.0  0.22247  0.55011  0.17657  1.0000
  H   H333      1.0  0.01043  0.58434  0.25846  1.0000
  S   S81       1.0  0.13237  0.58504  0.31665  1.0000
  H   H334      1.0  0.04628  0.52095  0.16488  1.0000
  N   N21       1.0  0.99838  0.57872  0.23467  1.0000
  H   H335      1.0  0.20676  0.50371  0.13168  1.0000
  C   C216      1.0  0.00577  0.58218  0.32147  1.0000
  N   N22       1.0  0.17786  0.60344  0.18306  1.0000
  H   H336      1.0  0.03332  0.50482  0.31714  1.0000
  H   H337      1.0  0.15775  0.62724  0.17446  1.0000
  C   C217      1.0  0.19757  0.59572  0.17714  1.0000
  H   H338      1.0  0.15044  0.59474  0.18640  1.0000
  H   H339      1.0  0.23246  0.53088  0.10807  1.0000
  H   H340      1.0  0.14152  0.54127  0.31406  1.0000
  H   H341      1.0  0.17399  0.61842  0.15537  1.0000
  S   S82       1.0  0.08303  0.56765  0.33048  1.0000
  H   H342      1.0  0.19958  0.59227  0.16231  1.0000
  C   C218      1.0  0.02390  0.58071  0.32642  1.0000
  H   H343      1.0  0.02560  0.56753  0.22150  1.0000
  S   S83       1.0  0.03625  0.60042  0.32156  1.0000
  H   H344      1.0  0.07328  0.50671  0.12021  1.0000
  C   C219      1.0  0.01957  0.52885  0.19888  1.0000
  C   C220      1.0  0.01565  0.58101  0.22117  1.0000
  H   H345      1.0  0.05829  0.53721  0.14752  1.0000
  H   H346      1.0  0.18513  0.61790  0.20448  1.0000
  C   C221      1.0  0.16539  0.58935  0.18185  1.0000
  H   H347      1.0  0.16642  0.58587  0.16713  1.0000
  C   C222      1.0  0.23491  0.51555  0.10619  1.0000
  H   H348      1.0  0.01239  0.58507  0.20633  1.0000
  H   H349      1.0  0.16102  0.61348  0.20773  1.0000
  C   C223      1.0  0.17576  0.60753  0.20286  1.0000
  C   C224      1.0  0.17261  0.62112  0.17039  1.0000
  H   H350      1.0  0.16885  0.57579  0.19125  1.0000
  H   H351      1.0  0.01297  0.55965  0.25542  1.0000
  H   H352      1.0  0.00583  0.55239  0.18143  1.0000
  H   H353      1.0  0.17910  0.59433  0.21283  1.0000
  H   H354      1.0  0.20198  0.58240  0.18647  1.0000
  N   N23       1.0  0.07184  0.50822  0.15003  1.0000
  H   H355      1.0  0.12624  0.52353  0.32356  1.0000
  C   C225      1.0  0.05475  0.52237  0.15061  1.0000
  C   C226      1.0  0.21918  0.50653  0.13766  1.0000
  C   C227      1.0  0.00332  0.57329  0.25417  1.0000
  S   S84       1.0  0.23420  0.53135  0.00692  1.0000
  H   H356      1.0  0.16805  0.51922  0.32693  1.0000
  H   H357      1.0  0.99814  0.54975  0.23015  1.0000
  H   H358      1.0  0.03723  0.50764  0.21522  1.0000
  H   H359      1.0  0.22297  0.51263  0.09952  1.0000
  C   C228      1.0  0.13234  0.53571  0.32695  1.0000
  H   H360      1.0  0.99973  0.59525  0.31368  1.0000
  C   C229      1.0  0.08414  0.51202  0.16320  1.0000
  N   N24       1.0  0.23670  0.50322  0.12448  1.0000
  H   H361      1.0  0.07690  0.51113  0.17798  1.0000
  H   H362      1.0  0.12059  0.54727  0.32956  1.0000
  H   H363      1.0  0.08834  0.52657  0.15941  1.0000
  H   H364      1.0  0.09333  0.50227  0.21719  1.0000
  C   C230      1.0  0.08208  0.50957  0.13058  1.0000
  H   H365      1.0  0.09715  0.50155  0.16331  1.0000
  H   H366      1.0  0.00999  0.50175  0.32826  1.0000
  H   H367      1.0  0.24051  0.52761  0.04610  1.0000
  Fe  Fe39      1.0  0.11288  0.74941  0.60157  1.0000
  S   S85       1.0  0.12375  0.71815  0.60223  1.0000
  S   S86       1.0  0.13422  0.76551  0.61040  1.0000
  Fe  Fe40      1.0  0.07544  0.74343  0.59026  1.0000
  S   S87       1.0  0.08356  0.71207  0.59041  1.0000
  S   S88       1.0  0.04710  0.75457  0.58101  1.0000
  Fe  Fe41      1.0  0.09528  0.71282  0.61732  1.0000
  S   S89       1.0  0.08753  0.69355  0.64474  1.0000
  Fe  Fe42      1.0  0.11106  0.72032  0.57529  1.0000
  S   S90       1.0  0.12679  0.70876  0.54916  1.0000
  S   S91       1.0  0.08494  0.74393  0.61842  1.0000
  S   S92       1.0  0.10234  0.75181  0.57332  1.0000
  Fe  Fe43      1.0  0.08385  0.72108  0.45827  1.0000
  S   S93       1.0  0.11312  0.72086  0.44308  1.0000
  S   S94       1.0  0.07491  0.70565  0.48707  1.0000
  Fe  Fe44      1.0  0.06663  0.74510  0.42539  1.0000
  S   S95       1.0  0.09472  0.74719  0.40741  1.0000
  S   S96       1.0  0.03883  0.75641  0.41476  1.0000
  Fe  Fe45      1.0  0.10067  0.71578  0.41777  1.0000
  S   S97       1.0  0.11353  0.69344  0.39856  1.0000
  Fe  Fe46      1.0  0.10458  0.75229  0.43435  1.0000
  S   S98       1.0  0.12517  0.77091  0.44086  1.0000
  S   S99       1.0  0.07213  0.71363  0.43381  1.0000
  S   S100      1.0  0.07586  0.75251  0.45144  1.0000
  H   H368      1.0  0.17462  0.85902  0.53450  1.0000
  H   H369      1.0  0.01118  0.60682  0.37743  1.0000
  H   H370      1.0  0.13336  0.86442  0.50833  1.0000
  H   H371      1.0  0.08407  0.74881  0.49511  1.0000
  S   S101      1.0  0.22259  0.86196  0.42193  1.0000
  H   H372      1.0  0.01735  0.58227  0.38677  1.0000
  H   H373      1.0  0.12621  0.74201  0.49982  1.0000
  H   H374      1.0  0.18109  0.93784  0.47937  1.0000
  Fe  Fe47      1.0  0.08025  0.56026  0.36207  1.0000
  C   C231      1.0  0.18034  0.99054  0.58962  1.0000
  S   S102      1.0  0.07653  0.53043  0.37676  1.0000
  Fe  Fe48      1.0  0.08060  0.60215  0.36852  1.0000
  S   S103      1.0  0.07451  0.62129  0.39191  1.0000
  C   C232      1.0  0.12978  0.52365  0.36039  1.0000
  C   C233      1.0  0.08164  0.51051  0.36426  1.0000
  S   S104      1.0  0.05769  0.58453  0.36772  1.0000
  S   S105      1.0  0.10297  0.57685  0.36598  1.0000
  H   H375      1.0  0.09170  0.52605  0.33760  1.0000
  Fe  Fe49      1.0  0.20442  0.87291  0.56453  1.0000
  S   S106      1.0  0.17514  0.88837  0.56597  1.0000
  S   S107      1.0  0.22040  0.86539  0.53663  1.0000
  Fe  Fe50      1.0  0.20448  0.87139  0.60671  1.0000
  S   S108      1.0  0.17518  0.88722  0.61127  1.0000
  S   S109      1.0  0.22150  0.85903  0.63047  1.0000
  Fe  Fe51      1.0  0.16850  0.86764  0.59204  1.0000
  S   S110      1.0  0.14152  0.85446  0.59335  1.0000
  Fe  Fe52      1.0  0.18468  0.90643  0.58462  1.0000
  S   S111      1.0  0.18378  0.93812  0.57389  1.0000
  S   S112      1.0  0.19723  0.85085  0.58914  1.0000
  S   S113      1.0  0.21443  0.89176  0.58175  1.0000
  Fe  Fe53      1.0  0.15275  0.87716  0.42544  1.0000
  S   S114      1.0  0.17132  0.86618  0.44808  1.0000
  S   S115      1.0  0.13346  0.85911  0.41598  1.0000
  Fe  Fe54      1.0  0.16854  0.91577  0.41622  1.0000
  S   S116      1.0  0.18854  0.90705  0.43780  1.0000
  S   S117      1.0  0.17229  0.94438  0.39876  1.0000
  Fe  Fe55      1.0  0.19391  0.87882  0.42719  1.0000
  H   H376      1.0  0.13369  0.83216  0.54357  1.0000
  Fe  Fe56      1.0  0.16416  0.89561  0.45629  1.0000
  S   S118      1.0  0.15958  0.90373  0.48558  1.0000
  S   S119      1.0  0.17592  0.88817  0.40393  1.0000
  S   S120      1.0  0.14348  0.90597  0.43551  1.0000
  H   H377      1.0  0.06061  0.70184  0.35373  1.0000
  H   H378      1.0  0.10662  0.72812  0.66323  1.0000
  H   H379      1.0  0.05033  0.69057  0.40591  1.0000
  H   H380      1.0  0.15910  0.54318  0.35933  1.0000
  C   C234      1.0  0.20757  0.87867  0.51920  1.0000
  C   C235      1.0  0.19688  0.89589  0.52292  1.0000
  C   C236      1.0  0.18262  0.90408  0.51199  1.0000
  C   C237      1.0  0.17970  0.89557  0.49669  1.0000
  C   C238      1.0  0.19188  0.87953  0.49157  1.0000
  C   C239      1.0  0.20571  0.87089  0.50301  1.0000
  H   H381      1.0  0.19902  0.90249  0.53482  1.0000
  H   H382      1.0  0.17340  0.91656  0.51596  1.0000
  H   H383      1.0  0.18983  0.87301  0.47961  1.0000
  H   H384      1.0  0.21404  0.85760  0.50002  1.0000
  H   H385      1.0  0.13209  0.76158  0.48224  1.0000
  C   C240      1.0  0.16874  0.98241  0.40222  1.0000
  C   C241      1.0  0.16011  0.96572  0.40632  1.0000
  C   C242      1.0  0.14200  0.96636  0.41630  1.0000
  H   H386      1.0  0.03757  0.71332  0.40967  1.0000
  H   H387      1.0  0.18265  0.98208  0.39426  1.0000
  H   H388      1.0  0.13506  0.95370  0.41913  1.0000
  H   H389      1.0  0.03438  0.64882  0.61555  1.0000
  H   H390      1.0  0.24494  0.86534  0.56302  1.0000
  H   H391      1.0  0.16378  0.98957  0.47852  1.0000
  C   C243      1.0  0.18627  0.97403  0.58085  1.0000
  C   C244      1.0  0.17793  0.95736  0.58730  1.0000
  C   C245      1.0  0.16379  0.95724  0.60283  1.0000
  C   C246      1.0  0.15749  0.97393  0.61125  1.0000
  C   C247      1.0  0.15079  0.54680  0.34718  1.0000
  H   H392      1.0  0.19716  0.97425  0.56877  1.0000
  H   H393      1.0  0.07320  0.72520  0.36867  1.0000
  H   H394      1.0  0.14600  0.97395  0.62277  1.0000
  H   H395      1.0  0.14003  0.94651  0.47799  1.0000
  C   C248      1.0  0.16316  0.85068  0.54161  1.0000
  H   H396      1.0  0.04538  0.56263  0.34080  1.0000
  H   H397      1.0  0.02239  0.72077  0.37085  1.0000
  C   C249      1.0  0.08963  0.51219  0.34524  1.0000
  H   H398      1.0  0.04949  0.69728  0.63453  1.0000
  H   H399      1.0  0.14965  0.72482  0.62817  1.0000
  H   H400      1.0  0.16902  0.97614  0.44040  1.0000
  H   H401      1.0  0.04189  0.68936  0.36657  1.0000
  H   H402      1.0  0.16241  0.85087  0.55715  1.0000
  H   H403      1.0  0.12138  0.69476  0.66512  1.0000
  H   H404      1.0  0.12798  0.84876  0.56040  1.0000
  C   C250      1.0  0.11916  0.73242  0.65350  1.0000
  H   H405      1.0  0.09311  0.74354  0.51747  1.0000
  C   C251      1.0  0.12680  0.79559  0.43404  1.0000
  C   C252      1.0  0.11601  0.80692  0.42093  1.0000
  C   C253      1.0  0.11814  0.82634  0.41570  1.0000
  C   C254      1.0  0.13090  0.83473  0.42363  1.0000
  C   C255      1.0  0.14150  0.82344  0.43695  1.0000
  C   C256      1.0  0.13954  0.80397  0.44201  1.0000
  H   H406      1.0  0.10617  0.80071  0.41466  1.0000
  H   H407      1.0  0.10985  0.83494  0.40540  1.0000
  H   H408      1.0  0.15122  0.82971  0.44330  1.0000
  H   H409      1.0  0.14795  0.79534  0.45217  1.0000
  C   C257      1.0  0.10239  0.67366  0.39634  1.0000
  C   C258      1.0  0.11006  0.66184  0.38245  1.0000
  C   C259      1.0  0.10155  0.64592  0.38059  1.0000
  C   C260      1.0  0.08540  0.64155  0.39280  1.0000
  C   C261      1.0  0.07771  0.65343  0.40661  1.0000
  C   C262      1.0  0.08606  0.66945  0.40825  1.0000
  H   H410      1.0  0.12268  0.66496  0.37310  1.0000
  H   H411      1.0  0.10763  0.63687  0.36990  1.0000
  H   H412      1.0  0.06519  0.65020  0.41607  1.0000
  H   H413      1.0  0.07990  0.67849  0.41879  1.0000
  C   C263      1.0  0.02049  0.74384  0.42662  1.0000
  C   C264      1.0  0.02326  0.73093  0.44293  1.0000
  H   H414      1.0  0.13959  0.55866  0.35055  1.0000
  H   H415      1.0  0.02677  0.68983  0.64255  1.0000
  C   C265      1.0  0.06418  0.66591  0.61775  1.0000
  H   H416      1.0  0.01128  0.55209  0.65901  1.0000
  H   H417      1.0  0.03599  0.72988  0.44929  1.0000
  H   H418      1.0  0.01215  0.70881  0.46331  1.0000
  C   C266      1.0  0.03547  0.72629  0.37255  1.0000
  H   H419      1.0  0.06663  0.65802  0.60526  1.0000
  C   C267      1.0  0.13625  0.79020  0.60452  1.0000
  C   C268      1.0  0.15302  0.79668  0.60674  1.0000
  C   C269      1.0  0.15498  0.81623  0.60308  1.0000
  C   C270      1.0  0.13999  0.82960  0.59754  1.0000
  C   C271      1.0  0.12321  0.82311  0.59530  1.0000
  C   C272      1.0  0.12141  0.80352  0.59855  1.0000
  H   H420      1.0  0.16456  0.78654  0.61145  1.0000
  H   H421      1.0  0.16792  0.82097  0.60501  1.0000
  H   H422      1.0  0.11142  0.83331  0.59129  1.0000
  H   H423      1.0  0.10834  0.79879  0.59701  1.0000
  C   C273      1.0  0.23610  0.89610  0.40928  1.0000
  H   H424      1.0  0.11752  0.53470  0.36326  1.0000
  N   N25       1.0  0.16322  0.96272  0.46893  1.0000
  H   H425      1.0  0.16865  0.85452  0.38847  1.0000
  C   C274      1.0  0.11822  0.64091  0.64448  1.0000
  C   C275      1.0  0.11159  0.66026  0.63925  1.0000
  C   C276      1.0  0.03286  0.65755  0.62735  1.0000
  H   H426      1.0  0.21163  0.80664  0.39114  1.0000
  H   H427      1.0  0.13073  0.63433  0.63651  1.0000
  H   H428      1.0  0.11895  0.66843  0.62728  1.0000
  C   C277      1.0  0.02891  0.74326  0.59502  1.0000
  C   C278      1.0  0.01339  0.74035  0.58687  1.0000
  C   C279      1.0  0.17375  0.95154  0.48390  1.0000
  C   C280      1.0  0.16553  0.99071  0.60451  1.0000
  C   C281      1.0  0.01474  0.72897  0.62561  1.0000
  C   C282      1.0  0.02967  0.73731  0.61437  1.0000
  H   H429      1.0  0.01284  0.74484  0.57186  1.0000
  H   H430      1.0  0.11854  0.98396  0.42981  1.0000
  H   H431      1.0  0.01516  0.72494  0.64069  1.0000
  H   H432      1.0  0.04154  0.73964  0.62078  1.0000
  C   C283      1.0  0.11248  0.70659  0.53221  1.0000
  C   C284      1.0  0.12049  0.70542  0.51335  1.0000
  C   C285      1.0  0.10903  0.70532  0.49930  1.0000
  C   C286      1.0  0.08962  0.70560  0.50427  1.0000
  C   C287      1.0  0.08172  0.70590  0.52323  1.0000
  C   C288      1.0  0.09309  0.70672  0.53712  1.0000
  H   H433      1.0  0.13552  0.70513  0.50955  1.0000
  H   H434      1.0  0.11526  0.70487  0.48472  1.0000
  H   H435      1.0  0.06671  0.70605  0.52713  1.0000
  H   H436      1.0  0.08679  0.70751  0.55159  1.0000
  N   N26       1.0  0.09779  0.65544  0.46446  1.0000
  C   C289      1.0  0.10514  0.63861  0.45473  1.0000
  C   C290      1.0  0.10689  0.67193  0.45450  1.0000
  C   C291      1.0  0.10190  0.65167  0.48432  1.0000
  C   C292      1.0  0.07722  0.65966  0.46434  1.0000
  H   H437      1.0  0.09851  0.62588  0.46176  1.0000
  H   H438      1.0  0.12062  0.63500  0.45458  1.0000
  H   H439      1.0  0.10159  0.68483  0.46148  1.0000
  H   H440      1.0  0.12241  0.66932  0.45440  1.0000
  H   H441      1.0  0.10422  0.67531  0.43945  1.0000
  H   H442      1.0  0.09641  0.66419  0.49198  1.0000
  H   H443      1.0  0.11730  0.64864  0.48503  1.0000
  H   H444      1.0  0.09533  0.63929  0.49236  1.0000
  H   H445      1.0  0.06989  0.64765  0.47210  1.0000
  H   H446      1.0  0.07351  0.66231  0.44965  1.0000
  H   H447      1.0  0.07124  0.67254  0.47121  1.0000
  N   N27       1.0  0.19196  0.83225  0.39140  1.0000
  C   C293      1.0  0.17358  0.83988  0.38488  1.0000
  C   C294      1.0  0.19021  0.83147  0.41223  1.0000
  H   H448      1.0  0.13976  0.96013  0.45496  1.0000
  C   C295      1.0  0.19787  0.81286  0.38628  1.0000
  C   C296      1.0  0.09580  0.66900  0.64986  1.0000
  H   H449      1.0  0.16244  0.83100  0.39173  1.0000
  H   H450      1.0  0.20395  0.82644  0.41765  1.0000
  H   H451      1.0  0.18532  0.84579  0.41653  1.0000
  H   H452      1.0  0.17994  0.82187  0.41961  1.0000
  H   H453      1.0  0.20225  0.85942  0.38604  1.0000
  C   C297      1.0  0.15965  0.99941  0.40881  1.0000
  H   H454      1.0  0.16420  0.94792  0.49719  1.0000
  C   C298      1.0  0.14651  0.85772  0.51420  1.0000
  H   H455      1.0  0.12662  0.88525  0.53324  1.0000
  H   H456      1.0  0.22160  0.90241  0.40930  1.0000
  N   N28       1.0  0.04414  0.67352  0.62217  1.0000
  H   H457      1.0  0.03957  0.67831  0.59282  1.0000
  H   H458      1.0  0.06283  0.73071  0.39174  1.0000
  C   C299      1.0  0.06622  0.71911  0.38266  1.0000
  H   H459      1.0  0.15113  0.88748  0.53089  1.0000
  H   H460      1.0  0.14569  0.98962  0.46413  1.0000
  H   H461      1.0  0.07322  0.67750  0.61458  1.0000
  H   H462      1.0  0.14330  0.97815  0.48826  1.0000
  H   H463      1.0  0.17425  0.84059  0.36924  1.0000
  C   C300      1.0  0.14018  0.87868  0.53831  1.0000
  C   C301      1.0  0.09843  0.78218  0.48426  1.0000
  H   H464      1.0  0.15593  0.93877  0.45823  1.0000
  C   C302      1.0  0.99933  0.72587  0.61745  1.0000
  C   C303      1.0  0.15358  0.98077  0.47532  1.0000
  C   C304      1.0  0.03765  0.68601  0.60540  1.0000
  H   H465      1.0  0.02247  0.69164  0.60818  1.0000
  H   H466      1.0  0.06937  0.65598  0.62993  1.0000
  H   H467      1.0  0.11636  0.85275  0.53966  1.0000
  H   H468      1.0  0.04139  0.73309  0.35838  1.0000
  N   N29       1.0  0.04919  0.71100  0.38072  1.0000
  H   H469      1.0  0.12072  0.74726  0.65517  1.0000
  Fe  Fe57      1.0  0.06201  0.59306  0.33631  1.0000
  H   H470      1.0  0.00127  0.75566  0.40642  1.0000
  H   H471      1.0  0.13004  0.69883  0.64046  1.0000
  N   N30       1.0  0.13633  0.71912  0.65694  1.0000
  C   C305      1.0  0.15226  0.72501  0.64300  1.0000
  H   H472      1.0  0.12317  0.78189  0.50867  1.0000
  H   H473      1.0  0.12507  0.99960  0.56412  1.0000
  C   C306      1.0  0.14913  0.95157  0.46485  1.0000
  C   C307      1.0  0.11121  0.77365  0.51404  1.0000
  C   C308      1.0  0.24052  0.87647  0.41427  1.0000
  H   H474      1.0  0.14955  0.84278  0.51107  1.0000
  H   H475      1.0  0.24505  0.88687  0.60936  1.0000
  H   H476      1.0  0.03735  0.64793  0.64004  1.0000
  H   H477      1.0  0.16557  0.71548  0.64521  1.0000
  H   H478      1.0  0.04752  0.67596  0.65088  1.0000
  H   H479      1.0  0.18767  0.97481  0.45423  1.0000
  H   H480      1.0  0.21721  0.98878  0.65274  1.0000
  N   N31       1.0  0.23456  0.99310  0.62578  1.0000
  H   H481      1.0  0.04549  0.69853  0.60142  1.0000
  H   H482      1.0  0.01764  0.66279  0.63068  1.0000
  H   H483      1.0  0.24178  0.96464  0.63962  1.0000
  N   N32       1.0  0.10473  0.76619  0.49847  1.0000
  C   C309      1.0  0.00806  0.59210  0.37752  1.0000
  H   H484      1.0  0.19940  0.81291  0.37063  1.0000
  C   C310      1.0  0.20618  0.84471  0.38233  1.0000
  H   H485      1.0  0.18739  0.80313  0.39289  1.0000
  H   H486      1.0  0.18323  0.95383  0.44556  1.0000
  C   C311      1.0  0.08894  0.75530  0.50629  1.0000
  H   H487      1.0  0.15241  0.50195  0.33671  1.0000
  C   C312      1.0  0.00354  0.74558  0.41897  1.0000
  C   C313      1.0  0.13010  0.84756  0.54498  1.0000
  H   H488      1.0  0.11605  0.76185  0.52500  1.0000
  H   H489      1.0  0.15712  0.94456  0.60778  1.0000
  C   C314      1.0  0.22436  0.00007  0.64330  1.0000
  H   H490      1.0  0.10235  0.64115  0.43964  1.0000
  H   H491      1.0  0.22016  0.83948  0.38715  1.0000
  H   H492      1.0  0.20791  0.84573  0.36659  1.0000
  C   C315      1.0  0.15804  0.51467  0.33957  1.0000
  H   H493      1.0  0.14605  0.68914  0.65727  1.0000
  H   H494      1.0  0.15453  0.73986  0.64383  1.0000
  H   H495      1.0  0.11573  0.74685  0.47818  1.0000
  H   H496      1.0  0.09973  0.78313  0.52137  1.0000
  H   H497      1.0  0.13688  0.52023  0.37340  1.0000
  H   H498      1.0  0.07667  0.76444  0.51290  1.0000
  H   H499      1.0  0.16009  0.55260  0.33450  1.0000
  C   C316      1.0  0.02119  0.54861  0.34211  1.0000
  H   H500      1.0  0.15802  0.86541  0.50616  1.0000
  H   H501      1.0  0.23894  0.82496  0.58431  1.0000
  H   H502      1.0  0.23740  0.83296  0.55967  1.0000
  C   C317      1.0  0.00963  0.71913  0.45099  1.0000
  N   N33       1.0  0.14500  0.85865  0.53477  1.0000
  C   C318      1.0  0.05434  0.69603  0.36816  1.0000
  H   H503      1.0  0.24419  0.85661  0.58775  1.0000
  H   H504      1.0  0.06491  0.68443  0.37388  1.0000
  H   H505      1.0  0.18452  0.95945  0.48740  1.0000
  H   H506      1.0  0.22813  0.98223  0.60155  1.0000
  H   H507      1.0  0.08664  0.79204  0.49058  1.0000
  H   H508      1.0  0.12404  0.51065  0.35850  1.0000
  N   N34       1.0  0.14273  0.53021  0.34354  1.0000
  C   C319      1.0  0.04183  0.68461  0.63826  1.0000
  H   H509      1.0  0.11006  0.79058  0.47786  1.0000
  C   C320      1.0  0.17643  0.96700  0.45157  1.0000
  C   C321      1.0  0.12037  0.75359  0.48932  1.0000
  H   H510      1.0  0.02734  0.69724  0.39882  1.0000
  H   H511      1.0  0.16743  0.83567  0.53899  1.0000
  H   H512      1.0  0.09354  0.77696  0.47230  1.0000
  C   C322      1.0  0.04074  0.70265  0.39959  1.0000
  H   H513      1.0  0.07672  0.70815  0.38919  1.0000
  H   H514      1.0  0.01225  0.58858  0.36283  1.0000
  H   H515      1.0  0.03134  0.73773  0.38186  1.0000
  H   H516      1.0  0.16616  0.51013  0.35182  1.0000
  H   H517      1.0  0.13886  0.87983  0.55376  1.0000
  H   H518      1.0  0.21010  0.99954  0.61119  1.0000
  C   C323      1.0  0.13265  0.98351  0.42230  1.0000
  C   C324      1.0  0.22101  0.98742  0.61498  1.0000
  H   H519      1.0  0.11611  0.73290  0.63879  1.0000
  H   H520      1.0  0.14969  0.99163  0.56495  1.0000
  C   C325      1.0  0.13339  0.69962  0.65488  1.0000
  H   H521      1.0  0.21348  0.97580  0.62335  1.0000
  C   C326      1.0  0.08639  0.65812  0.66532  1.0000
  C   C327      1.0  0.14157  0.99998  0.41895  1.0000
  C   C328      1.0  0.03160  0.56384  0.33660  1.0000
  Fe  Fe58      1.0  0.10401  0.58598  0.33444  1.0000
  H   H522      1.0  0.04474  0.50336  0.34806  1.0000
  S   S121      1.0  0.08327  0.61248  0.33720  1.0000
  C   C329      1.0  0.99877  0.73135  0.59799  1.0000
  H   H523      1.0  0.02704  0.53596  0.35061  1.0000
  C   C330      1.0  0.00292  0.55024  0.33765  1.0000
  C   C331      1.0  0.10885  0.63001  0.65998  1.0000
  H   H524      1.0  0.02107  0.50167  0.35926  1.0000
  Fe  Fe59      1.0  0.08083  0.56620  0.72143  1.0000
  H   H525      1.0  0.01020  0.55180  0.84579  1.0000
  C   C332      1.0  0.08061  0.58836  0.90638  1.0000
  Fe  Fe60      1.0  0.07627  0.54616  0.87744  1.0000
  S   S122      1.0  0.08638  0.52724  0.85483  1.0000
  S   S123      1.0  0.04605  0.55969  0.88490  1.0000
  Fe  Fe61      1.0  0.11616  0.54538  0.88793  1.0000
  S   S124      1.0  0.12922  0.52642  0.86616  1.0000
  S   S125      1.0  0.13101  0.55606  0.90924  1.0000
  Fe  Fe62      1.0  0.11019  0.54475  0.84670  1.0000
  S   S126      1.0  0.12284  0.55331  0.81642  1.0000
  H   H526      1.0  0.00743  0.60024  0.68115  1.0000
  H   H527      1.0  0.01538  0.53077  0.72746  1.0000
  S   S127      1.0  0.09891  0.56518  0.86763  1.0000
  S   S128      1.0  0.09261  0.52797  0.89935  1.0000
  S   S129      1.0  0.21944  0.53465  0.91259  1.0000
  H   H528      1.0  0.13890  0.52198  0.79192  1.0000
  H   H529      1.0  0.07199  0.52080  0.77069  1.0000
  C   C333      1.0  0.00827  0.55698  0.88696  1.0000
  C   C334      1.0  0.15555  0.54962  0.91039  1.0000
  C   C335      1.0  0.16361  0.55455  0.92529  1.0000
  C   C336      1.0  0.18307  0.54985  0.92643  1.0000
  C   C337      1.0  0.19472  0.54033  0.91253  1.0000
  C   C338      1.0  0.18667  0.53548  0.89764  1.0000
  C   C339      1.0  0.16723  0.53999  0.89662  1.0000
  H   H530      1.0  0.15474  0.56200  0.93603  1.0000
  H   H531      1.0  0.18903  0.55371  0.93797  1.0000
  H   H532      1.0  0.19554  0.52820  0.88677  1.0000
  H   H533      1.0  0.16133  0.53619  0.88502  1.0000
  C   C340      1.0  0.00303  0.54855  0.81083  1.0000
  C   C341      1.0  0.01369  0.51886  0.88131  1.0000
  C   C342      1.0  0.02933  0.52836  0.88121  1.0000
  C   C343      1.0  0.02671  0.54743  0.88422  1.0000
  C   C344      1.0  0.00220  0.52799  0.70335  1.0000
  C   C345      1.0  0.02462  0.55470  0.68311  1.0000
  H   H534      1.0  0.00608  0.57172  0.88936  1.0000
  H   H535      1.0  0.04341  0.52080  0.87915  1.0000
  H   H536      1.0  0.10525  0.52124  0.75690  1.0000
  S   S130      1.0  0.07198  0.59029  0.69912  1.0000
  C   C346      1.0  0.08455  0.56047  0.77005  1.0000
  C   C347      1.0  0.07709  0.55700  0.78923  1.0000
  C   C348      1.0  0.08874  0.55470  0.80354  1.0000
  C   C349      1.0  0.10794  0.55593  0.79874  1.0000
  C   C350      1.0  0.11548  0.55912  0.77954  1.0000
  C   C351      1.0  0.10382  0.56132  0.76520  1.0000
  S   S131      1.0  0.09388  0.56191  0.66764  1.0000
  H   H537      1.0  0.08276  0.55245  0.81828  1.0000
  H   H538      1.0  0.13031  0.56021  0.77573  1.0000
  H   H539      1.0  0.10967  0.56412  0.75044  1.0000
  H   H540      1.0  0.05207  0.60618  0.92807  1.0000
  C   C352      1.0  0.01457  0.53530  0.71250  1.0000
  H   H541      1.0  0.03395  0.55562  0.70990  1.0000
  H   H542      1.0  0.23292  0.61678  0.88436  1.0000
  C   C353      1.0  0.06996  0.51301  0.75907  1.0000
  H   H543      1.0  0.11570  0.50567  0.73951  1.0000
  Fe  Fe63      1.0  0.24529  0.53514  0.97592  1.0000
  C   C354      1.0  0.07519  0.56119  0.92984  1.0000
  H   H544      1.0  0.22626  0.60196  0.86917  1.0000
  Fe  Fe64      1.0  0.10446  0.51059  0.87607  1.0000
  Fe  Fe65      1.0  0.10113  0.58369  0.68388  1.0000
  H   H545      1.0  0.06999  0.55595  0.94481  1.0000
  Fe  Fe66      1.0  0.06535  0.56746  0.68423  1.0000
  H   H546      1.0  0.23490  0.56659  0.87522  1.0000
  C   C355      1.0  0.14044  0.71949  0.67636  1.0000
  H   H547      1.0  0.01210  0.53594  0.81714  1.0000
  H   H548      1.0  0.06680  0.55578  0.92056  1.0000
  Fe  Fe67      1.0  0.23814  0.53661  0.93495  1.0000
  H   H549      1.0  0.05851  0.50411  0.76447  1.0000
  H   H550      1.0  0.99738  0.58617  0.66786  1.0000
  H   H551      1.0  0.06218  0.55640  0.79305  1.0000
  C   C356      1.0  0.08520  0.58868  0.93882  1.0000
  H   H552      1.0  0.04487  0.58556  0.92136  1.0000
  H   H553      1.0  0.06492  0.52398  0.74755  1.0000
  H   H554      1.0  0.08449  0.60446  0.93659  1.0000
  N   N35       1.0  0.24007  0.58674  0.89249  1.0000
  H   H555      1.0  0.21725  0.59780  0.91231  1.0000
  H   H556      1.0  0.12861  0.71524  0.68718  1.0000
  C   C357      1.0  0.05379  0.59035  0.93059  1.0000
  S   S132      1.0  0.07155  0.54399  0.70764  1.0000
  H   H557      1.0  0.07226  0.58361  0.89662  1.0000
  C   C358      1.0  0.00137  0.56409  0.83861  1.0000
  H   H558      1.0  0.09561  0.58240  0.90276  1.0000
  H   H559      1.0  0.01097  0.57426  0.83089  1.0000
  H   H560      1.0  0.14277  0.73400  0.67836  1.0000
  C   C359      1.0  0.00061  0.53439  0.68419  1.0000
  S   S133      1.0  0.06931  0.56357  0.75265  1.0000
  S   S134      1.0  0.11476  0.50963  0.69480  1.0000
  H   H561      1.0  0.09008  0.55457  0.92692  1.0000
  H   H562      1.0  0.15328  0.70954  0.67948  1.0000
  S   S135      1.0  0.11075  0.56140  0.70769  1.0000
  H   H563      1.0  0.08553  0.63051  0.68231  1.0000
  H   H564      1.0  0.10031  0.58265  0.93584  1.0000
  H   H565      1.0  0.04803  0.58592  0.94560  1.0000
  N   N36       1.0  0.07368  0.58217  0.92644  1.0000
  H   H566      1.0  0.01246  0.55847  0.80224  1.0000
  H   H567      1.0  0.08048  0.58416  0.95409  1.0000
  H   H568      1.0  0.07970  0.60412  0.90321  1.0000
  S   S136      1.0  0.23923  0.55946  0.95293  1.0000
  C   C360      1.0  0.02538  0.54905  0.70249  1.0000
  C   C361      1.0  0.22225  0.58488  0.90524  1.0000
  Fe  Fe68      1.0  0.10071  0.54028  0.69267  1.0000
  H   H569      1.0  0.09811  0.52505  0.73376  1.0000
  H   H570      1.0  0.01591  0.50400  0.87934  1.0000
  H   H571      1.0  0.21092  0.58235  0.89745  1.0000
  S   S137      1.0  0.11841  0.60609  0.66683  1.0000
  C   C362      1.0  0.01209  0.54752  0.67396  1.0000
  C   C363      1.0  0.10235  0.51382  0.74540  1.0000
  H   H572      1.0  0.22395  0.57261  0.91664  1.0000
  S   S138      1.0  0.03902  0.57103  0.67048  1.0000
  H   H573      1.0  0.08053  0.51243  0.67752  1.0000
  C   C364      1.0  0.23730  0.60343  0.87784  1.0000
  H   H574      1.0  0.07425  0.66479  0.67372  1.0000
  H   H575      1.0  0.11765  0.51603  0.82124  1.0000
  H   H576      1.0  0.15109  0.52170  0.82219  1.0000
  S   S139      1.0  0.24160  0.51277  0.95885  1.0000
  C   C365      1.0  0.09273  0.63867  0.67022  1.0000
  N   N37       1.0  0.08755  0.50138  0.75217  1.0000
  C   C366      1.0  0.15542  0.50608  0.82247  1.0000
  C   C367      1.0  0.14330  0.50630  0.79296  1.0000
  H   H577      1.0  0.15771  0.50404  0.78509  1.0000
  H   H578      1.0  0.17018  0.50400  0.81545  1.0000
  H   H579      1.0  0.07987  0.50241  0.72426  1.0000
  Fe  Fe69      1.0  0.46335  0.14667  0.08846  1.0000
  S   S140      1.0  0.45904  0.11627  0.08960  1.0000
  Fe  Fe70      1.0  0.42357  0.15881  0.10460  1.0000
  S   S141      1.0  0.41544  0.12941  0.10705  1.0000
  S   S142      1.0  0.40246  0.18431  0.11064  1.0000
  Fe  Fe71      1.0  0.44289  0.11944  0.11863  1.0000
  S   S143      1.0  0.44986  0.09450  0.14154  1.0000
  Fe  Fe72      1.0  0.43208  0.12827  0.07794  1.0000
  S   S144      1.0  0.42023  0.11607  0.05552  1.0000
  S   S145      1.0  0.44977  0.14910  0.11834  1.0000
  S   S146      1.0  0.43763  0.15847  0.07465  1.0000
  Fe  Fe73      1.0  0.45579  0.31373  0.08219  1.0000
  S   S147      1.0  0.45962  0.28195  0.08531  1.0000
  C   C368      1.0  0.28008  0.46125  0.02160  1.0000
  Fe  Fe74      1.0  0.41398  0.31702  0.07647  1.0000
  S   S148      1.0  0.41520  0.28533  0.07850  1.0000
  S   S149      1.0  0.38662  0.33331  0.06713  1.0000
  Fe  Fe75      1.0  0.43130  0.28381  0.10285  1.0000
  S   S150      1.0  0.42598  0.26099  0.12768  1.0000
  Fe  Fe76      1.0  0.44317  0.28564  0.06088  1.0000
  S   S151      1.0  0.45467  0.26704  0.03839  1.0000
  S   S152      1.0  0.42847  0.31574  0.10238  1.0000
  S   S153      1.0  0.44093  0.31735  0.05627  1.0000
  Fe  Fe77      1.0  0.41841  0.05286  0.25026  1.0000
  S   S154      1.0  0.41659  0.07074  0.27378  1.0000
  S   S155      1.0  0.40634  0.06769  0.22326  1.0000
  H   H580      1.0  0.48341  0.27654  0.00999  1.0000
  Fe  Fe78      1.0  0.40739  0.04576  0.29423  1.0000
  H   H581      1.0  0.43839  0.11386  0.19709  1.0000
  Fe  Fe79      1.0  0.44611  0.05670  0.27644  1.0000
  S   S156      1.0  0.40651  0.02888  0.27047  1.0000
  S   S157      1.0  0.44847  0.04005  0.25203  1.0000
  N   N38       1.0  0.41163  0.07241  0.10417  1.0000
  Fe  Fe80      1.0  0.28622  0.38705  0.09773  1.0000
  S   S158      1.0  0.26386  0.36942  0.09524  1.0000
  S   S159      1.0  0.31342  0.37669  0.11078  1.0000
  C   C369      1.0  0.48291  0.31145  0.01834  1.0000
  H   H582      1.0  0.41490  0.10713  0.22473  1.0000
  H   H583      1.0  0.36131  0.43649  0.06570  1.0000
  H   H584      1.0  0.45524  0.09567  0.20709  1.0000
  H   H585      1.0  0.44592  0.14512  0.21891  1.0000
  S   S160      1.0  0.26505  0.41002  0.10976  1.0000
  S   S161      1.0  0.28705  0.40203  0.06795  1.0000
  C   C370      1.0  0.40963  0.05227  0.10388  1.0000
  H   H586      1.0  0.40946  0.04934  0.08914  1.0000
  C   C371      1.0  0.29760  0.48892  0.09782  1.0000
  H   H587      1.0  0.45142  0.11370  0.25320  1.0000
  H   H588      1.0  0.42985  0.07449  0.07755  1.0000
  H   H589      1.0  0.32060  0.45402  0.07290  1.0000
  H   H590      1.0  0.45274  0.29870  0.01000  1.0000
  H   H591      1.0  0.28485  0.46823  0.03248  1.0000
  H   H592      1.0  0.44006  0.23659  0.07961  1.0000
  C   C372      1.0  0.28878  0.49742  0.08205  1.0000
  H   H593      1.0  0.44550  0.21808  0.05338  1.0000
  C   C373      1.0  0.29605  0.46984  0.10501  1.0000
  C   C374      1.0  0.28585  0.45922  0.09636  1.0000
  C   C375      1.0  0.27726  0.46766  0.08043  1.0000
  C   C376      1.0  0.27865  0.48680  0.07337  1.0000
  H   H594      1.0  0.49106  0.22441  0.06796  1.0000
  H   H595      1.0  0.30256  0.46338  0.11744  1.0000
  H   H596      1.0  0.28453  0.44459  0.10210  1.0000
  H   H597      1.0  0.46097  0.11946  0.20007  1.0000
  C   C377      1.0  0.42941  0.07687  0.09257  1.0000
  Fe  Fe81      1.0  0.26425  0.42346  0.07964  1.0000
  S   S162      1.0  0.38211  0.04550  0.31751  1.0000
  S   S163      1.0  0.26783  0.37001  0.04043  1.0000
  C   C378      1.0  0.45488  0.19955  0.08706  1.0000
  C   C379      1.0  0.36660  0.34549  0.07965  1.0000
  C   C380      1.0  0.36687  0.35104  0.09741  1.0000
  C   C381      1.0  0.35043  0.36042  0.10687  1.0000
  C   C382      1.0  0.33362  0.36442  0.09865  1.0000
  C   C383      1.0  0.33343  0.35905  0.08083  1.0000
  C   C384      1.0  0.34984  0.34969  0.07139  1.0000
  H   H598      1.0  0.37980  0.34833  0.10371  1.0000
  H   H599      1.0  0.35076  0.36473  0.12057  1.0000
  H   H600      1.0  0.32061  0.36207  0.07430  1.0000
  H   H601      1.0  0.34949  0.34556  0.05761  1.0000
  C   C385      1.0  0.43813  0.26282  0.02472  1.0000
  C   C386      1.0  0.45524  0.23347  0.08133  1.0000
  H   H602      1.0  0.42875  0.14009  0.23919  1.0000
  C   C387      1.0  0.39570  0.08482  0.09618  1.0000
  C   C388      1.0  0.40589  0.26354  0.01903  1.0000
  C   C389      1.0  0.41881  0.26642  0.03064  1.0000
  H   H603      1.0  0.44185  0.06819  0.09835  1.0000
  H   H604      1.0  0.32724  0.40155  0.07055  1.0000
  H   H605      1.0  0.39097  0.26657  0.02351  1.0000
  H   H606      1.0  0.41377  0.27154  0.04405  1.0000
  C   C390      1.0  0.43767  0.08796  0.16447  1.0000
  C   C391      1.0  0.44675  0.07396  0.17725  1.0000
  C   C392      1.0  0.43751  0.06784  0.19539  1.0000
  C   C393      1.0  0.41890  0.07542  0.20086  1.0000
  C   C394      1.0  0.40982  0.08943  0.18809  1.0000
  C   C395      1.0  0.41918  0.09581  0.17007  1.0000
  H   H607      1.0  0.46100  0.06768  0.17303  1.0000
  H   H608      1.0  0.44462  0.05693  0.20496  1.0000
  H   H609      1.0  0.39540  0.09535  0.19215  1.0000
  H   H610      1.0  0.41196  0.10655  0.16042  1.0000
  C   C396      1.0  0.43070  0.11758  0.03137  1.0000
  C   C397      1.0  0.44953  0.12038  0.02604  1.0000
  H   H611      1.0  0.47659  0.30160  0.03032  1.0000
  C   C398      1.0  0.25819  0.38021  0.01951  1.0000
  H   H612      1.0  0.47616  0.32614  0.02035  1.0000
  C   C399      1.0  0.42016  0.11492  0.01732  1.0000
  H   H613      1.0  0.45785  0.12241  0.03666  1.0000
  S   S164      1.0  0.43684  0.03333  0.29886  1.0000
  S   S165      1.0  0.48115  0.32991  0.07764  1.0000
  H   H614      1.0  0.40559  0.11270  0.02126  1.0000
  C   C400      1.0  0.42054  0.23946  0.12209  1.0000
  C   C401      1.0  0.40924  0.23958  0.10795  1.0000
  C   C402      1.0  0.40395  0.22258  0.10447  1.0000
  C   C403      1.0  0.41040  0.20516  0.11466  1.0000
  C   C404      1.0  0.42222  0.20484  0.12841  1.0000
  C   C405      1.0  0.42704  0.22201  0.13231  1.0000
  H   H615      1.0  0.40405  0.25278  0.10002  1.0000
  H   H616      1.0  0.39474  0.22291  0.09388  1.0000
  H   H617      1.0  0.42708  0.19146  0.13650  1.0000
  H   H618      1.0  0.43572  0.22176  0.14334  1.0000
  H   H619      1.0  0.35036  0.44724  0.08629  1.0000
  N   N39       1.0  0.36393  0.29468  0.12206  1.0000
  C   C406      1.0  0.35587  0.29188  0.14227  1.0000
  C   C407      1.0  0.34977  0.30616  0.11072  1.0000
  C   C408      1.0  0.36953  0.27597  0.11525  1.0000
  C   C409      1.0  0.38065  0.30464  0.11999  1.0000
  H   H620      1.0  0.35136  0.30575  0.14782  1.0000
  H   H621      1.0  0.36631  0.28340  0.15120  1.0000
  H   H622      1.0  0.34333  0.28421  0.14439  1.0000
  H   H623      1.0  0.35550  0.30868  0.09539  1.0000
  H   H624      1.0  0.33701  0.29903  0.11181  1.0000
  H   H625      1.0  0.34515  0.32037  0.11550  1.0000
  H   H626      1.0  0.37580  0.27759  0.10006  1.0000
  H   H627      1.0  0.35732  0.26798  0.11653  1.0000
  H   H628      1.0  0.38019  0.26696  0.12358  1.0000
  H   H629      1.0  0.38644  0.30796  0.10479  1.0000
  H   H630      1.0  0.39210  0.29587  0.12742  1.0000
  H   H631      1.0  0.37721  0.31837  0.12591  1.0000
  H   H632      1.0  0.39864  0.07243  0.13320  1.0000
  H   H633      1.0  0.33059  0.44275  0.05242  1.0000
  H   H634      1.0  0.42321  0.14004  0.21568  1.0000
  H   H635      1.0  0.42004  0.10768  0.24827  1.0000
  H   H636      1.0  0.30995  0.43515  0.06691  1.0000
  Fe  Fe82      1.0  0.43650  0.01764  0.27417  1.0000
  H   H637      1.0  0.36255  0.42342  0.08903  1.0000
  H   H638      1.0  0.39537  0.08294  0.08114  1.0000
  H   H639      1.0  0.38197  0.08191  0.10447  1.0000
  H   H640      1.0  0.27626  0.49980  0.01349  1.0000
  H   H641      1.0  0.43102  0.09206  0.09214  1.0000
  C   C410      1.0  0.34016  0.40807  0.07075  1.0000
  H   H642      1.0  0.49116  0.19921  0.07024  1.0000
  C   C411      1.0  0.41183  0.07564  0.12397  1.0000
  H   H643      1.0  0.42147  0.04254  0.10976  1.0000
  H   H644      1.0  0.39634  0.04841  0.11249  1.0000
  C   C412      1.0  0.35327  0.43363  0.08007  1.0000
  H   H645      1.0  0.33349  0.30822  0.00682  1.0000
  H   H646      1.0  0.45650  0.23363  0.09655  1.0000
  N   N40       1.0  0.46375  0.21515  0.07489  1.0000
  S   S166      1.0  0.46853  0.07516  0.27697  1.0000
  C   C413      1.0  0.46073  0.21528  0.05499  1.0000
  H   H647      1.0  0.47972  0.03504  0.28850  1.0000
  C   C414      1.0  0.43463  0.13615  0.22488  1.0000
  S   S167      1.0  0.49040  0.15677  0.07405  1.0000
  C   C415      1.0  0.45683  0.11095  0.23838  1.0000
  H   H648      1.0  0.27491  0.44783  0.02899  1.0000
  C   C416      1.0  0.32557  0.42233  0.09852  1.0000
  H   H649      1.0  0.46264  0.09559  0.23931  1.0000
  C   C417      1.0  0.48888  0.06261  0.28576  1.0000
  H   H650      1.0  0.43964  0.20089  0.08582  1.0000
  H   H651      1.0  0.29256  0.45732  0.01123  1.0000
  H   H652      1.0  0.34959  0.39733  0.07906  1.0000
  Fe  Fe83      1.0  0.26352  0.38586  0.06585  1.0000
  H   H653      1.0  0.43147  0.08887  0.23514  1.0000
  H   H654      1.0  0.27195  0.49349  0.06111  1.0000
  C   C418      1.0  0.42638  0.10440  0.23386  1.0000
  S   S168      1.0  0.26456  0.45478  0.06917  1.0000
  C   C419      1.0  0.32370  0.44008  0.06731  1.0000
  C   C420      1.0  0.26365  0.37135  0.00310  1.0000
  H   H655      1.0  0.46142  0.18550  0.08303  1.0000
  H   H656      1.0  0.46219  0.24540  0.07295  1.0000
  H   H657      1.0  0.31182  0.41733  0.09832  1.0000
  C   C421      1.0  0.45787  0.11978  0.00706  1.0000
  H   H658      1.0  0.41339  0.09066  0.12479  1.0000
  H   H659      1.0  0.42382  0.06667  0.13036  1.0000
  H   H660      1.0  0.46769  0.22658  0.04532  1.0000
  H   H661      1.0  0.48697  0.21090  0.09114  1.0000
  H   H662      1.0  0.32270  0.43532  0.10568  1.0000
  H   H663      1.0  0.33376  0.41104  0.10759  1.0000
  H   H664      1.0  0.34728  0.41030  0.05591  1.0000
  H   H665      1.0  0.48399  0.16364  0.11357  1.0000
  N   N41       1.0  0.33567  0.42603  0.07915  1.0000
  H   H666      1.0  0.39680  0.10015  0.09607  1.0000
  C   C422      1.0  0.44948  0.11100  0.20671  1.0000
  N   N42       1.0  0.44185  0.11566  0.22594  1.0000
  H   H667      1.0  0.45633  0.19934  0.10228  1.0000
  C   C423      1.0  0.44453  0.25608  0.00735  1.0000
  C   C424      1.0  0.48414  0.21231  0.07616  1.0000
  H   H668      1.0  0.46866  0.11938  0.23314  1.0000
  H   H669      1.0  0.47260  0.12136  0.00326  1.0000
  H   H670      1.0  0.36624  0.31524  0.00489  1.0000
  C   C425      1.0  0.49093  0.04279  0.29007  1.0000
  H   H671      1.0  0.46649  0.20139  0.04991  1.0000
  C   C426      1.0  0.41235  0.25753  0.00131  1.0000
  H   H672      1.0  0.25387  0.45075  0.00415  1.0000
  H   H673      1.0  0.27379  0.35862  0.00345  1.0000
  H   H674      1.0  0.49218  0.30008  0.10800  1.0000
  H   H675      1.0  0.45945  0.25324  0.00271  1.0000
  C   C427      1.0  0.27258  0.49164  0.00291  1.0000
  H   H676      1.0  0.25314  0.48015  0.11137  1.0000
  H   H677      1.0  0.25444  0.49877  0.14665  1.0000
  C   C428      1.0  0.24882  0.47856  0.02629  1.0000
  H   H678      1.0  0.25265  0.48595  0.03738  1.0000
  N   N43       1.0  0.26525  0.47390  0.01212  1.0000
  Fe  Fe84      1.0  0.35809  0.04898  0.63630  1.0000
  C   C429      1.0  0.31217  0.06309  0.56447  1.0000
  H   H679      1.0  0.27471  0.06338  0.56978  1.0000
  Fe  Fe85      1.0  0.35207  0.03398  0.59990  1.0000
  S   S169      1.0  0.32148  0.03378  0.60971  1.0000
  S   S170      1.0  0.36147  0.02031  0.57300  1.0000
  Fe  Fe86      1.0  0.32206  0.06207  0.61869  1.0000
  S   S171      1.0  0.29833  0.08408  0.60964  1.0000
  Fe  Fe87      1.0  0.32954  0.02185  0.63831  1.0000
  S   S172      1.0  0.35245  0.06337  0.60689  1.0000
  S   S173      1.0  0.36035  0.01973  0.62804  1.0000
  Fe  Fe88      1.0  0.35132  0.05010  0.42817  1.0000
  S   S174      1.0  0.32443  0.03778  0.42862  1.0000
  S   S175      1.0  0.37681  0.05352  0.40553  1.0000
  Fe  Fe89      1.0  0.34188  0.05705  0.47007  1.0000
  S   S176      1.0  0.31444  0.04550  0.47405  1.0000
  S   S177      1.0  0.35245  0.06973  0.49275  1.0000
  Fe  Fe90      1.0  0.33030  0.02286  0.45748  1.0000
  Fe  Fe91      1.0  0.31054  0.06146  0.44521  1.0000
  S   S178      1.0  0.28275  0.07960  0.44177  1.0000
  S   S179      1.0  0.35820  0.03294  0.45584  1.0000
  S   S180      1.0  0.33678  0.07517  0.44245  1.0000
  C   C430      1.0  0.40405  0.08554  0.46380  1.0000
  C   C431      1.0  0.26068  0.08390  0.60866  1.0000
  C   C432      1.0  0.26692  0.04999  0.43336  1.0000
  C   C433      1.0  0.26391  0.06704  0.44116  1.0000
  H   H680      1.0  0.40931  0.05421  0.34024  1.0000
  H   H681      1.0  0.40974  0.04898  0.45764  1.0000
  N   N44       1.0  0.29862  0.07358  0.55189  1.0000
  H   H682      1.0  0.28103  0.04408  0.42820  1.0000
  N   N45       1.0  0.39860  0.07779  0.44785  1.0000
  C   C434      1.0  0.39645  0.05748  0.45363  1.0000
  C   C435      1.0  0.27679  0.07505  0.61668  1.0000
  H   H683      1.0  0.34958  0.00310  0.43251  1.0000
  H   H684      1.0  0.30585  0.10091  0.55462  1.0000
  C   C436      1.0  0.27566  0.05889  0.63022  1.0000
  H   H685      1.0  0.26144  0.09649  0.59830  1.0000
  H   H686      1.0  0.31194  0.05956  0.52796  1.0000
  H   H687      1.0  0.25388  0.02812  0.42494  1.0000
  C   C437      1.0  0.35854  0.03425  0.55089  1.0000
  C   C438      1.0  0.35979  0.05376  0.54809  1.0000
  C   C439      1.0  0.35806  0.06443  0.53016  1.0000
  C   C440      1.0  0.35468  0.05578  0.51500  1.0000
  C   C441      1.0  0.35315  0.03631  0.51786  1.0000
  C   C442      1.0  0.35533  0.02554  0.53569  1.0000
  H   H688      1.0  0.36252  0.06053  0.55965  1.0000
  H   H689      1.0  0.35936  0.07946  0.52804  1.0000
  H   H690      1.0  0.35064  0.02950  0.50623  1.0000
  H   H691      1.0  0.28696  0.09325  0.57162  1.0000
  C   C443      1.0  0.36252  0.04759  0.37344  1.0000
  C   C444      1.0  0.37785  0.05170  0.38101  1.0000
  C   C445      1.0  0.39470  0.05408  0.36888  1.0000
  C   C446      1.0  0.39627  0.05233  0.34940  1.0000
  H   H692      1.0  0.34946  0.04576  0.38257  1.0000
  H   H693      1.0  0.40665  0.05728  0.37457  1.0000
  H   H694      1.0  0.29737  0.08161  0.52192  1.0000
  H   H695      1.0  0.28797  0.05204  0.63658  1.0000
  H   H696      1.0  0.40929  0.07388  0.41898  1.0000
  C   C447      1.0  0.38058  0.08843  0.44276  1.0000
  H   H697      1.0  0.31996  0.08170  0.52911  1.0000
  H   H698      1.0  0.39317  0.08422  0.47653  1.0000
  H   H699      1.0  0.41756  0.07781  0.46810  1.0000
  C   C448      1.0  0.25843  0.05185  0.63606  1.0000
  H   H700      1.0  0.36923  0.08734  0.45503  1.0000
  C   C449      1.0  0.30732  0.07414  0.53187  1.0000
  C   C450      1.0  0.36406  0.04595  0.35395  1.0000
  H   H701      1.0  0.31732  0.04851  0.56083  1.0000
  H   H702      1.0  0.38543  0.05558  0.46611  1.0000
  C   C451      1.0  0.28163  0.06390  0.55480  1.0000
  H   H703      1.0  0.37600  0.08287  0.43082  1.0000
  C   C452      1.0  0.41320  0.07964  0.43119  1.0000
  H   H704      1.0  0.40568  0.10088  0.46002  1.0000
  C   C453      1.0  0.29335  0.09321  0.55654  1.0000
  S   S181      1.0  0.38174  0.05476  0.65128  1.0000
  C   C454      1.0  0.38090  0.04834  0.34181  1.0000
  H   H705      1.0  0.38164  0.10381  0.43826  1.0000
  S   S182      1.0  0.32757  0.05017  0.64852  1.0000
  H   H706      1.0  0.28302  0.10156  0.54746  1.0000
  H   H707      1.0  0.27106  0.07141  0.54553  1.0000
  H   H708      1.0  0.35208  0.04288  0.34822  1.0000
  H   H709      1.0  0.30569  0.06161  0.57956  1.0000
  H   H710      1.0  0.42701  0.07170  0.43443  1.0000
  C   C455      1.0  0.25155  0.04098  0.43154  1.0000
  H   H711      1.0  0.39235  0.05118  0.44190  1.0000
  H   H712      1.0  0.41517  0.09479  0.42635  1.0000
  H   H713      1.0  0.35458  0.01042  0.53773  1.0000
  H   H714      1.0  0.28513  0.04900  0.55156  1.0000
  H   H715      1.0  0.29629  0.00850  0.62422  1.0000
  H   H716      1.0  0.32463  0.07063  0.56363  1.0000
  H   H717      1.0  0.40408  0.01414  0.37162  1.0000
  H   H718      1.0  0.25759  0.03962  0.64690  1.0000
  H   H719      1.0  0.38156  0.00545  0.34195  1.0000
  H   H720      1.0  0.40478  0.01207  0.33710  1.0000
  H   H721      1.0  0.38080  0.00767  0.37582  1.0000
  C   C456      1.0  0.39598  0.00181  0.37473  1.0000
  H   H722      1.0  0.25200  0.00377  0.60066  1.0000
  H   H723      1.0  0.25464  0.01299  0.62183  1.0000
  Fe  Fe92      1.0  0.44682  0.05304  0.75621  1.0000
  S   S183      1.0  0.41936  0.07169  0.76061  1.0000
  H   H724      1.0  0.37273  0.00811  0.73936  1.0000
  Fe  Fe93      1.0  0.43222  0.01856  0.77923  1.0000
  S   S184      1.0  0.40331  0.03413  0.78632  1.0000
  H   H725      1.0  0.27161  0.46052  0.98673  1.0000
  Fe  Fe94      1.0  0.40643  0.04677  0.75546  1.0000
  S   S185      1.0  0.38028  0.04921  0.74095  1.0000
  Fe  Fe95      1.0  0.41815  0.05806  0.79110  1.0000
  S   S186      1.0  0.40721  0.07946  0.81182  1.0000
  S   S187      1.0  0.43419  0.02927  0.74812  1.0000
  S   S188      1.0  0.44673  0.04114  0.78692  1.0000
  Fe  Fe96      1.0  0.40930  0.27044  0.95744  1.0000
  S   S189      1.0  0.41717  0.29950  0.95637  1.0000
  C   C457      1.0  0.48754  0.07640  0.78804  1.0000
  Fe  Fe97      1.0  0.42405  0.26847  0.91615  1.0000
  S   S190      1.0  0.43289  0.29780  0.91147  1.0000
  S   S191      1.0  0.43327  0.24698  0.89585  1.0000
  Fe  Fe98      1.0  0.44437  0.28899  0.93937  1.0000
  S   S192      1.0  0.47293  0.28774  0.94933  1.0000
  Fe  Fe99      1.0  0.40467  0.30575  0.92888  1.0000
  S   S193      1.0  0.38433  0.33336  0.92569  1.0000
  S   S194      1.0  0.43708  0.25932  0.94275  1.0000
  S   S195      1.0  0.39518  0.27700  0.93117  1.0000
  Fe  Fe100     1.0  0.43227  0.10616  0.90745  1.0000
  S   S196      1.0  0.43129  0.13541  0.89095  1.0000
  S   S197      1.0  0.43245  0.07998  0.89298  1.0000
  Fe  Fe101     1.0  0.44547  0.11886  0.94247  1.0000
  S   S198      1.0  0.44610  0.14855  0.92765  1.0000
  S   S199      1.0  0.45908  0.11465  0.96973  1.0000
  Fe  Fe102     1.0  0.41869  0.14543  0.91877  1.0000
  S   S200      1.0  0.39689  0.17085  0.92232  1.0000
  Fe  Fe103     1.0  0.45859  0.13584  0.90142  1.0000
  H   H726      1.0  0.39373  0.00819  0.74955  1.0000
  S   S201      1.0  0.41704  0.11604  0.93503  1.0000
  S   S202      1.0  0.46046  0.10627  0.91661  1.0000
  Fe  Fe104     1.0  0.27523  0.36417  0.91791  1.0000
  H   H727      1.0  0.39690  0.18176  0.95870  1.0000
  S   S203      1.0  0.29707  0.33767  0.91879  1.0000
  H   H728      1.0  0.48135  0.02504  0.82636  1.0000
  H   H729      1.0  0.40994  0.05761  0.67425  1.0000
  C   C458      1.0  0.35969  0.29736  0.96566  1.0000
  C   C459      1.0  0.49405  0.29603  0.93776  1.0000
  C   C460      1.0  0.36757  0.07778  0.78590  1.0000
  H   H730      1.0  0.46912  0.23389  0.92236  1.0000
  S   S204      1.0  0.27730  0.38969  0.93150  1.0000
  S   S205      1.0  0.27080  0.38092  0.88948  1.0000
  C   C461      1.0  0.28698  0.44642  0.90695  1.0000
  S   S206      1.0  0.28914  0.48296  0.95288  1.0000
  H   H731      1.0  0.34239  0.28509  0.00003  1.0000
  C   C462      1.0  0.28896  0.46927  0.93475  1.0000
  C   C463      1.0  0.28500  0.47774  0.91667  1.0000
  C   C464      1.0  0.28438  0.46629  0.90265  1.0000
  H   H732      1.0  0.41762  0.16251  0.99208  1.0000
  Fe  Fe105     1.0  0.24601  0.39146  0.93871  1.0000
  C   C465      1.0  0.48075  0.11363  0.82265  1.0000
  H   H733      1.0  0.28137  0.47284  0.88864  1.0000
  C   C466      1.0  0.36004  0.33421  0.92405  1.0000
  C   C467      1.0  0.34769  0.35083  0.92742  1.0000
  C   C468      1.0  0.32829  0.35195  0.92638  1.0000
  C   C469      1.0  0.32112  0.33662  0.92146  1.0000
  C   C470      1.0  0.33345  0.31997  0.91827  1.0000
  C   C471      1.0  0.35278  0.31874  0.91957  1.0000
  H   H734      1.0  0.35314  0.36280  0.93109  1.0000
  H   H735      1.0  0.31887  0.36465  0.92933  1.0000
  H   H736      1.0  0.32803  0.30801  0.91451  1.0000
  H   H737      1.0  0.36208  0.30591  0.91680  1.0000
  C   C472      1.0  0.42277  0.22600  0.90279  1.0000
  C   C473      1.0  0.43171  0.20898  0.89642  1.0000
  C   C474      1.0  0.42366  0.19207  0.90212  1.0000
  C   C475      1.0  0.40646  0.19216  0.91394  1.0000
  C   C476      1.0  0.39739  0.20923  0.92008  1.0000
  C   C477      1.0  0.40565  0.22606  0.91473  1.0000
  H   H738      1.0  0.44492  0.20883  0.88714  1.0000
  H   H739      1.0  0.43070  0.17899  0.89719  1.0000
  H   H740      1.0  0.38403  0.20941  0.92912  1.0000
  H   H741      1.0  0.39855  0.23915  0.91952  1.0000
  C   C478      1.0  0.41559  0.07971  0.83373  1.0000
  C   C479      1.0  0.42615  0.06380  0.84266  1.0000
  C   C480      1.0  0.43129  0.06415  0.86074  1.0000
  C   C481      1.0  0.42629  0.08050  0.86991  1.0000
  C   C482      1.0  0.41626  0.09661  0.86070  1.0000
  C   C483      1.0  0.41082  0.09614  0.84279  1.0000
  H   H742      1.0  0.42978  0.05101  0.83594  1.0000
  H   H743      1.0  0.43894  0.05158  0.86781  1.0000
  H   H744      1.0  0.41219  0.10924  0.86763  1.0000
  H   H745      1.0  0.40261  0.10851  0.83606  1.0000
  C   C484      1.0  0.38091  0.05094  0.71599  1.0000
  C   C485      1.0  0.36464  0.04890  0.70851  1.0000
  C   C486      1.0  0.36470  0.04983  0.68877  1.0000
  C   C487      1.0  0.38101  0.05304  0.67628  1.0000
  C   C488      1.0  0.39728  0.05506  0.68380  1.0000
  C   C489      1.0  0.39727  0.05396  0.70355  1.0000
  H   H746      1.0  0.35190  0.04656  0.71800  1.0000
  H   H747      1.0  0.35207  0.04830  0.68318  1.0000
  H   H748      1.0  0.26007  0.37163  0.97380  1.0000
  H   H749      1.0  0.40990  0.05561  0.70907  1.0000
  C   C490      1.0  0.45997  0.30814  0.99839  1.0000
  H   H750      1.0  0.47908  0.23197  0.88870  1.0000
  C   C491      1.0  0.48626  0.06933  0.75642  1.0000
  H   H751      1.0  0.33465  0.09698  0.77727  1.0000
  H   H752      1.0  0.36553  0.11019  0.74613  1.0000
  N   N46       1.0  0.47817  0.10460  0.84262  1.0000
  H   H753      1.0  0.37140  0.30322  0.95580  1.0000
  H   H754      1.0  0.44640  0.19138  0.95442  1.0000
  C   C492      1.0  0.49534  0.18245  0.91092  1.0000
  H   H755      1.0  0.46192  0.07620  0.77650  1.0000
  H   H756      1.0  0.48931  0.09619  0.94078  1.0000
  C   C493      1.0  0.49539  0.15910  0.88983  1.0000
  H   H757      1.0  0.37557  0.12371  0.77246  1.0000
  H   H758      1.0  0.29361  0.42280  0.92830  1.0000
  H   H759      1.0  0.28261  0.49308  0.91345  1.0000
  H   H760      1.0  0.48647  0.07614  0.83582  1.0000
  H   H761      1.0  0.48680  0.27327  0.88733  1.0000
  H   H762      1.0  0.34311  0.33714  0.98641  1.0000
  C   C494      1.0  0.48558  0.17134  0.90243  1.0000
  H   H763      1.0  0.34789  0.29778  0.95729  1.0000
  N   N47       1.0  0.41987  0.18766  0.97157  1.0000
  C   C495      1.0  0.42569  0.16732  0.97817  1.0000
  C   C496      1.0  0.33822  0.30028  0.99444  1.0000
  S   S207      1.0  0.48404  0.14291  0.88142  1.0000
  H   H764      1.0  0.44089  0.16444  0.97990  1.0000
  H   H765      1.0  0.39492  0.20571  0.96386  1.0000
  H   H766      1.0  0.48073  0.01096  0.78828  1.0000
  C   C497      1.0  0.42288  0.19948  0.98567  1.0000
  C   C498      1.0  0.29223  0.44944  0.93879  1.0000
  H   H767      1.0  0.35819  0.08687  0.75060  1.0000
  H   H768      1.0  0.48304  0.33468  0.98527  1.0000
  S   S208      1.0  0.28438  0.43213  0.89001  1.0000
  H   H769      1.0  0.36516  0.07805  0.80154  1.0000
  H   H770      1.0  0.49304  0.10606  0.81430  1.0000
  H   H771      1.0  0.47049  0.17228  0.90559  1.0000
  H   H772      1.0  0.48032  0.07939  0.80173  1.0000
  C   C499      1.0  0.47710  0.07427  0.77386  1.0000
  S   S209      1.0  0.47335  0.06288  0.74029  1.0000
  S   S210      1.0  0.39652  0.25659  0.98549  1.0000
  H   H773      1.0  0.38228  0.07116  0.78251  1.0000
  H   H774      1.0  0.42337  0.15804  0.96789  1.0000
  N   N48       1.0  0.36445  0.09709  0.77528  1.0000
  H   H775      1.0  0.46610  0.26334  0.89885  1.0000
  H   H776      1.0  0.38232  0.08938  0.75014  1.0000
  C   C500      1.0  0.29104  0.43805  0.92499  1.0000
  H   H777      1.0  0.43794  0.19775  0.98780  1.0000
  H   H778      1.0  0.39249  0.10291  0.77615  1.0000
  H   H779      1.0  0.48177  0.31539  0.91558  1.0000
  H   H780      1.0  0.35832  0.06819  0.78233  1.0000
  C   C501      1.0  0.40170  0.00413  0.71218  1.0000
  C   C502      1.0  0.34489  0.10567  0.78059  1.0000
  C   C503      1.0  0.46209  0.11537  0.85328  1.0000
  H   H781      1.0  0.45291  0.32292  0.99930  1.0000
  C   C504      1.0  0.47443  0.08480  0.84338  1.0000
  Fe  Fe106     1.0  0.27067  0.40646  0.90383  1.0000
  H   H782      1.0  0.37580  0.10974  0.79557  1.0000
  C   C505      1.0  0.36773  0.09591  0.75466  1.0000
  H   H783      1.0  0.34200  0.12026  0.77281  1.0000
  H   H784      1.0  0.34198  0.10677  0.79607  1.0000
  C   C506      1.0  0.49047  0.03071  0.81352  1.0000
  C   C507      1.0  0.37759  0.10895  0.78003  1.0000
  H   H785      1.0  0.42917  0.18463  0.94230  1.0000
  N   N49       1.0  0.32973  0.39061  0.87706  1.0000
  C   C508      1.0  0.32434  0.39708  0.89591  1.0000
  C   C509      1.0  0.34940  0.39361  0.87003  1.0000
  C   C510      1.0  0.31722  0.40167  0.86369  1.0000
  C   C511      1.0  0.32796  0.37014  0.87862  1.0000
  H   H786      1.0  0.33383  0.38952  0.90624  1.0000
  H   H787      1.0  0.30975  0.39455  0.90185  1.0000
  H   H788      1.0  0.32478  0.41264  0.89514  1.0000
  H   H789      1.0  0.35920  0.38546  0.87984  1.0000
  H   H790      1.0  0.35396  0.38887  0.85583  1.0000
  H   H791      1.0  0.35122  0.40891  0.86873  1.0000
  H   H792      1.0  0.30227  0.39970  0.86859  1.0000
  H   H793      1.0  0.32088  0.39735  0.84925  1.0000
  H   H794      1.0  0.31792  0.41723  0.86246  1.0000
  H   H795      1.0  0.33082  0.36501  0.86451  1.0000
  H   H796      1.0  0.31358  0.36710  0.88506  1.0000
  H   H797      1.0  0.33802  0.36125  0.88768  1.0000
  H   H798      1.0  0.35949  0.33496  0.96521  1.0000
  H   H799      1.0  0.40972  0.01446  0.71648  1.0000
  H   H800      1.0  0.25028  0.47132  0.94515  1.0000
  H   H801      1.0  0.45748  0.30405  0.98474  1.0000
  H   H802      1.0  0.38212  0.31322  0.98333  1.0000
  H   H803      1.0  0.28535  0.48875  0.99253  1.0000
  C   C512      1.0  0.44742  0.11683  0.99307  1.0000
  C   C513      1.0  0.25590  0.37871  0.98630  1.0000
  C   C514      1.0  0.25951  0.46421  0.99764  1.0000
  H   H804      1.0  0.48330  0.12869  0.82164  1.0000
  H   H805      1.0  0.29539  0.44283  0.95273  1.0000
  H   H806      1.0  0.49203  0.22340  0.92822  1.0000
  H   H807      1.0  0.47191  0.07777  0.85832  1.0000
  H   H808      1.0  0.24847  0.47348  0.99009  1.0000
  H   H809      1.0  0.49386  0.09824  0.86641  1.0000
  H   H810      1.0  0.48794  0.13127  0.92995  1.0000
  H   H811      1.0  0.47916  0.27467  0.91206  1.0000
  H   H812      1.0  0.42018  0.11238  0.98767  1.0000
  C   C515      1.0  0.37004  0.30722  0.99249  1.0000
  H   H813      1.0  0.46167  0.08431  0.83668  1.0000
  H   H814      1.0  0.43674  0.24875  0.98208  1.0000
  H   H815      1.0  0.46816  0.11356  0.81556  1.0000
  C   C516      1.0  0.43112  0.19333  0.95320  1.0000
  C   C517      1.0  0.34784  0.32843  0.97462  1.0000
  C   C518      1.0  0.39973  0.19058  0.96914  1.0000
  H   H816      1.0  0.39077  0.18661  0.98274  1.0000
  C   C519      1.0  0.48914  0.28676  0.99810  1.0000
  H   H817      1.0  0.41847  0.21491  0.98110  1.0000
  H   H818      1.0  0.42692  0.20851  0.94758  1.0000
  C   C520      1.0  0.48055  0.26537  0.90078  1.0000
  C   C521      1.0  0.49007  0.00288  0.79858  1.0000
  H   H819      1.0  0.45963  0.10875  0.86836  1.0000
  H   H820      1.0  0.46451  0.13032  0.85333  1.0000
  H   H821      1.0  0.48651  0.28215  0.98479  1.0000
  H   H822      1.0  0.36461  0.28215  0.97048  1.0000
  N   N50       1.0  0.35394  0.30833  0.98182  1.0000
  H   H823      1.0  0.44887  0.11583  0.84707  1.0000
  H   H824      1.0  0.38896  0.01246  0.70663  1.0000
  C   C522      1.0  0.49327  0.23498  0.89055  1.0000
  H   H825      1.0  0.33596  0.32973  0.96614  1.0000
  N   N51       1.0  0.49210  0.24695  0.90578  1.0000
  H   H826      1.0  0.48113  0.03969  0.80379  1.0000
  H   H827      1.0  0.48779  0.19146  0.92107  1.0000
  H   H828      1.0  0.32585  0.30091  0.98677  1.0000
  C   C523      1.0  0.43166  0.25364  0.99559  1.0000
  H   H829      1.0  0.48173  0.24600  0.93549  1.0000
  H   H830      1.0  0.24886  0.44627  0.94717  1.0000
  C   C524      1.0  0.49453  0.30987  0.92175  1.0000
  H   H831      1.0  0.48704  0.31640  0.97013  1.0000
  C   C525      1.0  0.48914  0.31961  0.98428  1.0000
  C   C526      1.0  0.49542  0.10460  0.85122  1.0000
  C   C527      1.0  0.48334  0.23711  0.92379  1.0000
  C   C528      1.0  0.42839  0.11479  0.99823  1.0000
  H   H832      1.0  0.41460  0.19560  0.99972  1.0000
  H   H833      1.0  0.37515  0.29221  0.99789  1.0000
  N   N52       1.0  0.48029  0.30650  0.99979  1.0000
  Fe  Fe107     1.0  0.44283  0.65520  0.11076  1.0000
  S   S211      1.0  0.45581  0.62471  0.11627  1.0000
  S   S212      1.0  0.43291  0.67091  0.13579  1.0000
  Fe  Fe108     1.0  0.44692  0.65510  0.06867  1.0000
  S   S213      1.0  0.45967  0.62459  0.07083  1.0000
  S   S214      1.0  0.44713  0.67113  0.03946  1.0000
  Fe  Fe109     1.0  0.43708  0.61994  0.09557  1.0000
  S   S215      1.0  0.42107  0.59418  0.10126  1.0000
  Fe  Fe110     1.0  0.47704  0.63255  0.09104  1.0000
  H   H834      1.0  0.40122  0.91472  0.29708  1.0000
  S   S216      1.0  0.42290  0.65008  0.09170  1.0000
  S   S217      1.0  0.46536  0.66339  0.08734  1.0000
  Fe  Fe111     1.0  0.42683  0.77394  0.10254  1.0000
  S   S218      1.0  0.42242  0.80482  0.09031  1.0000
  S   S219      1.0  0.40346  0.75859  0.11853  1.0000
  Fe  Fe112     1.0  0.46868  0.77061  0.09379  1.0000
  S   S220      1.0  0.46793  0.80109  0.08110  1.0000
  C   C529      1.0  0.48448  0.63760  0.01752  1.0000
  Fe  Fe113     1.0  0.44630  0.80732  0.10602  1.0000
  S   S221      1.0  0.44554  0.83318  0.12114  1.0000
  Fe  Fe114     1.0  0.44433  0.79587  0.06648  1.0000
  S   S222      1.0  0.44738  0.80828  0.03529  1.0000
  S   S223      1.0  0.44912  0.77703  0.11984  1.0000
  S   S224      1.0  0.44672  0.76467  0.07758  1.0000
  H   H835      1.0  0.25836  0.54558  0.06251  1.0000
  Fe  Fe115     1.0  0.46471  0.85890  0.25907  1.0000
  S   S225      1.0  0.46579  0.87001  0.22809  1.0000
  H   H836      1.0  0.37510  0.94095  0.30050  1.0000
  Fe  Fe116     1.0  0.42248  0.87095  0.26752  1.0000
  S   S226      1.0  0.42043  0.88210  0.23667  1.0000
  Fe  Fe117     1.0  0.44001  0.85588  0.22946  1.0000
  S   S227      1.0  0.43910  0.83326  0.21051  1.0000
  Fe  Fe118     1.0  0.44640  0.89507  0.23804  1.0000
  S   S228      1.0  0.44897  0.92558  0.22511  1.0000
  S   S229      1.0  0.43977  0.84354  0.26033  1.0000
  S   S230      1.0  0.44765  0.88515  0.26897  1.0000
  H   H837      1.0  0.41580  0.57203  0.03551  1.0000
  H   H838      1.0  0.36462  0.89292  0.31279  1.0000
  Fe  Fe119     1.0  0.31265  0.57368  0.10356  1.0000
  S   S231      1.0  0.31520  0.55472  0.08091  1.0000
  S   S232      1.0  0.33269  0.59600  0.10200  1.0000
  Fe  Fe120     1.0  0.30229  0.53365  0.10375  1.0000
  Fe  Fe121     1.0  0.28526  0.56678  0.07798  1.0000
  H   H839      1.0  0.39786  0.62092  0.04676  1.0000
  S   S233      1.0  0.30219  0.55139  0.12696  1.0000
  S   S234      1.0  0.28294  0.58685  0.09949  1.0000
  N   N53       1.0  0.32288  0.59786  0.01044  1.0000
  H   H840      1.0  0.41527  0.91313  0.27459  1.0000
  H   H841      1.0  0.37026  0.95844  0.28044  1.0000
  C   C530      1.0  0.26653  0.56450  0.03731  1.0000
  H   H842      1.0  0.44113  0.99075  0.24098  1.0000
  C   C531      1.0  0.37425  0.88331  0.32103  1.0000
  H   H843      1.0  0.46479  0.75955  0.01267  1.0000
  C   C532      1.0  0.44868  0.94256  0.24048  1.0000
  C   C533      1.0  0.44492  0.96204  0.23386  1.0000
  C   C534      1.0  0.44420  0.97575  0.24609  1.0000
  C   C535      1.0  0.44758  0.96997  0.26489  1.0000
  C   C536      1.0  0.45166  0.95054  0.27137  1.0000
  C   C537      1.0  0.45209  0.93690  0.25926  1.0000
  H   H844      1.0  0.44234  0.96654  0.21930  1.0000
  H   H845      1.0  0.44406  0.59178  0.05104  1.0000
  H   H846      1.0  0.45440  0.94600  0.28587  1.0000
  H   H847      1.0  0.45536  0.92205  0.26444  1.0000
  C   C538      1.0  0.44235  0.83380  0.18550  1.0000
  C   C539      1.0  0.44117  0.85081  0.17300  1.0000
  C   C540      1.0  0.44252  0.85037  0.15329  1.0000
  C   C541      1.0  0.44523  0.83298  0.14589  1.0000
  C   C542      1.0  0.44712  0.81599  0.15833  1.0000
  C   C543      1.0  0.44542  0.81642  0.17803  1.0000
  H   H848      1.0  0.43875  0.86427  0.17856  1.0000
  H   H849      1.0  0.44112  0.86362  0.14378  1.0000
  H   H850      1.0  0.44971  0.80250  0.15285  1.0000
  H   H851      1.0  0.44649  0.80320  0.18760  1.0000
  C   C544      1.0  0.26548  0.56933  0.01784  1.0000
  Fe  Fe122     1.0  0.27272  0.56287  0.12074  1.0000
  C   C545      1.0  0.40954  0.79720  0.14936  1.0000
  C   C546      1.0  0.30575  0.61196  0.01095  1.0000
  C   C547      1.0  0.40718  0.92336  0.28392  1.0000
  H   H852      1.0  0.40554  0.83553  0.14582  1.0000
  H   H853      1.0  0.31648  0.58585  0.03962  1.0000
  C   C548      1.0  0.43965  0.79864  0.01703  1.0000
  C   C549      1.0  0.42675  0.78550  0.02106  1.0000
  C   C550      1.0  0.49185  0.77999  0.01484  1.0000
  C   C551      1.0  0.42936  0.67019  0.00909  1.0000
  H   H854      1.0  0.41731  0.58621  0.01261  1.0000
  S   S235      1.0  0.24970  0.56330  0.14622  1.0000
  H   H855      1.0  0.42105  0.78118  0.03562  1.0000
  H   H856      1.0  0.48951  0.91245  0.27387  1.0000
  C   C552      1.0  0.25569  0.55902  0.00852  1.0000
  S   S236      1.0  0.49252  0.84403  0.26714  1.0000
  C   C553      1.0  0.39675  0.59457  0.09989  1.0000
  C   C554      1.0  0.38543  0.61128  0.09370  1.0000
  C   C555      1.0  0.36596  0.61128  0.09397  1.0000
  C   C556      1.0  0.35758  0.59455  0.10013  1.0000
  C   C557      1.0  0.36904  0.57768  0.10565  1.0000
  C   C558      1.0  0.38849  0.57773  0.10559  1.0000
  H   H857      1.0  0.39158  0.62429  0.08899  1.0000
  H   H858      1.0  0.35724  0.62439  0.08957  1.0000
  H   H859      1.0  0.36281  0.56471  0.11048  1.0000
  H   H860      1.0  0.39712  0.56468  0.11031  1.0000
  C   C559      1.0  0.42766  0.66864  0.02885  1.0000
  C   C560      1.0  0.41078  0.66444  0.03980  1.0000
  C   C561      1.0  0.39567  0.66163  0.03091  1.0000
  S   S237      1.0  0.27256  0.54405  0.09872  1.0000
  H   H861      1.0  0.47045  0.68054  0.14493  1.0000
  H   H862      1.0  0.40928  0.66353  0.05507  1.0000
  H   H863      1.0  0.48418  0.71010  0.14691  1.0000
  H   H864      1.0  0.40923  0.93716  0.24699  1.0000
  C   C562      1.0  0.48180  0.67776  0.13301  1.0000
  C   C563      1.0  0.42389  0.69496  0.13032  1.0000
  C   C564      1.0  0.42586  0.70426  0.11164  1.0000
  C   C565      1.0  0.41983  0.72391  0.10793  1.0000
  C   C566      1.0  0.41109  0.73404  0.12278  1.0000
  C   C567      1.0  0.40857  0.72454  0.14130  1.0000
  C   C568      1.0  0.41522  0.70513  0.14510  1.0000
  H   H865      1.0  0.43229  0.69642  0.10011  1.0000
  H   H866      1.0  0.42156  0.73115  0.09354  1.0000
  H   H867      1.0  0.40181  0.73230  0.15280  1.0000
  H   H868      1.0  0.41364  0.69801  0.15955  1.0000
  N   N54       1.0  0.38412  0.63251  0.14565  1.0000
  C   C569      1.0  0.36943  0.63418  0.13311  1.0000
  C   C570      1.0  0.40064  0.61945  0.13873  1.0000
  C   C571      1.0  0.37669  0.62488  0.16517  1.0000
  C   C572      1.0  0.38977  0.65147  0.14558  1.0000
  H   H869      1.0  0.35657  0.64361  0.13809  1.0000
  H   H870      1.0  0.36514  0.62003  0.13245  1.0000
  H   H871      1.0  0.37445  0.64022  0.11833  1.0000
  H   H872      1.0  0.40647  0.62465  0.12398  1.0000
  H   H873      1.0  0.41216  0.61799  0.14766  1.0000
  H   H874      1.0  0.39699  0.60495  0.13858  1.0000
  H   H875      1.0  0.37225  0.61060  0.16563  1.0000
  H   H876      1.0  0.36423  0.63440  0.17089  1.0000
  H   H877      1.0  0.38747  0.62332  0.17498  1.0000
  H   H878      1.0  0.39569  0.65754  0.13108  1.0000
  H   H879      1.0  0.40085  0.65076  0.15492  1.0000
  H   H880      1.0  0.48335  0.79118  0.02276  1.0000
  H   H881      1.0  0.42888  0.62892  0.02960  1.0000
  H   H882      1.0  0.30784  0.62483  0.01681  1.0000
  H   H883      1.0  0.39010  0.95612  0.24913  1.0000
  H   H884      1.0  0.43813  0.57792  0.02325  1.0000
  H   H885      1.0  0.33088  0.60458  0.03601  1.0000
  S   S238      1.0  0.31058  0.50184  0.10875  1.0000
  C   C573      1.0  0.47125  0.70758  0.11473  1.0000
  H   H886      1.0  0.48502  0.81645  0.12829  1.0000
  H   H887      1.0  0.37263  0.91535  0.28188  1.0000
  H   H888      1.0  0.48799  0.83949  0.13306  1.0000
  C   C574      1.0  0.39073  0.87395  0.31176  1.0000
  H   H889      1.0  0.49429  0.83395  0.23014  1.0000
  H   H890      1.0  0.36406  0.81096  0.16635  1.0000
  H   H891      1.0  0.49376  0.66843  0.13905  1.0000
  H   H892      1.0  0.42032  0.80346  0.13854  1.0000
  N   N55       1.0  0.39180  0.81035  0.15073  1.0000
  C   C575      1.0  0.38490  0.81435  0.13200  1.0000
  C   C576      1.0  0.37769  0.80146  0.16495  1.0000
  H   H893      1.0  0.37122  0.82377  0.13254  1.0000
  H   H894      1.0  0.38297  0.80096  0.12685  1.0000
  H   H895      1.0  0.39504  0.82157  0.12109  1.0000
  H   H896      1.0  0.41535  0.79399  0.16314  1.0000
  H   H897      1.0  0.37493  0.78783  0.16095  1.0000
  H   H898      1.0  0.48349  0.75814  0.13237  1.0000
  C   C577      1.0  0.25768  0.54931  0.04749  1.0000
  H   H899      1.0  0.38253  0.79822  0.17922  1.0000
  C   C578      1.0  0.37940  0.92387  0.26910  1.0000
  H   H900      1.0  0.47539  0.65068  0.01215  1.0000
  H   H901      1.0  0.40104  0.82576  0.17029  1.0000
  H   H902      1.0  0.37768  0.66181  0.15056  1.0000
  H   H903      1.0  0.39346  0.61166  0.02639  1.0000
  H   H904      1.0  0.36805  0.93265  0.26162  1.0000
  H   H905      1.0  0.45971  0.71093  0.12631  1.0000
  H   H906      1.0  0.41058  0.95597  0.26034  1.0000
  C   C579      1.0  0.39520  0.82831  0.15650  1.0000
  H   H907      1.0  0.40754  0.78342  0.14516  1.0000
  H   H908      1.0  0.46791  0.74279  0.03371  1.0000
  H   H909      1.0  0.41556  0.85393  0.31570  1.0000
  H   H910      1.0  0.38707  0.91350  0.25964  1.0000
  H   H911      1.0  0.38205  0.83849  0.15808  1.0000
  C   C580      1.0  0.24754  0.53919  0.03821  1.0000
  C   C581      1.0  0.48975  0.84028  0.09549  1.0000
  H   H912      1.0  0.34073  0.58135  0.02999  1.0000
  H   H913      1.0  0.47893  0.83092  0.09566  1.0000
  H   H914      1.0  0.47914  0.87250  0.29239  1.0000
  H   H915      1.0  0.30815  0.57365  0.01238  1.0000
  H   H916      1.0  0.49418  0.93658  0.27202  1.0000
  C   C582      1.0  0.42297  0.58350  0.02641  1.0000
  C   C583      1.0  0.40090  0.94675  0.25692  1.0000
  C   C584      1.0  0.40016  0.60789  0.03964  1.0000
  N   N56       1.0  0.39227  0.93574  0.27429  1.0000
  H   H917      1.0  0.42653  0.60927  0.06111  1.0000
  N   N57       1.0  0.42042  0.60096  0.03556  1.0000
  H   H918      1.0  0.39250  0.59701  0.04917  1.0000
  H   H919      1.0  0.38260  0.65842  0.03936  1.0000
  H   H920      1.0  0.42212  0.58508  0.06327  1.0000
  C   C585      1.0  0.25265  0.50773  0.13281  1.0000
  C   C586      1.0  0.49430  0.86989  0.29110  1.0000
  H   H921      1.0  0.26615  0.50535  0.12327  1.0000
  H   H922      1.0  0.29003  0.51210  0.07632  1.0000
  H   H923      1.0  0.48698  0.76985  0.05243  1.0000
  C   C587      1.0  0.38167  0.94891  0.28722  1.0000
  H   H924      1.0  0.27216  0.58113  0.00992  1.0000
  S   S239      1.0  0.44702  0.98633  0.28086  1.0000
  C   C588      1.0  0.42868  0.59658  0.05351  1.0000
  H   H925      1.0  0.49392  0.74480  0.05229  1.0000
  H   H926      1.0  0.41051  0.76844  0.00938  1.0000
  H   H927      1.0  0.47612  0.66950  0.12383  1.0000
  H   H928      1.0  0.48604  0.62751  0.00694  1.0000
  C   C589      1.0  0.42995  0.61583  0.02285  1.0000
  C   C590      1.0  0.42081  0.77828  0.00616  1.0000
  H   H929      1.0  0.41731  0.93174  0.28790  1.0000
  H   H930      1.0  0.39104  0.95808  0.29133  1.0000
  H   H931      1.0  0.42372  0.61993  0.00933  1.0000
  S   S240      1.0  0.39499  0.87802  0.28658  1.0000
  N   N58       1.0  0.48764  0.69567  0.12230  1.0000
  C   C591      1.0  0.32801  0.59218  0.02984  1.0000
  H   H932      1.0  0.25062  0.52290  0.13535  1.0000
  S   S241      1.0  0.27878  0.57802  0.04838  1.0000
  H   H933      1.0  0.29365  0.60591  0.02001  1.0000
  H   H934      1.0  0.49124  0.66900  0.02974  1.0000
  H   H935      1.0  0.46544  0.70028  0.10482  1.0000
  C   C592      1.0  0.40289  0.86132  0.32263  1.0000
  H   H936      1.0  0.47672  0.63115  0.03089  1.0000
  H   H937      1.0  0.48223  0.85359  0.10070  1.0000
  C   C593      1.0  0.39764  0.66251  0.01114  1.0000
  H   H938      1.0  0.34136  0.61945  0.00303  1.0000
  H   H939      1.0  0.46068  0.76750  0.03553  1.0000
  C   C594      1.0  0.46994  0.75744  0.02678  1.0000
  C   C595      1.0  0.49554  0.82648  0.12726  1.0000
  H   H940      1.0  0.48727  0.91732  0.23901  1.0000
  H   H941      1.0  0.47500  0.72137  0.10682  1.0000
  H   H942      1.0  0.49186  0.94134  0.23787  1.0000
  C   C596      1.0  0.24657  0.54406  0.01870  1.0000
  H   H943      1.0  0.44514  0.61088  0.01898  1.0000
  N   N59       1.0  0.48978  0.76070  0.02495  1.0000
  C   C597      1.0  0.49558  0.75903  0.04403  1.0000
  H   H944      1.0  0.49298  0.64952  0.04856  1.0000
  H   H945      1.0  0.24788  0.51332  0.09587  1.0000
  H   H946      1.0  0.40034  0.99059  0.32986  1.0000
  C   C598      1.0  0.49511  0.70607  0.13508  1.0000
  H   H947      1.0  0.44235  0.67350  0.00056  1.0000
  H   H948      1.0  0.48718  0.78199  0.00053  1.0000
  H   H949      1.0  0.33217  0.57039  0.00129  1.0000
  C   C599      1.0  0.41445  0.66697  0.00030  1.0000
  C   C600      1.0  0.31927  0.58093  0.00288  1.0000
  H   H950      1.0  0.29547  0.87772  0.44482  1.0000
  N   N60       1.0  0.26228  0.83870  0.56939  1.0000
  N   N61       1.0  0.29624  0.96987  0.41089  1.0000
  Fe  Fe123     1.0  0.33863  0.88533  0.43639  1.0000
  S   S242      1.0  0.32499  0.91467  0.42718  1.0000
  S   S243      1.0  0.33053  0.87397  0.46749  1.0000
  Fe  Fe124     1.0  0.35528  0.87996  0.39509  1.0000
  S   S244      1.0  0.34216  0.90890  0.38330  1.0000
  S   S245      1.0  0.37574  0.86088  0.37666  1.0000
  Fe  Fe125     1.0  0.35187  0.91828  0.40796  1.0000
  S   S246      1.0  0.36491  0.94535  0.40270  1.0000
  Fe  Fe126     1.0  0.31648  0.90245  0.40359  1.0000
  S   S247      1.0  0.28688  0.91491  0.39860  1.0000
  S   S248      1.0  0.36651  0.88987  0.41899  1.0000
  S   S249      1.0  0.32856  0.87251  0.41363  1.0000
  Fe  Fe127     1.0  0.32160  0.88137  0.59933  1.0000
  S   S250      1.0  0.35232  0.88035  0.58802  1.0000
  C   C601      1.0  0.39267  0.89553  0.65672  1.0000
  Fe  Fe128     1.0  0.31499  0.92398  0.59501  1.0000
  S   S251      1.0  0.34505  0.92649  0.58364  1.0000
  S   S252      1.0  0.29512  0.95115  0.59602  1.0000
  Fe  Fe129     1.0  0.34250  0.90404  0.56587  1.0000
  S   S253      1.0  0.35438  0.90973  0.53473  1.0000
  S   S254      1.0  0.31180  0.90323  0.57576  1.0000
  C   C602      1.0  0.26937  0.89971  0.40379  1.0000
  H   H951      1.0  0.36320  0.97167  0.52220  1.0000
  H   H952      1.0  0.42592  0.97263  0.34740  1.0000
  C   C603      1.0  0.25360  0.85769  0.57401  1.0000
  C   C604      1.0  0.28523  0.85709  0.61758  1.0000
  C   C605      1.0  0.39825  0.85765  0.34251  1.0000
  H   H953      1.0  0.24913  0.88442  0.48879  1.0000
  C   C606      1.0  0.27384  0.88003  0.40846  1.0000
  C   C607      1.0  0.38089  0.95044  0.60711  1.0000
  C   C608      1.0  0.33695  0.88436  0.48599  1.0000
  C   C609      1.0  0.32969  0.87851  0.50492  1.0000
  C   C610      1.0  0.33470  0.88629  0.52000  1.0000
  C   C611      1.0  0.34723  0.89982  0.51627  1.0000
  C   C612      1.0  0.35438  0.90573  0.49732  1.0000
  C   C613      1.0  0.34916  0.89817  0.48225  1.0000
  H   H954      1.0  0.32034  0.86774  0.50796  1.0000
  H   H955      1.0  0.32917  0.88157  0.53451  1.0000
  H   H956      1.0  0.36422  0.91606  0.49426  1.0000
  H   H957      1.0  0.35494  0.90270  0.46776  1.0000
  H   H958      1.0  0.25013  0.86706  0.47306  1.0000
  C   C614      1.0  0.27369  0.87342  0.61074  1.0000
  H   H959      1.0  0.27985  0.88507  0.60186  1.0000
  C   C615      1.0  0.34015  0.97886  0.45111  1.0000
  H   H960      1.0  0.39372  0.96310  0.63483  1.0000
  C   C616      1.0  0.35774  0.97744  0.41977  1.0000
  C   C617      1.0  0.35728  0.95782  0.42204  1.0000
  C   C618      1.0  0.34918  0.94859  0.43920  1.0000
  C   C619      1.0  0.34038  0.95913  0.45368  1.0000
  H   H961      1.0  0.34612  0.98395  0.62271  1.0000
  H   H962      1.0  0.35218  0.95706  0.64818  1.0000
  H   H963      1.0  0.34968  0.93330  0.44134  1.0000
  H   H964      1.0  0.33361  0.95197  0.46668  1.0000
  C   C620      1.0  0.30894  0.98350  0.64064  1.0000
  H   H965      1.0  0.37163  0.93876  0.64430  1.0000
  C   C621      1.0  0.29507  0.98320  0.61206  1.0000
  C   C622      1.0  0.29951  0.96340  0.61377  1.0000
  C   C623      1.0  0.30771  0.95359  0.62947  1.0000
  C   C624      1.0  0.31216  0.96361  0.64306  1.0000
  N   N62       1.0  0.36957  0.96175  0.62136  1.0000
  C   C625      1.0  0.31180  0.96068  0.39823  1.0000
  C   C626      1.0  0.42153  0.98225  0.35849  1.0000
  H   H966      1.0  0.42540  0.97419  0.37218  1.0000
  H   H967      1.0  0.28963  0.94336  0.42692  1.0000
  N   N63       1.0  0.27253  0.88443  0.46644  1.0000
  H   H968      1.0  0.28961  0.99556  0.42397  1.0000
  C   C627      1.0  0.38168  0.86689  0.35178  1.0000
  C   C628      1.0  0.27501  0.82990  0.58346  1.0000
  C   C629      1.0  0.32736  0.98743  0.52041  1.0000
  H   H969      1.0  0.34562  0.90092  0.65522  1.0000
  H   H970      1.0  0.40746  0.84745  0.35076  1.0000
  H   H971      1.0  0.35693  0.88698  0.34783  1.0000
  C   C630      1.0  0.35472  0.97499  0.61242  1.0000
  H   H972      1.0  0.28850  0.99083  0.60007  1.0000
  N   N64       1.0  0.34194  0.84684  0.65487  1.0000
  H   H973      1.0  0.34428  0.85632  0.62489  1.0000
  H   H974      1.0  0.25142  0.83166  0.64253  1.0000
  H   H975      1.0  0.28600  0.82958  0.63462  1.0000
  N   N65       1.0  0.40117  0.98911  0.35989  1.0000
  C   C631      1.0  0.36983  0.87997  0.34094  1.0000
  H   H976      1.0  0.25275  0.90952  0.46072  1.0000
  H   H977      1.0  0.34493  0.96721  0.60702  1.0000
  H   H978      1.0  0.25335  0.81215  0.56654  1.0000
  C   C632      1.0  0.27716  0.84219  0.62924  1.0000
  H   H979      1.0  0.28176  0.96386  0.43907  1.0000
  H   H980      1.0  0.31807  0.96383  0.55256  1.0000
  H   H981      1.0  0.35078  0.97135  0.54586  1.0000
  C   C633      1.0  0.25048  0.90767  0.40405  1.0000
  H   H982      1.0  0.37396  0.98054  0.64029  1.0000
  H   H983      1.0  0.40584  0.89595  0.64742  1.0000
  H   H984      1.0  0.39380  0.96420  0.37866  1.0000
  H   H985      1.0  0.32527  0.94212  0.54245  1.0000
  H   H986      1.0  0.31867  0.95600  0.65509  1.0000
  H   H987      1.0  0.34223  0.94258  0.50997  1.0000
  C   C634      1.0  0.25760  0.84335  0.63368  1.0000
  S   S255      1.0  0.32195  0.90198  0.61968  1.0000
  N   N66       1.0  0.33432  0.96698  0.52481  1.0000
  H   H988      1.0  0.25348  0.89178  0.44552  1.0000
  H   H989      1.0  0.28426  0.84992  0.54931  1.0000
  H   H990      1.0  0.27989  0.82665  0.54622  1.0000
  C   C635      1.0  0.32045  0.95761  0.53899  1.0000
  H   H991      1.0  0.36075  0.98483  0.60028  1.0000
  H   H992      1.0  0.31563  0.86260  0.64789  1.0000
  C   C636      1.0  0.26229  0.89863  0.45317  1.0000
  H   H993      1.0  0.29369  0.85993  0.46511  1.0000
  S   S256      1.0  0.31833  0.99596  0.65527  1.0000
  H   H994      1.0  0.30663  0.95898  0.53368  1.0000
  H   H995      1.0  0.32501  0.99471  0.53330  1.0000
  C   C637      1.0  0.27304  0.84070  0.55019  1.0000
  H   H996      1.0  0.32386  0.95959  0.50087  1.0000
  C   C638      1.0  0.35880  0.89805  0.66104  1.0000
  H   H997      1.0  0.32822  0.87428  0.66127  1.0000
  H   H998      1.0  0.38798  0.98323  0.61741  1.0000
  H   H999      1.0  0.39868  0.99419  0.38897  1.0000
  C   C639      1.0  0.35239  0.96482  0.53254  1.0000
  Fe  Fe130     1.0  0.35199  0.90273  0.60691  1.0000
  H   H1000     1.0  0.35151  0.94031  0.63216  1.0000
  H   H1001     1.0  0.39210  0.94010  0.61343  1.0000
  S   S257      1.0  0.37630  0.90262  0.62373  1.0000
  H   H1002     1.0  0.38773  0.95971  0.59499  1.0000
  H   H1003     1.0  0.27217  0.90616  0.44221  1.0000
  H   H1004     1.0  0.36590  0.84518  0.63320  1.0000
  H   H1005     1.0  0.25907  0.98030  0.63885  1.0000
  H   H1006     1.0  0.36410  0.98460  0.40656  1.0000
  C   C640      1.0  0.37571  0.89838  0.64884  1.0000
  C   C641      1.0  0.24737  0.82662  0.56999  1.0000
  H   H1007     1.0  0.26294  0.85321  0.41725  1.0000
  S   S258      1.0  0.30964  0.85418  0.61069  1.0000
  H   H1008     1.0  0.28838  0.87374  0.40803  1.0000
  H   H1009     1.0  0.35650  0.86884  0.63780  1.0000
  H   H1010     1.0  0.37207  0.94196  0.60131  1.0000
  H   H1011     1.0  0.35805  0.94951  0.53588  1.0000
  H   H1012     1.0  0.37504  0.97731  0.36663  1.0000
  C   C642      1.0  0.34931  0.98793  0.43439  1.0000
  C   C643      1.0  0.29977  0.99324  0.62552  1.0000
  C   C644      1.0  0.27886  0.97318  0.40181  1.0000
  C   C645      1.0  0.25943  0.86842  0.41361  1.0000
  H   H1013     1.0  0.39376  0.96287  0.35400  1.0000
  H   H1014     1.0  0.43002  0.99430  0.35465  1.0000
  H   H1015     1.0  0.31064  0.93829  0.63118  1.0000
  H   H1016     1.0  0.28627  0.83880  0.58366  1.0000
  C   C646      1.0  0.39048  0.97269  0.36495  1.0000
  C   C647      1.0  0.28373  0.89413  0.47655  1.0000
  S   S259      1.0  0.32751  0.99233  0.46823  1.0000
  H   H1017     1.0  0.34768  0.96459  0.49628  1.0000
  H   H1018     1.0  0.30624  0.95443  0.43627  1.0000
  H   H1019     1.0  0.27472  0.90484  0.48475  1.0000
  C   C648      1.0  0.38189  0.97264  0.62877  1.0000
  H   H1020     1.0  0.26371  0.84728  0.53931  1.0000
  H   H1021     1.0  0.28058  0.98254  0.38797  1.0000
  C   C649      1.0  0.25400  0.87442  0.61491  1.0000
  H   H1022     1.0  0.33752  0.99483  0.50966  1.0000
  C   C650      1.0  0.33714  0.95803  0.50724  1.0000
  H   H1023     1.0  0.26438  0.86685  0.57503  1.0000
  C   C651      1.0  0.33658  0.82830  0.65270  1.0000
  H   H1024     1.0  0.25649  0.97086  0.61783  1.0000
  H   H1025     1.0  0.27496  0.95952  0.39896  1.0000
  C   C652      1.0  0.25890  0.87439  0.48030  1.0000
  C   C653      1.0  0.29331  0.95731  0.42912  1.0000
  H   H1026     1.0  0.29439  0.90154  0.46647  1.0000
  C   C654      1.0  0.36083  0.94891  0.63720  1.0000
  H   H1027     1.0  0.28198  0.81559  0.58039  1.0000
  C   C655      1.0  0.28524  0.87054  0.45566  1.0000
  H   H1028     1.0  0.30861  0.94687  0.39512  1.0000
  H   H1029     1.0  0.31387  0.98954  0.51428  1.0000
  H   H1030     1.0  0.34917  0.81794  0.64899  1.0000
  H   H1031     1.0  0.26616  0.86344  0.49043  1.0000
  H   H1032     1.0  0.27733  0.86264  0.44811  1.0000
  H   H1033     1.0  0.32504  0.95765  0.40476  1.0000
  H   H1034     1.0  0.32753  0.82986  0.64120  1.0000
  H   H1035     1.0  0.29168  0.88380  0.48667  1.0000
  C   C656      1.0  0.35263  0.85462  0.63693  1.0000
  H   H1036     1.0  0.31464  0.96982  0.38441  1.0000
  H   H1037     1.0  0.30346  0.99807  0.40100  1.0000
  C   C657      1.0  0.30102  0.98822  0.41443  1.0000
  C   C658      1.0  0.32476  0.86018  0.65942  1.0000
  H   H1038     1.0  0.26677  0.98006  0.41095  1.0000
  H   H1039     1.0  0.31405  0.98611  0.42136  1.0000
  H   H1040     1.0  0.26720  0.82816  0.59805  1.0000
  C   C659      1.0  0.24857  0.97651  0.63076  1.0000
  H   H1041     1.0  0.24691  0.92285  0.40027  1.0000
  C   C660      1.0  0.39675  0.99970  0.34142  1.0000
  C   C661      1.0  0.24595  0.85919  0.62613  1.0000
  H   H1042     1.0  0.32855  0.82195  0.66600  1.0000
  Fe  Fe131     1.0  0.43492  0.88999  0.74393  1.0000
  S   S260      1.0  0.42505  0.88892  0.77515  1.0000
  S   S261      1.0  0.46453  0.89512  0.73174  1.0000
  Fe  Fe132     1.0  0.39677  0.88485  0.73372  1.0000
  S   S262      1.0  0.38419  0.88299  0.76457  1.0000
  S   S263      1.0  0.37528  0.88386  0.71369  1.0000
  Fe  Fe133     1.0  0.39958  0.90746  0.76566  1.0000
  S   S264      1.0  0.38586  0.93267  0.78002  1.0000
  Fe  Fe134     1.0  0.41084  0.86447  0.77148  1.0000
  S   S265      1.0  0.41107  0.83738  0.79279  1.0000
  S   S266      1.0  0.41042  0.91073  0.73466  1.0000
  S   S267      1.0  0.42235  0.86406  0.74056  1.0000
  Fe  Fe135     1.0  0.40795  0.63587  0.93662  1.0000
  S   S268      1.0  0.41452  0.60392  0.94236  1.0000
  S   S269      1.0  0.41914  0.65261  0.90929  1.0000
  Fe  Fe136     1.0  0.39108  0.63969  0.97684  1.0000
  S   S270      1.0  0.39599  0.60834  0.98570  1.0000
  C   C662      1.0  0.42786  0.78392  0.98713  1.0000
  Fe  Fe137     1.0  0.42456  0.60943  0.96883  1.0000
  S   S271      1.0  0.45035  0.59571  0.98277  1.0000
  Fe  Fe138     1.0  0.38523  0.60557  0.95870  1.0000
  S   S272      1.0  0.36647  0.58203  0.96248  1.0000
  S   S273      1.0  0.42017  0.64100  0.96177  1.0000
  S   S274      1.0  0.37801  0.63729  0.95106  1.0000
  Fe  Fe139     1.0  0.46240  0.76314  0.90881  1.0000
  S   S275      1.0  0.45431  0.79162  0.91910  1.0000
  H   H1043     1.0  0.34602  0.83885  0.68423  1.0000
  Fe  Fe140     1.0  0.42219  0.75917  0.90520  1.0000
  S   S276      1.0  0.41114  0.78745  0.91498  1.0000
  S   S277      1.0  0.39998  0.74225  0.90066  1.0000
  Fe  Fe141     1.0  0.43596  0.79782  0.89550  1.0000
  S   S278      1.0  0.43652  0.82582  0.87543  1.0000
  H   H1044     1.0  0.48686  0.77048  0.96937  1.0000
  S   S279      1.0  0.44568  0.77002  0.88417  1.0000
  S   S280      1.0  0.43998  0.74944  0.92852  1.0000
  Fe  Fe142     1.0  0.27074  0.55518  0.94431  1.0000
  H   H1045     1.0  0.46856  0.79471  0.80653  1.0000
  S   S281      1.0  0.28655  0.58095  0.93589  1.0000
  C   C663      1.0  0.46105  0.83510  0.77545  1.0000
  H   H1046     1.0  0.26194  0.50115  0.99507  1.0000
  H   H1047     1.0  0.46903  0.84233  0.76260  1.0000
  H   H1048     1.0  0.44904  0.94980  0.77740  1.0000
  H   H1049     1.0  0.37807  0.73758  0.94679  1.0000
  C   C664      1.0  0.43414  0.95427  0.78035  1.0000
  S   S282      1.0  0.26927  0.53417  0.92444  1.0000
  S   S283      1.0  0.27655  0.53265  0.96867  1.0000
  H   H1050     1.0  0.35780  0.86555  0.84921  1.0000
  H   H1051     1.0  0.25917  0.57036  0.87328  1.0000
  H   H1052     1.0  0.48078  0.99670  0.81104  1.0000
  C   C665      1.0  0.44113  0.79670  0.98312  1.0000
  C   C666      1.0  0.49171  0.87062  0.77633  1.0000
  C   C667      1.0  0.39281  0.89173  0.67656  1.0000
  C   C668      1.0  0.38546  0.97655  0.72218  1.0000
  C   C669      1.0  0.48217  0.88510  0.74591  1.0000
  H   H1053     1.0  0.34665  0.88468  0.83376  1.0000
  C   C670      1.0  0.47284  0.61900  0.95824  1.0000
  H   H1054     1.0  0.38897  0.88625  0.85631  1.0000
  H   H1055     1.0  0.39393  0.87330  0.80732  1.0000
  H   H1056     1.0  0.47431  0.76098  0.94277  1.0000
  H   H1057     1.0  0.48696  0.83155  0.79947  1.0000
  H   H1058     1.0  0.44663  0.80117  0.96853  1.0000
  H   H1059     1.0  0.35496  0.88955  0.85459  1.0000
  C   C671      1.0  0.34448  0.58219  0.95443  1.0000
  C   C672      1.0  0.33599  0.56542  0.95834  1.0000
  C   C673      1.0  0.31827  0.56489  0.95286  1.0000
  C   C674      1.0  0.30881  0.58116  0.94329  1.0000
  C   C675      1.0  0.31727  0.59798  0.93939  1.0000
  C   C676      1.0  0.33500  0.59853  0.94496  1.0000
  H   H1060     1.0  0.34320  0.55269  0.96563  1.0000
  H   H1061     1.0  0.31205  0.55182  0.95587  1.0000
  H   H1062     1.0  0.31013  0.61063  0.93194  1.0000
  H   H1063     1.0  0.34136  0.61154  0.94182  1.0000
  C   C677      1.0  0.41385  0.67744  0.90851  1.0000
  C   C678      1.0  0.39517  0.68606  0.91003  1.0000
  C   C679      1.0  0.39107  0.70599  0.90741  1.0000
  C   C680      1.0  0.40562  0.71736  0.90390  1.0000
  C   C681      1.0  0.42431  0.70877  0.90306  1.0000
  C   C682      1.0  0.42842  0.68882  0.90504  1.0000
  H   H1064     1.0  0.38390  0.67734  0.91243  1.0000
  H   H1065     1.0  0.37661  0.71259  0.90798  1.0000
  H   H1066     1.0  0.43559  0.71748  0.90025  1.0000
  H   H1067     1.0  0.44288  0.68217  0.90366  1.0000
  H   H1068     1.0  0.36918  0.87492  0.80665  1.0000
  C   C683      1.0  0.38026  0.87138  0.81623  1.0000
  H   H1069     1.0  0.44720  0.80555  0.79726  1.0000
  C   C684      1.0  0.41845  0.83444  0.81561  1.0000
  C   C685      1.0  0.42743  0.84807  0.82140  1.0000
  C   C686      1.0  0.43303  0.84515  0.83969  1.0000
  C   C687      1.0  0.42984  0.82857  0.85232  1.0000
  C   C688      1.0  0.42116  0.81482  0.84639  1.0000
  C   C689      1.0  0.41547  0.81777  0.82815  1.0000
  H   H1070     1.0  0.43006  0.86084  0.81184  1.0000
  H   H1071     1.0  0.43986  0.85580  0.84412  1.0000
  H   H1072     1.0  0.41860  0.80199  0.85596  1.0000
  H   H1073     1.0  0.40862  0.80708  0.82381  1.0000
  C   C690      1.0  0.37594  0.89067  0.68876  1.0000
  H   H1074     1.0  0.40834  0.70216  0.94320  1.0000
  H   H1075     1.0  0.30159  0.61659  0.99649  1.0000
  C   C691      1.0  0.46097  0.80844  0.80047  1.0000
  H   H1076     1.0  0.35844  0.85787  0.67203  1.0000
  C   C692      1.0  0.35894  0.89404  0.68086  1.0000
  H   H1077     1.0  0.40600  0.88914  0.68240  1.0000
  H   H1078     1.0  0.48479  0.79058  0.77439  1.0000
  H   H1079     1.0  0.48477  0.81052  0.75584  1.0000
  H   H1080     1.0  0.34579  0.89348  0.69018  1.0000
  C   C693      1.0  0.39552  0.96567  0.78797  1.0000
  C   C694      1.0  0.40203  0.94764  0.78260  1.0000
  C   C695      1.0  0.42137  0.94200  0.77868  1.0000
  H   H1081     1.0  0.38057  0.97007  0.79108  1.0000
  H   H1082     1.0  0.42654  0.92827  0.77423  1.0000
  H   H1083     1.0  0.46074  0.62380  0.95078  1.0000
  N   N67       1.0  0.39570  0.71891  0.96532  1.0000
  C   C696      1.0  0.39164  0.73678  0.95245  1.0000
  H   H1084     1.0  0.25490  0.56293  0.99350  1.0000
  H   H1085     1.0  0.37376  0.91320  0.83448  1.0000
  H   H1086     1.0  0.46314  0.87977  0.77148  1.0000
  H   H1087     1.0  0.36676  0.71806  0.97701  1.0000
  N   N68       1.0  0.37665  0.88339  0.83165  1.0000
  H   H1088     1.0  0.39045  0.90611  0.81494  1.0000
  H   H1089     1.0  0.41062  0.96703  0.74649  1.0000
  H   H1090     1.0  0.45713  0.84531  0.78602  1.0000
  Fe  Fe143     1.0  0.43044  0.77832  0.93744  1.0000
  C   C697      1.0  0.35819  0.88069  0.84281  1.0000
  H   H1091     1.0  0.41048  0.99769  0.70013  1.0000
  H   H1092     1.0  0.38071  0.98830  0.75610  1.0000
  C   C698      1.0  0.49081  0.94587  0.78087  1.0000
  C   C699      1.0  0.42763  0.97244  0.78537  1.0000
  H   H1093     1.0  0.42302  0.97164  0.72314  1.0000
  C   C700      1.0  0.47162  0.60524  0.97425  1.0000
  H   H1094     1.0  0.46338  0.80055  0.76482  1.0000
  H   H1095     1.0  0.38334  0.70294  0.94861  1.0000
  H   H1096     1.0  0.40318  0.99211  0.79314  1.0000
  C   C701      1.0  0.37664  0.90358  0.82335  1.0000
  C   C702      1.0  0.48933  0.75986  0.94263  1.0000
  H   H1097     1.0  0.48680  0.58813  0.99585  1.0000
  H   H1098     1.0  0.39113  0.74956  0.95966  1.0000
  H   H1099     1.0  0.25090  0.60206  0.91110  1.0000
  Fe  Fe144     1.0  0.27247  0.51201  0.94977  1.0000
  H   H1100     1.0  0.45786  0.81782  0.81183  1.0000
  S   S284      1.0  0.49262  0.74966  0.90708  1.0000
  C   C703      1.0  0.41398  0.97853  0.73478  1.0000
  H   H1101     1.0  0.44774  0.83225  0.77119  1.0000
  H   H1102     1.0  0.31622  0.85468  0.67276  1.0000
  C   C704      1.0  0.38073  0.71783  0.98170  1.0000
  C   C705      1.0  0.40829  0.97819  0.78905  1.0000
  C   C706      1.0  0.47646  0.80415  0.76896  1.0000
  C   C707      1.0  0.39154  0.87789  0.84415  1.0000
  H   H1103     1.0  0.36669  0.83401  0.66752  1.0000
  H   H1104     1.0  0.39247  0.86251  0.85010  1.0000
  H   H1105     1.0  0.41732  0.70560  0.98228  1.0000
  C   C708      1.0  0.39647  0.70248  0.95497  1.0000
  S   S285      1.0  0.41925  0.77495  0.96899  1.0000
  H   H1106     1.0  0.36585  0.90817  0.81349  1.0000
  C   C709      1.0  0.48975  0.82178  0.78847  1.0000
  H   H1107     1.0  0.38076  0.85597  0.82187  1.0000
  H   H1108     1.0  0.48765  0.81315  0.90365  1.0000
  H   H1109     1.0  0.25732  0.57685  0.91471  1.0000
  H   H1110     1.0  0.41597  0.66822  0.98508  1.0000
  N   N69       1.0  0.47207  0.81737  0.78335  1.0000
  H   H1111     1.0  0.40557  0.88033  0.83629  1.0000
  H   H1112     1.0  0.48138  0.93710  0.79107  1.0000
  C   C710      1.0  0.24594  0.56936  0.88324  1.0000
  H   H1113     1.0  0.41403  0.73122  0.97944  1.0000
  H   H1114     1.0  0.31448  0.58484  0.98862  1.0000
  H   H1115     1.0  0.48803  0.86568  0.79123  1.0000
  H   H1116     1.0  0.37979  0.73001  0.98985  1.0000
  C   C711      1.0  0.33849  0.60637  0.99806  1.0000
  H   H1117     1.0  0.40267  0.73792  0.93998  1.0000
  H   H1118     1.0  0.25051  0.60525  0.86800  1.0000
  S   S286      1.0  0.44386  0.98781  0.78667  1.0000
  N   N70       1.0  0.39665  0.98953  0.72827  1.0000
  C   C712      1.0  0.25479  0.58926  0.90364  1.0000
  H   H1119     1.0  0.39828  0.68873  0.96445  1.0000
  C   C713      1.0  0.41397  0.71861  0.97213  1.0000
  C   C714      1.0  0.47757  0.87864  0.76515  1.0000
  H   H1120     1.0  0.37221  0.98439  0.71729  1.0000
  H   H1121     1.0  0.45687  0.81429  0.99477  1.0000
  C   C715      1.0  0.44688  0.80414  0.99802  1.0000
  H   H1122     1.0  0.49074  0.63649  0.93874  1.0000
  H   H1123     1.0  0.49115  0.92395  0.74210  1.0000
  H   H1124     1.0  0.42562  0.71895  0.96014  1.0000
  H   H1125     1.0  0.38151  0.96527  0.73402  1.0000
  C   C716      1.0  0.38546  0.99890  0.74402  1.0000
  C   C717      1.0  0.48759  0.59893  0.98357  1.0000
  H   H1126     1.0  0.24854  0.55658  0.89389  1.0000
  C   C718      1.0  0.48991  0.62617  0.95141  1.0000
  H   H1127     1.0  0.39344  0.96925  0.71027  1.0000
  C   C719      1.0  0.35376  0.84424  0.67035  1.0000
  S   S287      1.0  0.37934  0.65753  0.00009  1.0000
  H   H1128     1.0  0.26852  0.59070  0.89461  1.0000
  C   C720      1.0  0.48493  0.93134  0.75457  1.0000
  H   H1129     1.0  0.33537  0.61028  0.98315  1.0000
  H   H1130     1.0  0.48216  0.95949  0.77604  1.0000
  H   H1131     1.0  0.38334  0.70443  0.99164  1.0000
  H   H1132     1.0  0.47555  0.92184  0.76391  1.0000
  H   H1133     1.0  0.35173  0.59622  0.99764  1.0000
  H   H1134     1.0  0.47593  0.94447  0.74922  1.0000
  H   H1135     1.0  0.42245  0.98774  0.74017  1.0000
  S   S288      1.0  0.72421  0.35259  0.10975  1.0000
  H   H1136     1.0  0.52619  0.09223  0.06122  1.0000
  Fe  Fe145     1.0  0.57071  0.15916  0.11841  1.0000
  S   S289      1.0  0.57024  0.12808  0.11763  1.0000
  S   S290      1.0  0.54414  0.17832  0.12595  1.0000
  Fe  Fe146     1.0  0.61214  0.15695  0.10633  1.0000
  S   S291      1.0  0.61538  0.12569  0.10451  1.0000
  S   S292      1.0  0.63664  0.17337  0.09707  1.0000
  Fe  Fe147     1.0  0.58938  0.13264  0.09003  1.0000
  S   S293      1.0  0.58562  0.11834  0.06496  1.0000
  Fe  Fe148     1.0  0.59613  0.12383  0.13229  1.0000
  S   S294      1.0  0.60349  0.09860  0.15468  1.0000
  S   S295      1.0  0.58765  0.16412  0.08983  1.0000
  S   S296      1.0  0.59505  0.15478  0.13515  1.0000
  Fe  Fe149     1.0  0.59011  0.30379  0.09840  1.0000
  S   S297      1.0  0.60674  0.27854  0.08609  1.0000
  S   S298      1.0  0.55932  0.30104  0.10965  1.0000
  Fe  Fe150     1.0  0.62676  0.32115  0.10058  1.0000
  S   S299      1.0  0.64553  0.29647  0.08933  1.0000
  S   S300      1.0  0.63744  0.34777  0.10642  1.0000
  Fe  Fe151     1.0  0.62465  0.29947  0.06867  1.0000
  S   S301      1.0  0.63491  0.30185  0.03753  1.0000
  Fe  Fe152     1.0  0.62568  0.27808  0.10803  1.0000
  S   S302      1.0  0.63120  0.25161  0.12875  1.0000
  S   S303      1.0  0.60651  0.32503  0.07895  1.0000
  S   S304      1.0  0.60854  0.30251  0.12122  1.0000
  H   H1137     1.0  0.65040  0.02661  0.29321  1.0000
  Fe  Fe153     1.0  0.59208  0.06975  0.26807  1.0000
  S   S305      1.0  0.57614  0.07317  0.29717  1.0000
  S   S306      1.0  0.58677  0.09475  0.24481  1.0000
  Fe  Fe154     1.0  0.56976  0.04348  0.29714  1.0000
  S   S307      1.0  0.54325  0.02978  0.30526  1.0000
  Fe  Fe155     1.0  0.60285  0.05903  0.30886  1.0000
  N   N71       1.0  0.65672  0.01726  0.32170  1.0000
  S   S308      1.0  0.61923  0.05803  0.27967  1.0000
  H   H1138     1.0  0.54605  0.22072  0.10699  1.0000
  H   H1139     1.0  0.58946  0.17532  0.01732  1.0000
  H   H1140     1.0  0.55151  0.25012  0.11880  1.0000
  C   C721      1.0  0.50318  0.32040  0.08546  1.0000
  H   H1141     1.0  0.68308  0.38748  0.04061  1.0000
  S   S309      1.0  0.62899  0.00230  0.27798  1.0000
  H   H1142     1.0  0.58269  0.20359  0.12292  1.0000
  C   C722      1.0  0.52233  0.04274  0.29812  1.0000
  H   H1143     1.0  0.55681  0.22960  0.08371  1.0000
  N   N72       1.0  0.70893  0.37019  0.04673  1.0000
  C   C723      1.0  0.52031  0.06258  0.29385  1.0000
  H   H1144     1.0  0.60124  0.23669  0.09964  1.0000
  H   H1145     1.0  0.53155  0.07027  0.29544  1.0000
  C   C724      1.0  0.62012  0.29284  0.02506  1.0000
  C   C725      1.0  0.58751  0.16046  0.01986  1.0000
  S   S310      1.0  0.59484  0.02977  0.31129  1.0000
  Fe  Fe156     1.0  0.60961  0.02944  0.28172  1.0000
  C   C726      1.0  0.60279  0.26779  0.02068  1.0000
  C   C727      1.0  0.61295  0.27568  0.03198  1.0000
  C   C728      1.0  0.51901  0.09814  0.07427  1.0000
  S   S311      1.0  0.58395  0.04088  0.26761  1.0000
  H   H1146     1.0  0.59758  0.25434  0.02579  1.0000
  H   H1147     1.0  0.61577  0.26820  0.04571  1.0000
  C   C729      1.0  0.53829  0.30795  0.09910  1.0000
  C   C730      1.0  0.52202  0.30008  0.10786  1.0000
  H   H1148     1.0  0.62166  0.31587  0.00208  1.0000
  C   C731      1.0  0.59103  0.23006  0.09358  1.0000
  Fe  Fe157     1.0  0.73950  0.37883  0.10555  1.0000
  C   C732      1.0  0.53703  0.32178  0.08317  1.0000
  H   H1149     1.0  0.52279  0.28946  0.12026  1.0000
  H   H1150     1.0  0.56984  0.33882  0.09910  1.0000
  H   H1151     1.0  0.73197  0.38340  0.05191  1.0000
  H   H1152     1.0  0.54942  0.32789  0.07619  1.0000
  C   C733      1.0  0.59870  0.09783  0.17971  1.0000
  C   C734      1.0  0.60510  0.08120  0.19135  1.0000
  C   C735      1.0  0.60181  0.08005  0.21131  1.0000
  C   C736      1.0  0.59206  0.09558  0.21981  1.0000
  C   C737      1.0  0.58571  0.11222  0.20816  1.0000
  C   C738      1.0  0.58899  0.11337  0.18821  1.0000
  H   H1153     1.0  0.61267  0.06911  0.18490  1.0000
  H   H1154     1.0  0.60681  0.06717  0.22009  1.0000
  H   H1155     1.0  0.57813  0.12431  0.21461  1.0000
  H   H1156     1.0  0.58395  0.12625  0.17944  1.0000
  C   C739      1.0  0.58777  0.15051  0.03831  1.0000
  C   C740      1.0  0.58541  0.13127  0.04185  1.0000
  H   H1157     1.0  0.56297  0.21756  0.13454  1.0000
  H   H1158     1.0  0.58999  0.15774  0.04972  1.0000
  H   H1159     1.0  0.58084  0.10720  0.02934  1.0000
  C   C741      1.0  0.63439  0.19528  0.10571  1.0000
  C   C742      1.0  0.62627  0.19719  0.12434  1.0000
  C   C743      1.0  0.62569  0.21446  0.13141  1.0000
  C   C744      1.0  0.63248  0.23009  0.11965  1.0000
  C   C745      1.0  0.64011  0.22835  0.10085  1.0000
  C   C746      1.0  0.64138  0.21084  0.09401  1.0000
  H   H1160     1.0  0.62097  0.18522  0.13348  1.0000
  H   H1161     1.0  0.61985  0.21579  0.14599  1.0000
  H   H1162     1.0  0.64545  0.24036  0.09175  1.0000
  H   H1163     1.0  0.64774  0.20937  0.07961  1.0000
  C   C747      1.0  0.52831  0.17448  0.11131  1.0000
  H   H1164     1.0  0.70503  0.36924  0.01778  1.0000
  H   H1165     1.0  0.55237  0.07658  0.25819  1.0000
  C   C748      1.0  0.51949  0.32817  0.07659  1.0000
  C   C749      1.0  0.52238  0.16851  0.08065  1.0000
  C   C750      1.0  0.53445  0.17313  0.09213  1.0000
  C   C751      1.0  0.50755  0.03290  0.29640  1.0000
  H   H1166     1.0  0.54093  0.37078  0.13136  1.0000
  H   H1167     1.0  0.52724  0.16759  0.06579  1.0000
  H   H1168     1.0  0.54854  0.17566  0.08608  1.0000
  C   C752      1.0  0.70007  0.35181  0.10836  1.0000
  C   C753      1.0  0.69403  0.33409  0.10840  1.0000
  C   C754      1.0  0.67504  0.33270  0.10742  1.0000
  C   C755      1.0  0.66173  0.34902  0.10666  1.0000
  C   C756      1.0  0.66780  0.36679  0.10647  1.0000
  C   C757      1.0  0.68687  0.36822  0.10717  1.0000
  H   H1169     1.0  0.70408  0.32129  0.10928  1.0000
  H   H1170     1.0  0.67063  0.31891  0.10768  1.0000
  H   H1171     1.0  0.65764  0.37951  0.10597  1.0000
  H   H1172     1.0  0.69125  0.38196  0.10721  1.0000
  S   S312      1.0  0.61895  0.06852  0.32998  1.0000
  H   H1173     1.0  0.54522  0.04488  0.25739  1.0000
  H   H1174     1.0  0.51852  0.33927  0.06460  1.0000
  H   H1175     1.0  0.68802  0.35198  0.04644  1.0000
  H   H1176     1.0  0.50512  0.17262  0.13375  1.0000
  N   N73       1.0  0.65006  0.12820  0.15333  1.0000
  C   C758      1.0  0.65040  0.11073  0.14469  1.0000
  C   C759      1.0  0.63317  0.13046  0.16754  1.0000
  C   C760      1.0  0.64958  0.14485  0.13837  1.0000
  C   C761      1.0  0.66707  0.12675  0.16271  1.0000
  H   H1177     1.0  0.66320  0.10824  0.13425  1.0000
  H   H1178     1.0  0.63805  0.11165  0.13697  1.0000
  H   H1179     1.0  0.64989  0.09793  0.15562  1.0000
  H   H1180     1.0  0.63295  0.11808  0.17900  1.0000
  H   H1181     1.0  0.63231  0.14355  0.17431  1.0000
  H   H1182     1.0  0.62010  0.13147  0.16095  1.0000
  H   H1183     1.0  0.64921  0.15839  0.14424  1.0000
  H   H1184     1.0  0.63695  0.14628  0.13100  1.0000
  H   H1185     1.0  0.66200  0.14367  0.12725  1.0000
  H   H1186     1.0  0.66720  0.13971  0.16941  1.0000
  H   H1187     1.0  0.68009  0.12511  0.15236  1.0000
  H   H1188     1.0  0.66787  0.11427  0.17404  1.0000
  H   H1189     1.0  0.68924  0.38829  0.06373  1.0000
  C   C762      1.0  0.58484  0.15133  0.00473  1.0000
  H   H1190     1.0  0.57485  0.25645  0.11593  1.0000
  C   C763      1.0  0.52470  0.07677  0.22402  1.0000
  H   H1191     1.0  0.52290  0.06676  0.21426  1.0000
  H   H1192     1.0  0.59769  0.21540  0.09129  1.0000
  S   S313      1.0  0.72698  0.44992  0.11113  1.0000
  H   H1193     1.0  0.57234  0.32468  0.13254  1.0000
  H   H1194     1.0  0.49807  0.31056  0.01983  1.0000
  H   H1195     1.0  0.55701  0.05381  0.21420  1.0000
  H   H1196     1.0  0.51809  0.10423  0.11098  1.0000
  C   C764      1.0  0.58762  0.35673  0.11984  1.0000
  H   H1197     1.0  0.56264  0.25876  0.09570  1.0000
  C   C765      1.0  0.50434  0.16452  0.08844  1.0000
  H   H1198     1.0  0.70164  0.40059  0.04304  1.0000
  C   C766      1.0  0.72453  0.37081  0.05752  1.0000
  H   H1199     1.0  0.54663  0.34996  0.10597  1.0000
  H   H1200     1.0  0.59090  0.36906  0.10903  1.0000
  H   H1201     1.0  0.58604  0.22472  0.13188  1.0000
  H   H1202     1.0  0.59251  0.35872  0.13325  1.0000
  C   C767      1.0  0.69974  0.35307  0.05439  1.0000
  H   H1203     1.0  0.54629  0.13277  0.07352  1.0000
  H   H1204     1.0  0.72645  0.48974  0.11217  1.0000
  H   H1205     1.0  0.54658  0.09577  0.24010  1.0000
  H   H1206     1.0  0.52795  0.09036  0.21520  1.0000
  H   H1207     1.0  0.56142  0.07779  0.21395  1.0000
  H   H1208     1.0  0.52084  0.05317  0.25621  1.0000
  H   H1209     1.0  0.71937  0.37172  0.07275  1.0000
  C   C768      1.0  0.54845  0.09509  0.08697  1.0000
  C   C769      1.0  0.58232  0.13209  0.00824  1.0000
  H   H1210     1.0  0.56531  0.20644  0.09519  1.0000
  H   H1211     1.0  0.54892  0.33553  0.13890  1.0000
  H   H1212     1.0  0.50820  0.12485  0.09662  1.0000
  C   C770      1.0  0.49796  0.16639  0.10750  1.0000
  C   C771      1.0  0.54178  0.08253  0.24838  1.0000
  H   H1213     1.0  0.59645  0.34394  0.11486  1.0000
  H   H1214     1.0  0.53405  0.03974  0.23847  1.0000
  H   H1215     1.0  0.58911  0.23837  0.07943  1.0000
  H   H1216     1.0  0.56017  0.37449  0.14284  1.0000
  C   C772      1.0  0.50989  0.17158  0.11890  1.0000
  H   H1217     1.0  0.55687  0.08978  0.07411  1.0000
  C   C773      1.0  0.61667  0.30234  0.00723  1.0000
  C   C774      1.0  0.56514  0.24961  0.10931  1.0000
  H   H1218     1.0  0.70990  0.33982  0.05366  1.0000
  H   H1219     1.0  0.73887  0.35461  0.14773  1.0000
  C   C775      1.0  0.50352  0.07250  0.28784  1.0000
  N   N74       1.0  0.53163  0.10832  0.08214  1.0000
  H   H1220     1.0  0.52511  0.13393  0.06308  1.0000
  H   H1221     1.0  0.69371  0.35330  0.06954  1.0000
  C   C776      1.0  0.53478  0.05084  0.24744  1.0000
  C   C777      1.0  0.69509  0.38741  0.04858  1.0000
  H   H1222     1.0  0.50185  0.08787  0.28481  1.0000
  C   C778      1.0  0.71636  0.36952  0.02649  1.0000
  H   H1223     1.0  0.55795  0.10227  0.09344  1.0000
  H   H1224     1.0  0.51096  0.07980  0.23300  1.0000
  H   H1225     1.0  0.55854  0.38477  0.11863  1.0000
  C   C779      1.0  0.52163  0.11587  0.09945  1.0000
  N   N75       1.0  0.57304  0.22988  0.10631  1.0000
  H   H1226     1.0  0.56772  0.33962  0.15093  1.0000
  H   H1227     1.0  0.56422  0.36404  0.09316  1.0000
  S   S314      1.0  0.74278  0.39453  0.12935  1.0000
  C   C780      1.0  0.50461  0.30607  0.10094  1.0000
  C   C781      1.0  0.55971  0.22134  0.09762  1.0000
  H   H1228     1.0  0.68197  0.30498  0.00692  1.0000
  N   N76       1.0  0.53974  0.06870  0.23583  1.0000
  H   H1229     1.0  0.65642  0.28777  0.00311  1.0000
  C   C782      1.0  0.57634  0.21846  0.12474  1.0000
  H   H1230     1.0  0.53022  0.12487  0.10498  1.0000
  C   C783      1.0  0.55767  0.06472  0.22342  1.0000
  C   C784      1.0  0.58261  0.12211  0.02675  1.0000
  N   N77       1.0  0.56740  0.35462  0.12258  1.0000
  C   C785      1.0  0.56177  0.35182  0.10440  1.0000
  C   C786      1.0  0.56392  0.33796  0.13692  1.0000
  C   C787      1.0  0.55626  0.37195  0.12915  1.0000
  C   C788      1.0  0.73860  0.46206  0.12421  1.0000
  H   H1231     1.0  0.64753  0.04520  0.30790  1.0000
  Fe  Fe158     1.0  0.74189  0.42060  0.10771  1.0000
  C   C789      1.0  0.73612  0.48200  0.12159  1.0000
  H   H1232     1.0  0.54466  0.08258  0.09725  1.0000
  H   H1233     1.0  0.72365  0.38210  0.02031  1.0000
  H   H1234     1.0  0.73512  0.35788  0.05686  1.0000
  S   S315      1.0  0.73579  0.40547  0.08469  1.0000
  C   C790      1.0  0.53744  0.12418  0.06782  1.0000
  H   H1235     1.0  0.56951  0.05951  0.23188  1.0000
  H   H1236     1.0  0.54590  0.11895  0.05496  1.0000
  H   H1237     1.0  0.74028  0.32006  0.14690  1.0000
  H   H1238     1.0  0.52833  0.08668  0.25726  1.0000
  H   H1239     1.0  0.50898  0.01757  0.29977  1.0000
  H   H1240     1.0  0.51416  0.08618  0.08472  1.0000
  H   H1241     1.0  0.63137  0.00700  0.31815  1.0000
  C   C791      1.0  0.65633  0.03167  0.30463  1.0000
  H   H1242     1.0  0.67065  0.03515  0.29872  1.0000
  H   H1243     1.0  0.60058  0.00646  0.25296  1.0000
  C   C792      1.0  0.63743  0.01305  0.32886  1.0000
  H   H1244     1.0  0.74196  0.34962  0.17241  1.0000
  H   H1245     1.0  0.74384  0.31514  0.17147  1.0000
  H   H1246     1.0  0.50626  0.10788  0.07034  1.0000
  H   H1247     1.0  0.72682  0.35665  0.02456  1.0000
  C   C793      1.0  0.59993  0.27709  0.00252  1.0000
  H   H1248     1.0  0.67897  0.02801  0.33169  1.0000
  H   H1249     1.0  0.62798  0.02617  0.33223  1.0000
  H   H1250     1.0  0.68328  0.00222  0.31123  1.0000
  Fe  Fe159     1.0  0.64648  0.04447  0.43656  1.0000
  S   S316      1.0  0.67542  0.02802  0.43622  1.0000
  S   S317      1.0  0.62689  0.03753  0.41718  1.0000
  Fe  Fe160     1.0  0.65059  0.06169  0.47253  1.0000
  S   S318      1.0  0.67939  0.04631  0.47474  1.0000
  S   S319      1.0  0.63833  0.08293  0.49283  1.0000
  Fe  Fe161     1.0  0.68433  0.05443  0.44321  1.0000
  S   S320      1.0  0.71081  0.06663  0.42969  1.0000
  Fe  Fe162     1.0  0.66798  0.02145  0.46780  1.0000
  H   H1251     1.0  0.64138  0.07790  0.35587  1.0000
  S   S321      1.0  0.65596  0.07173  0.44108  1.0000
  S   S322      1.0  0.63842  0.03602  0.46805  1.0000
  Fe  Fe163     1.0  0.66646  0.06695  0.59744  1.0000
  S   S323      1.0  0.68038  0.03827  0.59124  1.0000
  S   S324      1.0  0.65609  0.09056  0.57527  1.0000
  Fe  Fe164     1.0  0.66785  0.05698  0.64049  1.0000
  S   S325      1.0  0.68217  0.02729  0.63748  1.0000
  H   H1252     1.0  0.60570  0.09839  0.65019  1.0000
  Fe  Fe165     1.0  0.69989  0.04069  0.61197  1.0000
  H   H1253     1.0  0.66591  0.09922  0.46565  1.0000
  Fe  Fe166     1.0  0.66167  0.02750  0.61704  1.0000
  H   H1254     1.0  0.68923  0.11906  0.49912  1.0000
  S   S326      1.0  0.68739  0.07056  0.61632  1.0000
  S   S327      1.0  0.64592  0.05606  0.62185  1.0000
  H   H1255     1.0  0.70408  0.08615  0.49626  1.0000
  H   H1256     1.0  0.62635  0.14138  0.62481  1.0000
  C   C794      1.0  0.63212  0.11775  0.65687  1.0000
  H   H1257     1.0  0.60079  0.03983  0.35747  1.0000
  C   C795      1.0  0.73026  0.05918  0.44213  1.0000
  C   C796      1.0  0.64397  0.08357  0.51585  1.0000
  C   C797      1.0  0.65553  0.06894  0.52559  1.0000
  C   C798      1.0  0.65929  0.07056  0.54404  1.0000
  C   C799      1.0  0.65172  0.08694  0.55255  1.0000
  C   C800      1.0  0.64055  0.10151  0.54253  1.0000
  C   C801      1.0  0.63657  0.09976  0.52447  1.0000
  H   H1258     1.0  0.66143  0.05646  0.51895  1.0000
  H   H1259     1.0  0.66820  0.05938  0.55155  1.0000
  H   H1260     1.0  0.63470  0.11421  0.54887  1.0000
  H   H1261     1.0  0.62765  0.11112  0.51713  1.0000
  H   H1262     1.0  0.65662  0.12013  0.62449  1.0000
  C   C802      1.0  0.68095  0.11823  0.48753  1.0000
  H   H1263     1.0  0.68669  0.09451  0.44924  1.0000
  H   H1264     1.0  0.71836  0.11286  0.47603  1.0000
  C   C803      1.0  0.61271  0.03882  0.38353  1.0000
  H   H1265     1.0  0.70321  0.07587  0.47525  1.0000
  H   H1266     1.0  0.71748  0.03722  0.46132  1.0000
  C   C804      1.0  0.63559  0.06019  0.38268  1.0000
  C   C805      1.0  0.62513  0.04620  0.39285  1.0000
  C   C806      1.0  0.70906  0.11216  0.46527  1.0000
  H   H1267     1.0  0.64515  0.06606  0.38964  1.0000
  H   H1268     1.0  0.61745  0.09136  0.62795  1.0000
  S   S328      1.0  0.73035  0.02929  0.60344  1.0000
  N   N78       1.0  0.69123  0.10523  0.47426  1.0000
  H   H1269     1.0  0.70651  0.12662  0.45714  1.0000
  H   H1270     1.0  0.71699  0.10254  0.45513  1.0000
  H   H1271     1.0  0.60447  0.02808  0.39127  1.0000
  C   C807      1.0  0.61969  0.09565  0.64159  1.0000
  C   C808      1.0  0.63339  0.06690  0.36352  1.0000
  C   C809      1.0  0.64860  0.10773  0.62757  1.0000
  C   C810      1.0  0.74439  0.05612  0.61910  1.0000
  H   H1272     1.0  0.67759  0.13289  0.48010  1.0000
  H   H1273     1.0  0.68220  0.08033  0.49167  1.0000
  H   H1274     1.0  0.61743  0.12482  0.61327  1.0000
  C   C811      1.0  0.61059  0.04546  0.36433  1.0000
  H   H1275     1.0  0.64469  0.02169  0.54009  1.0000
  C   C812      1.0  0.67950  0.10436  0.45940  1.0000
  H   H1276     1.0  0.66849  0.02578  0.54005  1.0000
  C   C813      1.0  0.65664  0.01892  0.54864  1.0000
  H   H1277     1.0  0.60481  0.13218  0.63501  1.0000
  N   N79       1.0  0.62987  0.11242  0.63836  1.0000
  C   C814      1.0  0.69538  0.08604  0.48483  1.0000
  H   H1278     1.0  0.64015  0.10586  0.66546  1.0000
  H   H1279     1.0  0.73014  0.06022  0.62545  1.0000
  H   H1280     1.0  0.64751  0.10307  0.61374  1.0000
  H   H1281     1.0  0.63705  0.00262  0.34204  1.0000
  C   C815      1.0  0.62085  0.05965  0.35424  1.0000
  C   C816      1.0  0.61912  0.12843  0.62740  1.0000
  C   C817      1.0  0.72968  0.04456  0.45742  1.0000
  H   H1282     1.0  0.66737  0.11329  0.49436  1.0000
  H   H1283     1.0  0.67615  0.11856  0.45106  1.0000
  H   H1284     1.0  0.65722  0.09599  0.63567  1.0000
  H   H1285     1.0  0.61164  0.00523  0.43792  1.0000
  H   H1286     1.0  0.62774  0.08322  0.64940  1.0000
  H   H1287     1.0  0.61827  0.12125  0.66548  1.0000
  H   H1288     1.0  0.66461  0.01438  0.34978  1.0000
  H   H1289     1.0  0.65217  0.02631  0.56145  1.0000
  H   H1290     1.0  0.74454  0.02781  0.47942  1.0000
  S   S329      1.0  0.64636  0.00303  0.61594  1.0000
  H   H1291     1.0  0.63989  0.13026  0.65504  1.0000
  H   H1292     1.0  0.67440  0.00260  0.57802  1.0000
  H   H1293     1.0  0.61809  0.00168  0.46139  1.0000
  C   C818      1.0  0.74512  0.03910  0.46755  1.0000
  C   C819      1.0  0.66439  0.02472  0.33654  1.0000
  H   H1294     1.0  0.65570  0.03813  0.34040  1.0000
  H   H1295     1.0  0.69067  0.00142  0.55671  1.0000
  Fe  Fe167     1.0  0.58442  0.03503  0.79950  1.0000
  S   S330      1.0  0.56549  0.04464  0.77723  1.0000
  H   H1296     1.0  0.64699  0.32255  0.97351  1.0000
  Fe  Fe168     1.0  0.58721  0.07587  0.80522  1.0000
  S   S331      1.0  0.56926  0.08824  0.78204  1.0000
  S   S332      1.0  0.59696  0.09681  0.82141  1.0000
  Fe  Fe169     1.0  0.55115  0.06609  0.79597  1.0000
  S   S333      1.0  0.51985  0.07285  0.80387  1.0000
  Fe  Fe170     1.0  0.58569  0.06565  0.76507  1.0000
  S   S334      1.0  0.59130  0.06513  0.73292  1.0000
  S   S335      1.0  0.56827  0.05457  0.81969  1.0000
  S   S336      1.0  0.60537  0.05518  0.78693  1.0000
  S   S337      1.0  0.71196  0.35010  0.92042  1.0000
  C   C820      1.0  0.74241  0.48680  0.94502  1.0000
  Fe  Fe171     1.0  0.57706  0.13656  0.91951  1.0000
  S   S338      1.0  0.57489  0.16332  0.89900  1.0000
  S   S339      1.0  0.57596  0.10846  0.90870  1.0000
  Fe  Fe172     1.0  0.58061  0.15779  0.95309  1.0000
  S   S340      1.0  0.57832  0.18594  0.93421  1.0000
  S   S341      1.0  0.58508  0.16477  0.98183  1.0000
  Fe  Fe173     1.0  0.55543  0.17570  0.92261  1.0000
  S   S342      1.0  0.52747  0.19345  0.91891  1.0000
  Fe  Fe174     1.0  0.59787  0.17081  0.91268  1.0000
  S   S343      1.0  0.62371  0.18079  0.89535  1.0000
  S   S344      1.0  0.55604  0.14855  0.94281  1.0000
  S   S345      1.0  0.60178  0.14316  0.93183  1.0000
  Fe  Fe175     1.0  0.61091  0.31863  0.93749  1.0000
  S   S346      1.0  0.62276  0.28837  0.94606  1.0000
  S   S347      1.0  0.62417  0.34429  0.94157  1.0000
  Fe  Fe176     1.0  0.57573  0.30701  0.92552  1.0000
  S   S348      1.0  0.58494  0.27568  0.93290  1.0000
  S   S349      1.0  0.54910  0.32021  0.91298  1.0000
  Fe  Fe177     1.0  0.59331  0.28415  0.95882  1.0000
  H   H1297     1.0  0.49874  0.11934  0.85069  1.0000
  Fe  Fe178     1.0  0.61352  0.28249  0.91944  1.0000
  S   S350      1.0  0.63497  0.26514  0.90109  1.0000
  S   S351      1.0  0.58184  0.31495  0.95270  1.0000
  S   S352      1.0  0.60388  0.31315  0.90967  1.0000
  N   N80       1.0  0.50225  0.01525  0.80414  1.0000
  H   H1298     1.0  0.49925  0.04027  0.81793  1.0000
  C   C821      1.0  0.51153  0.31705  0.91408  1.0000
  C   C822      1.0  0.52813  0.31036  0.92227  1.0000
  C   C823      1.0  0.52767  0.29621  0.93798  1.0000
  H   H1299     1.0  0.63327  0.19477  0.95803  1.0000
  H   H1300     1.0  0.50922  0.14194  0.92643  1.0000
  C   C824      1.0  0.59492  0.01050  0.74847  1.0000
  H   H1301     1.0  0.54035  0.29088  0.94437  1.0000
  H   H1302     1.0  0.62022  0.20291  0.93839  1.0000
  C   C825      1.0  0.62596  0.20464  0.89620  1.0000
  C   C826      1.0  0.61064  0.21746  0.90269  1.0000
  C   C827      1.0  0.61314  0.23622  0.90409  1.0000
  C   C828      1.0  0.63093  0.24214  0.89888  1.0000
  C   C829      1.0  0.64605  0.22944  0.89194  1.0000
  C   C830      1.0  0.64359  0.21074  0.89062  1.0000
  H   H1303     1.0  0.59686  0.21300  0.90642  1.0000
  H   H1304     1.0  0.60130  0.24614  0.90892  1.0000
  H   H1305     1.0  0.65979  0.23402  0.88776  1.0000
  H   H1306     1.0  0.65543  0.20095  0.88547  1.0000
  C   C831      1.0  0.51492  0.18129  0.90679  1.0000
  H   H1307     1.0  0.51300  0.06439  0.73909  1.0000
  H   H1308     1.0  0.56028  0.36374  0.89637  1.0000
  H   H1309     1.0  0.59880  0.05393  0.69578  1.0000
  C   C832      1.0  0.51476  0.15878  0.88491  1.0000
  C   C833      1.0  0.52450  0.16978  0.89346  1.0000
  H   H1310     1.0  0.51060  0.27824  0.95790  1.0000
  N   N81       1.0  0.61562  0.00623  0.74645  1.0000
  H   H1311     1.0  0.52237  0.14962  0.87489  1.0000
  H   H1312     1.0  0.53943  0.16940  0.88958  1.0000
  H   H1313     1.0  0.58193  0.21163  0.96296  1.0000
  H   H1314     1.0  0.63641  0.22837  0.96006  1.0000
  C   C834      1.0  0.59112  0.22296  0.95782  1.0000
  H   H1315     1.0  0.61933  0.02232  0.71867  1.0000
  C   C835      1.0  0.50588  0.06793  0.75268  1.0000
  C   C836      1.0  0.68737  0.34941  0.92601  1.0000
  C   C837      1.0  0.67576  0.36156  0.93766  1.0000
  C   C838      1.0  0.65639  0.36001  0.94207  1.0000
  C   C839      1.0  0.64849  0.34614  0.93518  1.0000
  C   C840      1.0  0.66006  0.33406  0.92349  1.0000
  C   C841      1.0  0.67935  0.33578  0.91887  1.0000
  H   H1316     1.0  0.68172  0.37215  0.94320  1.0000
  H   H1317     1.0  0.64753  0.36950  0.95105  1.0000
  H   H1318     1.0  0.65418  0.32341  0.91795  1.0000
  H   H1319     1.0  0.68819  0.32636  0.90979  1.0000
  C   C842      1.0  0.61140  0.05885  0.69843  1.0000
  C   C843      1.0  0.62184  0.23249  0.95648  1.0000
  C   C844      1.0  0.58817  0.10008  0.84533  1.0000
  C   C845      1.0  0.58489  0.08471  0.85945  1.0000
  C   C846      1.0  0.58062  0.08755  0.87872  1.0000
  C   C847      1.0  0.57937  0.10578  0.88411  1.0000
  C   C848      1.0  0.58173  0.12125  0.86989  1.0000
  C   C849      1.0  0.58636  0.11836  0.85069  1.0000
  H   H1320     1.0  0.58640  0.07052  0.85559  1.0000
  H   H1321     1.0  0.57878  0.07546  0.88953  1.0000
  H   H1322     1.0  0.58040  0.13540  0.87365  1.0000
  H   H1323     1.0  0.58869  0.13036  0.83988  1.0000
  C   C850      1.0  0.61184  0.06503  0.71598  1.0000
  H   H1324     1.0  0.65613  0.07746  0.70722  1.0000
  C   C851      1.0  0.62823  0.07132  0.71922  1.0000
  H   H1325     1.0  0.62657  0.05394  0.67094  1.0000
  H   H1326     1.0  0.62875  0.07622  0.73260  1.0000
  C   C852      1.0  0.50204  0.13003  0.93465  1.0000
  H   H1327     1.0  0.61579  0.24549  0.96307  1.0000
  C   C853      1.0  0.60903  0.21225  0.98396  1.0000
  C   C854      1.0  0.64324  0.06595  0.68719  1.0000
  H   H1328     1.0  0.61044  0.18793  0.95861  1.0000
  C   C855      1.0  0.51637  0.07016  0.76689  1.0000
  H   H1329     1.0  0.59138  0.22626  0.94216  1.0000
  H   H1330     1.0  0.53154  0.06853  0.76413  1.0000
  C   C856      1.0  0.50719  0.07373  0.78479  1.0000
  C   C857      1.0  0.62319  0.00773  0.72607  1.0000
  H   H1331     1.0  0.52303  0.03315  0.79065  1.0000
  H   H1332     1.0  0.67128  0.27405  0.98649  1.0000
  H   H1333     1.0  0.58038  0.34620  0.89414  1.0000
  C   C858      1.0  0.66197  0.28773  0.98780  1.0000
  H   H1334     1.0  0.69001  0.28998  0.95872  1.0000
  H   H1335     1.0  0.69547  0.31643  0.98641  1.0000
  H   H1336     1.0  0.50079  0.10906  0.90712  1.0000
  H   H1337     1.0  0.63880  0.00470  0.72397  1.0000
  C   C859      1.0  0.73819  0.45516  0.93951  1.0000
  H   H1338     1.0  0.49960  0.24202  0.87668  1.0000
  H   H1339     1.0  0.50210  0.22106  0.89376  1.0000
  C   C860      1.0  0.65898  0.32204  0.98169  1.0000
  H   H1340     1.0  0.58193  0.39844  0.88665  1.0000
  H   H1341     1.0  0.58550  0.39974  0.91058  1.0000
  S   S353      1.0  0.74469  0.39125  0.90800  1.0000
  S   S354      1.0  0.72491  0.38771  0.95216  1.0000
  C   C861      1.0  0.62711  0.05895  0.68425  1.0000
  N   N82       1.0  0.63594  0.13000  0.87194  1.0000
  C   C862      1.0  0.64552  0.13551  0.88659  1.0000
  C   C863      1.0  0.64974  0.12610  0.85520  1.0000
  C   C864      1.0  0.62138  0.14572  0.86620  1.0000
  C   C865      1.0  0.62709  0.11271  0.87978  1.0000
  H   H1342     1.0  0.63542  0.13848  0.89941  1.0000
  H   H1343     1.0  0.65203  0.14875  0.88131  1.0000
  H   H1344     1.0  0.65674  0.12412  0.89121  1.0000
  H   H1345     1.0  0.64285  0.12195  0.84390  1.0000
  H   H1346     1.0  0.65664  0.13889  0.84894  1.0000
  H   H1347     1.0  0.66093  0.11428  0.85898  1.0000
  H   H1348     1.0  0.61405  0.14228  0.85491  1.0000
  H   H1349     1.0  0.62749  0.15916  0.86073  1.0000
  H   H1350     1.0  0.61060  0.14883  0.87842  1.0000
  H   H1351     1.0  0.62029  0.10773  0.86890  1.0000
  H   H1352     1.0  0.61602  0.11535  0.89198  1.0000
  H   H1353     1.0  0.63754  0.10074  0.88489  1.0000
  N   N83       1.0  0.58525  0.37145  0.90438  1.0000
  C   C866      1.0  0.60586  0.36819  0.89893  1.0000
  C   C867      1.0  0.57583  0.36183  0.89243  1.0000
  C   C868      1.0  0.57866  0.39210  0.90171  1.0000
  C   C869      1.0  0.58063  0.36369  0.92452  1.0000
  H   H1354     1.0  0.61340  0.37500  0.90792  1.0000
  H   H1355     1.0  0.60998  0.37388  0.88383  1.0000
  H   H1356     1.0  0.61136  0.35276  0.90085  1.0000
  Fe  Fe179     1.0  0.73100  0.36917  0.92888  1.0000
  C   C870      1.0  0.51118  0.25028  0.90807  1.0000
  C   C871      1.0  0.64373  0.07202  0.70479  1.0000
  H   H1357     1.0  0.63892  0.01755  0.75385  1.0000
  H   H1358     1.0  0.56318  0.39503  0.90577  1.0000
  H   H1359     1.0  0.58748  0.37056  0.93404  1.0000
  H   H1360     1.0  0.58571  0.34825  0.92696  1.0000
  H   H1361     1.0  0.56520  0.36547  0.92915  1.0000
  S   S355      1.0  0.73350  0.44029  0.92401  1.0000
  H   H1362     1.0  0.49973  0.13227  0.94985  1.0000
  C   C872      1.0  0.51072  0.28912  0.94568  1.0000
  H   H1363     1.0  0.52191  0.11989  0.90226  1.0000
  H   H1364     1.0  0.60237  0.22476  0.99115  1.0000
  H   H1365     1.0  0.52450  0.01280  0.82137  1.0000
  N   N84       1.0  0.61025  0.21691  0.96308  1.0000
  H   H1366     1.0  0.66609  0.33480  0.97587  1.0000
  H   H1367     1.0  0.60435  0.30188  0.98216  1.0000
  H   H1368     1.0  0.55908  0.00645  0.79132  1.0000
  H   H1369     1.0  0.62283  0.23654  0.94081  1.0000
  H   H1370     1.0  0.64976  0.28782  0.98008  1.0000
  Fe  Fe180     1.0  0.74109  0.40860  0.93201  1.0000
  C   C873      1.0  0.67999  0.30318  0.96032  1.0000
  C   C874      1.0  0.53214  0.11090  0.93707  1.0000
  S   S356      1.0  0.58876  0.26683  0.98747  1.0000
  S   S357      1.0  0.66252  0.06865  0.66895  1.0000
  H   H1371     1.0  0.53160  0.11361  0.95197  1.0000
  H   H1372     1.0  0.61902  0.03491  0.74911  1.0000
  H   H1373     1.0  0.50477  0.03221  0.77670  1.0000
  C   C875      1.0  0.60671  0.29444  0.99596  1.0000
  H   H1374     1.0  0.51177  0.32799  0.90190  1.0000
  H   H1375     1.0  0.74182  0.43293  0.96301  1.0000
  H   H1376     1.0  0.67913  0.49766  0.96117  1.0000
  C   C876      1.0  0.51481  0.10856  0.91173  1.0000
  H   H1377     1.0  0.52320  0.09468  0.90910  1.0000
  C   C877      1.0  0.68751  0.30413  0.99170  1.0000
  H   H1378     1.0  0.50461  0.28521  0.99812  1.0000
  H   H1379     1.0  0.58888  0.01002  0.76366  1.0000
  H   H1380     1.0  0.68775  0.31546  0.95427  1.0000
  H   H1381     1.0  0.53971  0.12187  0.92762  1.0000
  H   H1382     1.0  0.70168  0.49289  0.94750  1.0000
  H   H1383     1.0  0.52026  0.23661  0.91185  1.0000
  S   S358      1.0  0.59468  0.00361  0.80633  1.0000
  N   N85       1.0  0.67212  0.30426  0.98037  1.0000
  H   H1384     1.0  0.57895  0.36727  0.87710  1.0000
  C   C878      1.0  0.51377  0.02358  0.78702  1.0000
  N   N86       1.0  0.51315  0.11138  0.93189  1.0000
  H   H1385     1.0  0.50236  0.09788  0.95937  1.0000
  H   H1386     1.0  0.54090  0.09694  0.93545  1.0000
  C   C879      1.0  0.74190  0.44794  0.95796  1.0000
  H   H1387     1.0  0.59030  0.02498  0.74126  1.0000
  H   H1388     1.0  0.50457  0.31846  0.98453  1.0000
  C   C880      1.0  0.50379  0.09609  0.94408  1.0000
  H   H1389     1.0  0.51825  0.25769  0.89477  1.0000
  H   H1390     1.0  0.66870  0.30330  0.95140  1.0000
  C   C881      1.0  0.61894  0.19990  0.95414  1.0000
  H   H1391     1.0  0.61818  0.01890  0.77095  1.0000
  H   H1392     1.0  0.62316  0.20769  0.98856  1.0000
  H   H1393     1.0  0.58431  0.23596  0.96413  1.0000
  H   H1394     1.0  0.60043  0.20044  0.98931  1.0000
  H   H1395     1.0  0.73577  0.48021  0.91874  1.0000
  H   H1396     1.0  0.68111  0.49958  0.93572  1.0000
  C   C882      1.0  0.51471  0.00395  0.81742  1.0000
  H   H1397     1.0  0.52295  0.01244  0.77954  1.0000
  C   C883      1.0  0.62330  0.01999  0.75546  1.0000
  H   H1398     1.0  0.65300  0.32345  0.99670  1.0000
  C   C884      1.0  0.73846  0.47461  0.93307  1.0000
  H   H1399     1.0  0.51074  0.25923  0.91951  1.0000
  H   H1400     1.0  0.69770  0.29090  0.99108  1.0000
  H   H1401     1.0  0.58032  0.12489  0.99670  1.0000
  H   H1402     1.0  0.51169  0.08179  0.94230  1.0000
  H   H1403     1.0  0.50782  0.09641  0.84361  1.0000
  C   C885      1.0  0.74532  0.46027  0.97009  1.0000
  C   C886      1.0  0.74549  0.47975  0.96369  1.0000
  H   H1404     1.0  0.62768  0.83357  0.19853  1.0000
  H   H1405     1.0  0.73711  0.53250  0.08411  1.0000
  C   C887      1.0  0.53030  0.84150  0.22301  1.0000
  H   H1406     1.0  0.55285  0.94847  0.29704  1.0000
  Fe  Fe181     1.0  0.62887  0.66263  0.08151  1.0000
  S   S359      1.0  0.61811  0.63449  0.09115  1.0000
  S   S360      1.0  0.63032  0.67554  0.05096  1.0000
  Fe  Fe182     1.0  0.63438  0.66816  0.12088  1.0000
  S   S361      1.0  0.62371  0.64071  0.13372  1.0000
  S   S362      1.0  0.64471  0.68352  0.14143  1.0000
  Fe  Fe183     1.0  0.64194  0.62856  0.10909  1.0000
  S   S363      1.0  0.66043  0.59993  0.11374  1.0000
  Fe  Fe184     1.0  0.60104  0.64943  0.11466  1.0000
  S   S364      1.0  0.56991  0.65098  0.12622  1.0000
  S   S365      1.0  0.65392  0.65560  0.09738  1.0000
  S   S366      1.0  0.61056  0.67792  0.10384  1.0000
  C   C888      1.0  0.58812  0.69073  0.15164  1.0000
  Fe  Fe185     1.0  0.56217  0.78129  0.14832  1.0000
  S   S367      1.0  0.55179  0.81175  0.13949  1.0000
  S   S368      1.0  0.54001  0.76242  0.15994  1.0000
  Fe  Fe186     1.0  0.60237  0.78746  0.13679  1.0000
  S   S369      1.0  0.59526  0.81868  0.12653  1.0000
  S   S370      1.0  0.63207  0.77335  0.13743  1.0000
  Fe  Fe187     1.0  0.57498  0.81852  0.15361  1.0000
  S   S371      1.0  0.56873  0.84312  0.17119  1.0000
  Fe  Fe188     1.0  0.57274  0.80906  0.11326  1.0000
  S   S372      1.0  0.55988  0.82038  0.08610  1.0000
  S   S373      1.0  0.58368  0.78801  0.16470  1.0000
  S   S374      1.0  0.58168  0.77789  0.12142  1.0000
  H   H1407     1.0  0.49745  0.68303  0.09673  1.0000
  C   C889      1.0  0.50238  0.69138  0.10639  1.0000
  C   C890      1.0  0.57799  0.66422  0.04879  1.0000
  H   H1408     1.0  0.58775  0.68756  0.16732  1.0000
  Fe  Fe189     1.0  0.59496  0.87016  0.26636  1.0000
  S   S375      1.0  0.57084  0.89346  0.26374  1.0000
  S   S376      1.0  0.60004  0.84542  0.24880  1.0000
  Fe  Fe190     1.0  0.60784  0.88595  0.29936  1.0000
  S   S377      1.0  0.58435  0.91026  0.29916  1.0000
  Fe  Fe191     1.0  0.56623  0.88881  0.29547  1.0000
  S   S378      1.0  0.53600  0.89148  0.30854  1.0000
  Fe  Fe192     1.0  0.59080  0.91308  0.26750  1.0000
  S   S379      1.0  0.58731  0.94228  0.25058  1.0000
  S   S380      1.0  0.58900  0.86391  0.29834  1.0000
  S   S381      1.0  0.61571  0.89029  0.26742  1.0000
  H   H1409     1.0  0.57308  0.69978  0.11930  1.0000
  C   C891      1.0  0.71247  0.57479  0.06837  1.0000
  H   H1410     1.0  0.55948  0.96850  0.28026  1.0000
  C   C892      1.0  0.52376  0.87679  0.29895  1.0000
  C   C893      1.0  0.53359  0.86289  0.28821  1.0000
  C   C894      1.0  0.52379  0.85247  0.27898  1.0000
  H   H1411     1.0  0.74445  0.50729  0.12879  1.0000
  H   H1412     1.0  0.53196  0.96993  0.31760  1.0000
  H   H1413     1.0  0.54877  0.86023  0.28690  1.0000
  H   H1414     1.0  0.53150  0.84174  0.27070  1.0000
  H   H1415     1.0  0.63472  0.62081  0.04767  1.0000
  H   H1416     1.0  0.52871  0.80383  0.20008  1.0000
  C   C895      1.0  0.59520  0.97809  0.25148  1.0000
  C   C896      1.0  0.59996  0.95862  0.25728  1.0000
  C   C897      1.0  0.61393  0.95258  0.26914  1.0000
  C   C898      1.0  0.62320  0.96602  0.27505  1.0000
  H   H1417     1.0  0.58956  0.97819  0.30117  1.0000
  C   C899      1.0  0.50013  0.65559  0.03462  1.0000
  H   H1418     1.0  0.61765  0.93754  0.27372  1.0000
  H   H1419     1.0  0.63404  0.96128  0.28418  1.0000
  H   H1420     1.0  0.63449  0.79489  0.16842  1.0000
  H   H1421     1.0  0.55248  0.75756  0.12084  1.0000
  H   H1422     1.0  0.64565  0.85122  0.17076  1.0000
  C   C900      1.0  0.53747  0.75780  0.12342  1.0000
  C   C901      1.0  0.57656  0.84330  0.19333  1.0000
  C   C902      1.0  0.57454  0.86059  0.20081  1.0000
  C   C903      1.0  0.58117  0.86143  0.21806  1.0000
  C   C904      1.0  0.58989  0.84495  0.22801  1.0000
  C   C905      1.0  0.59139  0.82758  0.22079  1.0000
  C   C906      1.0  0.58477  0.82673  0.20355  1.0000
  H   H1423     1.0  0.56813  0.87349  0.19305  1.0000
  H   H1424     1.0  0.57996  0.87490  0.22344  1.0000
  H   H1425     1.0  0.59794  0.81474  0.22853  1.0000
  H   H1426     1.0  0.58615  0.81326  0.19815  1.0000
  C   C907      1.0  0.58580  0.81130  0.02521  1.0000
  C   C908      1.0  0.59741  0.80963  0.03951  1.0000
  C   C909      1.0  0.58964  0.81146  0.05843  1.0000
  C   C910      1.0  0.57017  0.81555  0.06308  1.0000
  C   C911      1.0  0.55856  0.81713  0.04879  1.0000
  C   C912      1.0  0.56630  0.81474  0.02998  1.0000
  H   H1427     1.0  0.61252  0.80709  0.03593  1.0000
  H   H1428     1.0  0.59873  0.81040  0.06925  1.0000
  H   H1429     1.0  0.54350  0.82040  0.05222  1.0000
  C   C913      1.0  0.52032  0.64017  0.11295  1.0000
  C   C914      1.0  0.52776  0.76000  0.14144  1.0000
  C   C915      1.0  0.61820  0.98553  0.26949  1.0000
  H   H1430     1.0  0.73745  0.56546  0.03868  1.0000
  C   C916      1.0  0.64102  0.70856  0.13935  1.0000
  C   C917      1.0  0.64852  0.71733  0.15202  1.0000
  C   C918      1.0  0.64576  0.73717  0.15119  1.0000
  C   C919      1.0  0.63501  0.74845  0.13802  1.0000
  C   C920      1.0  0.62736  0.73975  0.12531  1.0000
  C   C921      1.0  0.63062  0.71979  0.12579  1.0000
  H   H1431     1.0  0.65665  0.70876  0.16246  1.0000
  H   H1432     1.0  0.65184  0.74378  0.16092  1.0000
  H   H1433     1.0  0.61941  0.74845  0.11480  1.0000
  H   H1434     1.0  0.62520  0.71313  0.11566  1.0000
  H   H1435     1.0  0.62376  0.80968  0.19744  1.0000
  H   H1436     1.0  0.64698  0.81465  0.19858  1.0000
  C   C922      1.0  0.53411  0.64555  0.12217  1.0000
  C   C923      1.0  0.55307  0.64406  0.11405  1.0000
  C   C924      1.0  0.55813  0.63715  0.09657  1.0000
  C   C925      1.0  0.54436  0.63164  0.08743  1.0000
  H   H1437     1.0  0.53013  0.65062  0.13580  1.0000
  H   H1438     1.0  0.57265  0.63596  0.09015  1.0000
  H   H1439     1.0  0.54843  0.62621  0.07397  1.0000
  C   C926      1.0  0.59371  0.66871  0.05547  1.0000
  C   C927      1.0  0.60946  0.67319  0.04267  1.0000
  C   C928      1.0  0.60905  0.67425  0.02317  1.0000
  H   H1440     1.0  0.59384  0.66807  0.07057  1.0000
  H   H1441     1.0  0.50005  0.71939  0.12727  1.0000
  C   C929      1.0  0.72411  0.59262  0.11716  1.0000
  C   C930      1.0  0.71480  0.61018  0.10963  1.0000
  C   C931      1.0  0.69541  0.61253  0.10824  1.0000
  C   C932      1.0  0.68502  0.59735  0.11455  1.0000
  C   C933      1.0  0.69436  0.57969  0.12186  1.0000
  C   C934      1.0  0.71381  0.57731  0.12317  1.0000
  H   H1442     1.0  0.72268  0.62205  0.10477  1.0000
  H   H1443     1.0  0.68852  0.62610  0.10229  1.0000
  H   H1444     1.0  0.68646  0.56784  0.12681  1.0000
  H   H1445     1.0  0.72076  0.56375  0.12914  1.0000
  H   H1446     1.0  0.54099  0.98924  0.32497  1.0000
  C   C935      1.0  0.53384  0.81685  0.20289  1.0000
  H   H1447     1.0  0.53547  0.75344  0.09485  1.0000
  C   C936      1.0  0.52541  0.63308  0.09558  1.0000
  H   H1448     1.0  0.52974  0.83762  0.11522  1.0000
  S   S382      1.0  0.55990  0.65534  0.02139  1.0000
  H   H1449     1.0  0.57401  0.99406  0.31540  1.0000
  H   H1450     1.0  0.55722  0.81620  0.01909  1.0000
  H   H1451     1.0  0.58497  0.62150  0.03982  1.0000
  C   C937      1.0  0.57476  0.98499  0.30401  1.0000
  H   H1452     1.0  0.62188  0.58437  0.02200  1.0000
  C   C938      1.0  0.50827  0.76005  0.14466  1.0000
  C   C939      1.0  0.52502  0.80957  0.23671  1.0000
  C   C940      1.0  0.73424  0.55349  0.05000  1.0000
  C   C941      1.0  0.62131  0.62471  0.04143  1.0000
  H   H1453     1.0  0.70845  0.58030  0.08227  1.0000
  H   H1454     1.0  0.61130  0.63297  0.05137  1.0000
  H   H1455     1.0  0.50628  0.92577  0.22255  1.0000
  H   H1456     1.0  0.51680  0.74854  0.01230  1.0000
  H   H1457     1.0  0.64090  0.59241  0.03060  1.0000
  H   H1458     1.0  0.50860  0.89052  0.25323  1.0000
  H   H1459     1.0  0.50621  0.81970  0.13669  1.0000
  C   C942      1.0  0.49872  0.92644  0.23713  1.0000
  H   H1460     1.0  0.60411  0.58250  0.05458  1.0000
  C   C943      1.0  0.62684  0.72427  0.01739  1.0000
  C   C944      1.0  0.50832  0.75581  0.11180  1.0000
  C   C945      1.0  0.51270  0.65042  0.00247  1.0000
  H   H1461     1.0  0.57146  0.99471  0.29094  1.0000
  H   H1462     1.0  0.50668  0.70468  0.09774  1.0000
  H   H1463     1.0  0.51680  0.61363  0.01793  1.0000
  H   H1464     1.0  0.52026  0.81593  0.08530  1.0000
  H   H1465     1.0  0.52202  0.84779  0.23541  1.0000
  H   H1466     1.0  0.71282  0.53728  0.08035  1.0000
  C   C946      1.0  0.50408  0.87999  0.30073  1.0000
  H   H1467     1.0  0.52850  0.62725  0.03040  1.0000
  C   C947      1.0  0.62728  0.59719  0.02494  1.0000
  H   H1468     1.0  0.62412  0.63443  0.02796  1.0000
  H   H1469     1.0  0.66305  0.99380  0.30546  1.0000
  H   H1470     1.0  0.62644  0.70871  0.02133  1.0000
  N   N87       1.0  0.68241  0.63549  0.15886  1.0000
  C   C948      1.0  0.69860  0.63688  0.16857  1.0000
  C   C949      1.0  0.68447  0.64659  0.13973  1.0000
  C   C950      1.0  0.66479  0.64319  0.16991  1.0000
  C   C951      1.0  0.68178  0.61532  0.15720  1.0000
  H   H1471     1.0  0.69751  0.62871  0.18308  1.0000
  H   H1472     1.0  0.69955  0.65194  0.16994  1.0000
  H   H1473     1.0  0.71211  0.63111  0.16056  1.0000
  H   H1474     1.0  0.67274  0.64542  0.13185  1.0000
  H   H1475     1.0  0.68430  0.66201  0.14046  1.0000
  H   H1476     1.0  0.69786  0.64158  0.13113  1.0000
  H   H1477     1.0  0.65236  0.64254  0.16277  1.0000
  H   H1478     1.0  0.66476  0.65842  0.17139  1.0000
  H   H1479     1.0  0.66263  0.63513  0.18441  1.0000
  H   H1480     1.0  0.66999  0.61377  0.14950  1.0000
  H   H1481     1.0  0.67983  0.60656  0.17136  1.0000
  H   H1482     1.0  0.69503  0.60894  0.14928  1.0000
  N   N88       1.0  0.51152  0.92014  0.25170  1.0000
  C   C952      1.0  0.51832  0.84410  0.10665  1.0000
  H   H1483     1.0  0.51381  0.65926  0.03721  1.0000
  H   H1484     1.0  0.52949  0.89499  0.26129  1.0000
  H   H1485     1.0  0.54520  0.83832  0.22583  1.0000
  N   N89       1.0  0.72910  0.56008  0.06882  1.0000
  H   H1486     1.0  0.50724  0.69735  0.14138  1.0000
  H   H1487     1.0  0.50070  0.76169  0.15861  1.0000
  C   C953      1.0  0.51357  0.81316  0.10028  1.0000
  H   H1488     1.0  0.50342  0.80286  0.10085  1.0000
  C   C954      1.0  0.56684  0.95781  0.32650  1.0000
  H   H1489     1.0  0.53281  0.82763  0.19002  1.0000
  H   H1490     1.0  0.72268  0.54702  0.04598  1.0000
  H   H1491     1.0  0.62122  0.67759  0.01322  1.0000
  H   H1492     1.0  0.53794  0.99003  0.30065  1.0000
  H   H1493     1.0  0.58989  0.60145  0.02673  1.0000
  C   C955      1.0  0.74500  0.56826  0.07354  1.0000
  H   H1494     1.0  0.58443  0.98280  0.24228  1.0000
  S   S383      1.0  0.63175  0.88379  0.31737  1.0000
  S   S384      1.0  0.50868  0.62535  0.08390  1.0000
  C   C956      1.0  0.55594  0.70593  0.15430  1.0000
  H   H1495     1.0  0.57931  0.72278  0.16907  1.0000
  H   H1496     1.0  0.59962  0.60309  0.06680  1.0000
  N   N90       1.0  0.50293  0.64198  0.02065  1.0000
  C   C957      1.0  0.59329  0.66988  0.01652  1.0000
  H   H1497     1.0  0.65378  0.84028  0.14961  1.0000
  H   H1498     1.0  0.64114  0.72702  0.01904  1.0000
  H   H1499     1.0  0.64688  0.80751  0.14815  1.0000
  C   C958      1.0  0.50418  0.85618  0.28015  1.0000
  H   H1500     1.0  0.66453  0.83185  0.17082  1.0000
  C   C959      1.0  0.57671  0.71203  0.12520  1.0000
  H   H1501     1.0  0.51054  0.76123  0.04320  1.0000
  H   H1502     1.0  0.56694  0.72482  0.12052  1.0000
  H   H1503     1.0  0.65807  0.79914  0.16911  1.0000
  N   N91       1.0  0.63712  0.82372  0.17142  1.0000
  C   C960      1.0  0.61929  0.83169  0.16392  1.0000
  C   C961      1.0  0.65089  0.83737  0.16538  1.0000
  C   C962      1.0  0.64451  0.80557  0.16397  1.0000
  C   C963      1.0  0.63376  0.82026  0.19239  1.0000
  H   H1504     1.0  0.61294  0.84513  0.16963  1.0000
  H   H1505     1.0  0.60873  0.82155  0.16775  1.0000
  H   H1506     1.0  0.62137  0.83490  0.14816  1.0000
  H   H1507     1.0  0.59112  0.71460  0.11855  1.0000
  C   C964      1.0  0.58122  0.72450  0.15328  1.0000
  H   H1508     1.0  0.51952  0.79637  0.23505  1.0000
  H   H1509     1.0  0.60298  0.69197  0.14549  1.0000
  C   C965      1.0  0.52782  0.75538  0.10871  1.0000
  H   H1510     1.0  0.59623  0.72602  0.14837  1.0000
  N   N92       1.0  0.57551  0.70830  0.14612  1.0000
  H   H1511     1.0  0.58413  0.67816  0.14658  1.0000
  H   H1512     1.0  0.52520  0.84772  0.09186  1.0000
  C   C966      1.0  0.57804  0.66421  0.02934  1.0000
  H   H1513     1.0  0.57282  0.73817  0.14831  1.0000
  N   N93       1.0  0.61359  0.60777  0.03822  1.0000
  H   H1514     1.0  0.51520  0.68287  0.11156  1.0000
  H   H1515     1.0  0.56610  0.66006  0.05873  1.0000
  H   H1516     1.0  0.54613  0.71909  0.15062  1.0000
  H   H1517     1.0  0.55116  0.69391  0.14901  1.0000
  H   H1518     1.0  0.55451  0.70292  0.17007  1.0000
  N   N94       1.0  0.56163  0.97063  0.30939  1.0000
  C   C967      1.0  0.59581  0.61381  0.03001  1.0000
  H   H1519     1.0  0.52117  0.94742  0.24912  1.0000
  H   H1520     1.0  0.52780  0.89832  0.23638  1.0000
  C   C968      1.0  0.51445  0.62433  0.02801  1.0000
  H   H1521     1.0  0.53998  0.80572  0.23918  1.0000
  H   H1522     1.0  0.54902  0.81315  0.20443  1.0000
  H   H1523     1.0  0.59249  0.73444  0.00638  1.0000
  C   C969      1.0  0.52681  0.93219  0.24844  1.0000
  H   H1524     1.0  0.52973  0.85261  0.21037  1.0000
  H   H1525     1.0  0.50586  0.64095  0.11951  1.0000
  C   C970      1.0  0.50173  0.74638  0.01414  1.0000
  H   H1526     1.0  0.62304  0.59072  0.06320  1.0000
  H   H1527     1.0  0.70007  0.56909  0.06514  1.0000
  H   H1528     1.0  0.53533  0.93119  0.23430  1.0000
  C   C971      1.0  0.72480  0.54382  0.08338  1.0000
  C   C972      1.0  0.51969  0.90012  0.25055  1.0000
  H   H1529     1.0  0.53666  0.92777  0.25930  1.0000
  H   H1530     1.0  0.51709  0.81474  0.24987  1.0000
  C   C973      1.0  0.60995  0.59544  0.05650  1.0000
  C   C974      1.0  0.56271  0.95934  0.29365  1.0000
  H   H1531     1.0  0.51020  0.91735  0.28207  1.0000
  H   H1532     1.0  0.57706  0.95159  0.29064  1.0000
  H   H1533     1.0  0.50763  0.61773  0.04190  1.0000
  C   C975      1.0  0.54226  0.98031  0.31335  1.0000
  H   H1534     1.0  0.50673  0.78279  0.01278  1.0000
  H   H1535     1.0  0.71525  0.58720  0.05745  1.0000
  N   N95       1.0  0.52302  0.82420  0.21997  1.0000
  C   C976      1.0  0.60420  0.99151  0.25767  1.0000
  H   H1536     1.0  0.74177  0.57323  0.08768  1.0000
  H   H1537     1.0  0.51182  0.85760  0.11209  1.0000
  H   H1538     1.0  0.63026  0.60616  0.01099  1.0000
  C   C977      1.0  0.50088  0.92173  0.27074  1.0000
  C   C978      1.0  0.50295  0.82887  0.21731  1.0000
  H   H1539     1.0  0.52488  0.80595  0.10879  1.0000
  H   H1540     1.0  0.72097  0.54833  0.09776  1.0000
  H   H1541     1.0  0.61663  0.73154  0.02801  1.0000
  N   N96       1.0  0.50430  0.83098  0.10743  1.0000
  H   H1542     1.0  0.59794  0.62362  0.01653  1.0000
  H   H1543     1.0  0.58142  0.95029  0.32392  1.0000
  H   H1544     1.0  0.55733  0.94665  0.33085  1.0000
  H   H1545     1.0  0.61292  0.75977  0.00301  1.0000
  H   H1546     1.0  0.50079  0.84026  0.20515  1.0000
  S   S385      1.0  0.59627  0.81060  0.00136  1.0000
  C   C979      1.0  0.49850  0.75826  0.12975  1.0000
  H   H1547     1.0  0.59302  0.67073  0.00146  1.0000
  H   H1548     1.0  0.52656  0.65415  0.00435  1.0000
  H   H1549     1.0  0.66906  0.98837  0.32923  1.0000
  H   H1550     1.0  0.50058  0.73166  0.02136  1.0000
  C   C980      1.0  0.66859  0.99963  0.31671  1.0000
  H   H1551     1.0  0.49704  0.81624  0.21466  1.0000
  S   S386      1.0  0.49655  0.75223  0.09339  1.0000
  H   H1552     1.0  0.49587  0.84388  0.08044  1.0000
  H   H1553     1.0  0.49643  0.89056  0.30924  1.0000
  H   H1554     1.0  0.70308  0.84975  0.36916  1.0000
  Fe  Fe193     1.0  0.68095  0.87259  0.59437  1.0000
  S   S387      1.0  0.70813  0.87886  0.60128  1.0000
  S   S388      1.0  0.68285  0.86152  0.56614  1.0000
  Fe  Fe194     1.0  0.66109  0.87832  0.63451  1.0000
  S   S389      1.0  0.68718  0.88471  0.64438  1.0000
  Fe  Fe195     1.0  0.69120  0.90232  0.61577  1.0000
  S   S390      1.0  0.70481  0.92896  0.61076  1.0000
  Fe  Fe196     1.0  0.70201  0.86064  0.62891  1.0000
  S   S391      1.0  0.72598  0.83835  0.63615  1.0000
  S   S392      1.0  0.66416  0.89785  0.60658  1.0000
  S   S393      1.0  0.67580  0.85253  0.62135  1.0000
  Fe  Fe197     1.0  0.65940  0.89541  0.46261  1.0000
  S   S394      1.0  0.69018  0.89540  0.45292  1.0000
  S   S395      1.0  0.64698  0.90203  0.49224  1.0000
  Fe  Fe198     1.0  0.65100  0.89319  0.42200  1.0000
  S   S396      1.0  0.68116  0.89374  0.40935  1.0000
  S   S397      1.0  0.62704  0.89155  0.40540  1.0000
  Fe  Fe199     1.0  0.68747  0.87326  0.43519  1.0000
  S   S398      1.0  0.71075  0.84885  0.43318  1.0000
  Fe  Fe200     1.0  0.68119  0.91581  0.42821  1.0000
  S   S399      1.0  0.69572  0.94174  0.41982  1.0000
  S   S400      1.0  0.65720  0.87103  0.44705  1.0000
  S   S401      1.0  0.65045  0.91742  0.43863  1.0000
  C   C981      1.0  0.62984  0.88697  0.34165  1.0000
  C   C982      1.0  0.74424  0.86422  0.64815  1.0000
  H   H1555     1.0  0.65171  0.99475  0.44927  1.0000
  C   C983      1.0  0.68390  0.97668  0.46877  1.0000
  H   H1556     1.0  0.63731  0.97103  0.47297  1.0000
  C   C984      1.0  0.69973  0.97170  0.43737  1.0000
  C   C985      1.0  0.69313  0.95409  0.43940  1.0000
  C   C986      1.0  0.68321  0.94716  0.45670  1.0000
  C   C987      1.0  0.67872  0.95839  0.47145  1.0000
  H   H1557     1.0  0.68554  0.86874  0.37619  1.0000
  H   H1558     1.0  0.70760  0.97701  0.42410  1.0000
  H   H1559     1.0  0.67803  0.93361  0.45846  1.0000
  H   H1560     1.0  0.67017  0.95338  0.48440  1.0000
  C   C988      1.0  0.68842  0.94934  0.61284  1.0000
  C   C989      1.0  0.69477  0.96696  0.61177  1.0000
  H   H1561     1.0  0.70025  0.81649  0.38381  1.0000
  S   S402      1.0  0.67375  0.99263  0.48471  1.0000
  C   C990      1.0  0.65618  0.96474  0.61632  1.0000
  C   C991      1.0  0.66913  0.94820  0.61526  1.0000
  H   H1562     1.0  0.70968  0.96790  0.60996  1.0000
  C   C992      1.0  0.66786  0.98906  0.53655  1.0000
  H   H1563     1.0  0.64126  0.96386  0.61813  1.0000
  H   H1564     1.0  0.66415  0.93462  0.61642  1.0000
  C   C993      1.0  0.67347  0.87379  0.54561  1.0000
  C   C994      1.0  0.67892  0.86638  0.52833  1.0000
  C   C995      1.0  0.67129  0.87520  0.51179  1.0000
  C   C996      1.0  0.65781  0.89131  0.51246  1.0000
  C   C997      1.0  0.65237  0.89877  0.52975  1.0000
  C   C998      1.0  0.66031  0.89018  0.54623  1.0000
  H   H1565     1.0  0.68902  0.85366  0.52774  1.0000
  H   H1566     1.0  0.67552  0.86926  0.49861  1.0000
  H   H1567     1.0  0.64199  0.91128  0.53033  1.0000
  H   H1568     1.0  0.65611  0.89609  0.55940  1.0000
  H   H1569     1.0  0.62250  0.98102  0.41664  1.0000
  C   C999      1.0  0.62848  0.89033  0.38069  1.0000
  C   C1000     1.0  0.61223  0.88824  0.37318  1.0000
  H   H1570     1.0  0.67467  0.84922  0.41675  1.0000
  H   H1571     1.0  0.67799  0.83342  0.36137  1.0000
  C   C1001     1.0  0.64621  0.98983  0.56557  1.0000
  C   C1002     1.0  0.64538  0.89109  0.36849  1.0000
  H   H1572     1.0  0.59907  0.88768  0.38247  1.0000
  H   H1573     1.0  0.63396  0.99143  0.55759  1.0000
  H   H1574     1.0  0.73664  0.91222  0.48181  1.0000
  H   H1575     1.0  0.65788  0.89313  0.37396  1.0000
  H   H1576     1.0  0.72161  0.87831  0.40315  1.0000
  H   H1577     1.0  0.65628  0.83791  0.41097  1.0000
  C   C1003     1.0  0.73382  0.87213  0.40993  1.0000
  C   C1004     1.0  0.69514  0.98297  0.45210  1.0000
  H   H1578     1.0  0.62308  0.87910  0.56674  1.0000
  H   H1579     1.0  0.70149  0.85667  0.39235  1.0000
  N   N97       1.0  0.67972  0.84075  0.38892  1.0000
  S   S403      1.0  0.63183  0.87842  0.65147  1.0000
  C   C1005     1.0  0.73987  0.91219  0.43417  1.0000
  H   H1580     1.0  0.66036  0.85213  0.36882  1.0000
  C   C1006     1.0  0.63302  0.96480  0.46128  1.0000
  N   N98       1.0  0.63000  0.97934  0.44468  1.0000
  H   H1581     1.0  0.72543  0.86351  0.56629  1.0000
  H   H1582     1.0  0.65858  0.82803  0.37917  1.0000
  C   C1007     1.0  0.69034  0.82225  0.39557  1.0000
  H   H1583     1.0  0.74435  0.86174  0.54717  1.0000
  C   C1008     1.0  0.69304  0.85459  0.38130  1.0000
  N   N99       1.0  0.61611  0.87510  0.59713  1.0000
  C   C1009     1.0  0.60108  0.86808  0.61158  1.0000
  C   C1010     1.0  0.61179  0.87411  0.57789  1.0000
  C   C1011     1.0  0.63415  0.86315  0.60010  1.0000
  C   C1012     1.0  0.61752  0.89502  0.59906  1.0000
  H   H1584     1.0  0.60406  0.86876  0.62623  1.0000
  H   H1585     1.0  0.59975  0.85299  0.61074  1.0000
  H   H1586     1.0  0.58721  0.87672  0.60984  1.0000
  H   H1587     1.0  0.64142  0.99676  0.57863  1.0000
  H   H1588     1.0  0.61058  0.85926  0.57598  1.0000
  H   H1589     1.0  0.59835  0.88309  0.57503  1.0000
  H   H1590     1.0  0.63758  0.86335  0.61462  1.0000
  H   H1591     1.0  0.64595  0.86818  0.58970  1.0000
  H   H1592     1.0  0.63377  0.84804  0.59851  1.0000
  H   H1593     1.0  0.62867  0.90084  0.58833  1.0000
  H   H1594     1.0  0.62103  0.89619  0.61339  1.0000
  H   H1595     1.0  0.60407  0.90442  0.59719  1.0000
  H   H1596     1.0  0.69881  0.82368  0.40688  1.0000
  C   C1013     1.0  0.73248  0.85735  0.42502  1.0000
  C   C1014     1.0  0.68183  0.98343  0.61321  1.0000
  C   C1015     1.0  0.66253  0.98234  0.61536  1.0000
  H   H1597     1.0  0.68684  0.99699  0.61240  1.0000
  H   H1598     1.0  0.74542  0.90594  0.60426  1.0000
  C   C1016     1.0  0.61455  0.99421  0.45021  1.0000
  H   H1599     1.0  0.68075  0.81150  0.40166  1.0000
  C   C1017     1.0  0.73151  0.91226  0.46797  1.0000
  H   H1600     1.0  0.64555  0.99935  0.42561  1.0000
  H   H1601     1.0  0.60028  0.88485  0.34825  1.0000
  H   H1602     1.0  0.65885  0.86189  0.40072  1.0000
  C   C1018     1.0  0.66682  0.84774  0.40504  1.0000
  H   H1603     1.0  0.64429  0.95314  0.45751  1.0000
  H   H1604     1.0  0.63667  0.95930  0.42455  1.0000
  C   C1019     1.0  0.66873  0.83843  0.37391  1.0000
  H   H1605     1.0  0.67986  0.99517  0.52735  1.0000
  H   H1606     1.0  0.67221  0.97349  0.53999  1.0000
  C   C1020     1.0  0.62510  0.97033  0.42928  1.0000
  H   H1607     1.0  0.72350  0.89995  0.46956  1.0000
  C   C1021     1.0  0.64608  0.88923  0.34914  1.0000
  C   C1022     1.0  0.61286  0.88667  0.35377  1.0000
  C   C1023     1.0  0.64739  0.98807  0.43793  1.0000
  H   H1608     1.0  0.68249  0.98008  0.56983  1.0000
  H   H1609     1.0  0.73091  0.92595  0.43080  1.0000
  H   H1610     1.0  0.65924  0.88965  0.33984  1.0000
  H   H1611     1.0  0.60128  0.98811  0.45574  1.0000
  N   N100      1.0  0.66222  0.99830  0.55393  1.0000
  H   H1612     1.0  0.73699  0.92432  0.63070  1.0000
  H   H1613     1.0  0.73038  0.82065  0.58214  1.0000
  H   H1614     1.0  0.65927  0.97734  0.43333  1.0000
  H   H1615     1.0  0.65009  0.97439  0.57034  1.0000
  H   H1616     1.0  0.69989  0.99675  0.45036  1.0000
  H   H1617     1.0  0.72853  0.84404  0.55292  1.0000
  H   H1618     1.0  0.56615  0.96581  0.33872  1.0000
  H   H1619     1.0  0.72611  0.84025  0.59548  1.0000
  H   H1620     1.0  0.73118  0.90063  0.43446  1.0000
  C   C1024     1.0  0.73740  0.83091  0.58778  1.0000
  H   H1621     1.0  0.65616  0.99097  0.52774  1.0000
  C   C1025     1.0  0.67819  0.99545  0.56504  1.0000
  H   H1622     1.0  0.73053  0.87032  0.65430  1.0000
  H   H1623     1.0  0.72143  0.92545  0.46536  1.0000
  H   H1624     1.0  0.62013  0.95808  0.46700  1.0000
  C   C1026     1.0  0.73627  0.85333  0.55910  1.0000
  H   H1625     1.0  0.61225  0.96325  0.43393  1.0000
  H   H1626     1.0  0.74006  0.94119  0.59727  1.0000
  Fe  Fe201     1.0  0.56472  0.91094  0.78457  1.0000
  S   S404      1.0  0.56245  0.89697  0.75916  1.0000
  S   S405      1.0  0.55127  0.94167  0.78395  1.0000
  Fe  Fe202     1.0  0.58282  0.87403  0.80621  1.0000
  S   S406      1.0  0.58176  0.85756  0.78235  1.0000
  S   S407      1.0  0.59774  0.85653  0.83023  1.0000
  Fe  Fe203     1.0  0.59180  0.88255  0.76258  1.0000
  S   S408      1.0  0.61855  0.87793  0.74164  1.0000
  Fe  Fe204     1.0  0.55279  0.87332  0.78108  1.0000
  S   S409      1.0  0.52778  0.85783  0.78244  1.0000
  S   S410      1.0  0.59472  0.89830  0.78660  1.0000
  S   S411      1.0  0.55302  0.88815  0.80628  1.0000
  H   H1627     1.0  0.52183  0.92053  0.78013  1.0000
  S   S412      1.0  0.70290  0.57967  0.94404  1.0000
  C   C1027     1.0  0.62102  0.98674  0.75586  1.0000
  Fe  Fe205     1.0  0.59447  0.61397  0.97318  1.0000
  S   S413      1.0  0.59902  0.64309  0.97765  1.0000
  S   S414      1.0  0.61698  0.58941  0.98160  1.0000
  Fe  Fe206     1.0  0.55390  0.62799  0.96361  1.0000
  S   S415      1.0  0.55588  0.65773  0.96817  1.0000
  S   S416      1.0  0.52705  0.62907  0.95076  1.0000
  Fe  Fe207     1.0  0.58447  0.65350  0.95189  1.0000
  S   S417      1.0  0.59195  0.67564  0.92741  1.0000
  H   H1628     1.0  0.54306  0.98195  0.78170  1.0000
  H   H1629     1.0  0.55757  0.67128  0.90317  1.0000
  S   S418      1.0  0.58223  0.62427  0.94577  1.0000
  H   H1630     1.0  0.50341  0.84197  0.89904  1.0000
  Fe  Fe208     1.0  0.57022  0.81450  0.93826  1.0000
  S   S419      1.0  0.56569  0.78492  0.93543  1.0000
  S   S420      1.0  0.56177  0.84013  0.91693  1.0000
  Fe  Fe209     1.0  0.58167  0.80253  0.97858  1.0000
  S   S421      1.0  0.57768  0.77215  0.97897  1.0000
  Fe  Fe210     1.0  0.59196  0.77551  0.94910  1.0000
  S   S422      1.0  0.61547  0.75337  0.94021  1.0000
  Fe  Fe211     1.0  0.55178  0.78403  0.96552  1.0000
  S   S423      1.0  0.52446  0.77264  0.97566  1.0000
  S   S424      1.0  0.59797  0.80520  0.94926  1.0000
  S   S425      1.0  0.55421  0.81435  0.96774  1.0000
  H   H1631     1.0  0.70446  0.54343  0.92655  1.0000
  S   S426      1.0  0.56562  0.61491  0.99062  1.0000
  H   H1632     1.0  0.61242  0.84400  0.94359  1.0000
  H   H1633     1.0  0.53604  0.78703  0.90490  1.0000
  H   H1634     1.0  0.62643  0.85356  0.95745  1.0000
  H   H1635     1.0  0.54317  0.75519  0.94284  1.0000
  C   C1028     1.0  0.51519  0.81302  0.92498  1.0000
  H   H1636     1.0  0.57786  0.84922  0.95014  1.0000
  C   C1029     1.0  0.51203  0.94785  0.75155  1.0000
  C   C1030     1.0  0.70013  0.52529  0.96204  1.0000
  H   H1637     1.0  0.53820  0.65739  0.90822  1.0000
  H   H1638     1.0  0.53051  0.74681  0.91551  1.0000
  N   N101      1.0  0.49966  0.93573  0.76472  1.0000
  N   N102      1.0  0.59659  0.86155  0.96376  1.0000
  H   H1639     1.0  0.51701  0.60110  0.98383  1.0000
  C   C1031     1.0  0.59868  0.69638  0.93300  1.0000
  C   C1032     1.0  0.58619  0.70868  0.94389  1.0000
  C   C1033     1.0  0.59103  0.72645  0.94593  1.0000
  C   C1034     1.0  0.60863  0.73155  0.93769  1.0000
  C   C1035     1.0  0.62127  0.71897  0.92741  1.0000
  C   C1036     1.0  0.61617  0.70162  0.92475  1.0000
  H   H1640     1.0  0.57259  0.70479  0.95017  1.0000
  H   H1641     1.0  0.58114  0.73619  0.95380  1.0000
  H   H1642     1.0  0.63486  0.72287  0.92098  1.0000
  H   H1643     1.0  0.62575  0.69229  0.91614  1.0000
  C   C1037     1.0  0.67953  0.58355  0.95585  1.0000
  C   C1038     1.0  0.67378  0.57351  0.97356  1.0000
  C   C1039     1.0  0.65462  0.57556  0.98133  1.0000
  C   C1040     1.0  0.64109  0.58805  0.97178  1.0000
  C   C1041     1.0  0.64696  0.59853  0.95440  1.0000
  C   C1042     1.0  0.66600  0.59610  0.94640  1.0000
  H   H1644     1.0  0.68398  0.56386  0.98108  1.0000
  C   C1043     1.0  0.64329  0.87667  0.68698  1.0000
  H   H1645     1.0  0.63674  0.60813  0.94683  1.0000
  H   H1646     1.0  0.67024  0.60390  0.93267  1.0000
  C   C1044     1.0  0.58687  0.85140  0.85398  1.0000
  C   C1045     1.0  0.59563  0.83671  0.86634  1.0000
  C   C1046     1.0  0.58788  0.83274  0.88551  1.0000
  C   C1047     1.0  0.57147  0.84372  0.89263  1.0000
  C   C1048     1.0  0.56266  0.85835  0.88027  1.0000
  C   C1049     1.0  0.57018  0.86204  0.86100  1.0000
  H   H1647     1.0  0.60855  0.82841  0.86107  1.0000
  H   H1648     1.0  0.59484  0.82145  0.89484  1.0000
  H   H1649     1.0  0.55004  0.86705  0.88563  1.0000
  H   H1650     1.0  0.56337  0.87348  0.85171  1.0000
  C   C1050     1.0  0.62162  0.87851  0.71652  1.0000
  C   C1051     1.0  0.60648  0.88050  0.70609  1.0000
  C   C1052     1.0  0.54261  0.69764  0.92575  1.0000
  C   C1053     1.0  0.70201  0.52827  0.92794  1.0000
  H   H1651     1.0  0.69503  0.52675  0.91561  1.0000
  C   C1054     1.0  0.64000  0.87657  0.70683  1.0000
  H   H1652     1.0  0.59225  0.88196  0.71332  1.0000
  H   H1653     1.0  0.51847  0.91023  0.76002  1.0000
  C   C1055     1.0  0.61298  0.84777  0.95793  1.0000
  H   H1654     1.0  0.65183  0.87502  0.71470  1.0000
  H   H1655     1.0  0.63656  0.98296  0.75452  1.0000
  H   H1656     1.0  0.52682  0.81924  0.92923  1.0000
  H   H1657     1.0  0.52994  0.87481  0.74297  1.0000
  C   C1056     1.0  0.67197  0.53449  0.94694  1.0000
  C   C1057     1.0  0.58994  0.96719  0.80275  1.0000
  C   C1058     1.0  0.58069  0.95327  0.79763  1.0000
  C   C1059     1.0  0.56368  0.95858  0.79014  1.0000
  C   C1060     1.0  0.55607  0.97783  0.78771  1.0000
  H   H1658     1.0  0.58663  0.93845  0.79963  1.0000
  H   H1659     1.0  0.53617  0.69902  0.88971  1.0000
  H   H1660     1.0  0.53323  0.71071  0.92938  1.0000
  H   H1661     1.0  0.52333  0.95142  0.75873  1.0000
  H   H1662     1.0  0.61567  0.98532  0.77132  1.0000
  H   H1663     1.0  0.66397  0.53221  0.93563  1.0000
  H   H1664     1.0  0.71409  0.51635  0.96204  1.0000
  N   N103      1.0  0.69051  0.52257  0.94615  1.0000
  H   H1665     1.0  0.50431  0.66365  0.99640  1.0000
  H   H1666     1.0  0.70253  0.54036  0.96113  1.0000
  C   C1061     1.0  0.50469  0.60630  0.97683  1.0000
  H   H1667     1.0  0.61088  0.87227  0.98316  1.0000
  H   H1668     1.0  0.60941  0.88578  0.94911  1.0000
  C   C1062     1.0  0.54541  0.66756  0.91381  1.0000
  H   H1669     1.0  0.50205  0.90797  0.78131  1.0000
  H   H1670     1.0  0.59799  0.88196  0.67829  1.0000
  C   C1063     1.0  0.51691  0.83312  0.89473  1.0000
  Fe  Fe212     1.0  0.56978  0.64457  0.99342  1.0000
  S   S427      1.0  0.73229  0.54835  0.98415  1.0000
  H   H1671     1.0  0.50263  0.80464  0.88365  1.0000
  H   H1672     1.0  0.51873  0.83382  0.87899  1.0000
  H   H1673     1.0  0.58419  0.88988  0.95400  1.0000
  H   H1674     1.0  0.50643  0.69157  0.93623  1.0000
  C   C1064     1.0  0.50149  0.80493  0.89921  1.0000
  H   H1675     1.0  0.54865  0.69057  0.93876  1.0000
  H   H1676     1.0  0.65753  0.87515  0.67980  1.0000
  H   H1677     1.0  0.63747  0.75500  0.99431  1.0000
  H   H1678     1.0  0.58563  0.87615  0.98789  1.0000
  C   C1065     1.0  0.50157  0.75360  0.92720  1.0000
  C   C1066     1.0  0.50112  0.88401  0.73800  1.0000
  H   H1679     1.0  0.54740  0.80816  0.90112  1.0000
  C   C1067     1.0  0.59787  0.86595  0.98291  1.0000
  H   H1680     1.0  0.59958  0.73168  0.98182  1.0000
  C   C1068     1.0  0.52817  0.75679  0.94268  1.0000
  C   C1069     1.0  0.60328  0.72692  0.99643  1.0000
  C   C1070     1.0  0.51059  0.86916  0.76836  1.0000
  H   H1681     1.0  0.55462  0.70209  0.91526  1.0000
  H   H1682     1.0  0.67348  0.54991  0.94485  1.0000
  H   H1683     1.0  0.61517  0.97596  0.74970  1.0000
  C   C1071     1.0  0.59635  0.87914  0.95000  1.0000
  H   H1684     1.0  0.50168  0.82127  0.93034  1.0000
  H   H1685     1.0  0.63572  0.70495  0.98727  1.0000
  H   H1686     1.0  0.51496  0.70776  0.90387  1.0000
  H   H1687     1.0  0.50903  0.66886  0.92775  1.0000
  H   H1688     1.0  0.55133  0.65972  0.92665  1.0000
  C   C1072     1.0  0.62820  0.87859  0.67652  1.0000
  C   C1073     1.0  0.57912  0.85321  0.96423  1.0000
  C   C1074     1.0  0.53524  0.80203  0.89782  1.0000
  C   C1075     1.0  0.60978  0.88048  0.68620  1.0000
  H   H1689     1.0  0.69177  0.52145  0.97603  1.0000
  C   C1076     1.0  0.51674  0.67903  0.93274  1.0000
  Fe  Fe213     1.0  0.72982  0.56403  0.95494  1.0000
  C   C1077     1.0  0.56521  0.99172  0.79300  1.0000
  C   C1078     1.0  0.52101  0.75172  0.92739  1.0000
  H   H1690     1.0  0.51532  0.64038  0.99170  1.0000
  H   H1691     1.0  0.60309  0.96300  0.80857  1.0000
  H   H1692     1.0  0.59810  0.85285  0.99356  1.0000
  C   C1079     1.0  0.51589  0.76391  0.95767  1.0000
  C   C1080     1.0  0.51095  0.91784  0.77187  1.0000
  H   H1693     1.0  0.58853  0.00012  0.74230  1.0000
  N   N104      1.0  0.63998  0.83876  0.78481  1.0000
  C   C1081     1.0  0.63493  0.85924  0.78639  1.0000
  C   C1082     1.0  0.63593  0.83502  0.76629  1.0000
  C   C1083     1.0  0.62883  0.82761  0.80033  1.0000
  C   C1084     1.0  0.66022  0.83323  0.78625  1.0000
  H   H1694     1.0  0.63745  0.86264  0.80031  1.0000
  H   H1695     1.0  0.61981  0.86380  0.78524  1.0000
  H   H1696     1.0  0.64288  0.86820  0.77482  1.0000
  H   H1697     1.0  0.63953  0.81972  0.76452  1.0000
  H   H1698     1.0  0.62077  0.83921  0.76467  1.0000
  H   H1699     1.0  0.64394  0.84340  0.75424  1.0000
  H   H1700     1.0  0.61347  0.83151  0.79966  1.0000
  H   H1701     1.0  0.63128  0.83035  0.81453  1.0000
  H   H1702     1.0  0.63226  0.81206  0.79971  1.0000
  H   H1703     1.0  0.66455  0.81785  0.78511  1.0000
  H   H1704     1.0  0.66372  0.83595  0.80006  1.0000
  H   H1705     1.0  0.66896  0.84146  0.77472  1.0000
  N   N105      1.0  0.53238  0.68471  0.91831  1.0000
  H   H1706     1.0  0.65024  0.56735  0.99476  1.0000
  C   C1085     1.0  0.52474  0.69463  0.90095  1.0000
  H   H1707     1.0  0.57868  0.84018  0.97482  1.0000
  H   H1708     1.0  0.51677  0.68536  0.89504  1.0000
  H   H1709     1.0  0.61355  0.83430  0.96804  1.0000
  H   H1710     1.0  0.52196  0.67172  0.94612  1.0000
  H   H1711     1.0  0.65071  0.72318  0.98490  1.0000
  C   C1086     1.0  0.51535  0.87602  0.74921  1.0000
  H   H1712     1.0  0.50650  0.99794  0.83076  1.0000
  H   H1713     1.0  0.56641  0.86330  0.96819  1.0000
  C   C1087     1.0  0.50591  0.61985  0.96059  1.0000
  H   H1714     1.0  0.71601  0.51944  0.92667  1.0000
  N   N106      1.0  0.51720  0.81327  0.90418  1.0000
  C   C1088     1.0  0.58226  0.98646  0.80044  1.0000
  H   H1715     1.0  0.51910  0.94052  0.73929  1.0000
  H   H1716     1.0  0.59518  0.87619  0.93547  1.0000
  H   H1717     1.0  0.52844  0.83990  0.89840  1.0000
  H   H1718     1.0  0.51541  0.79826  0.93256  1.0000
  H   H1719     1.0  0.53717  0.80172  0.88222  1.0000
  H   H1720     1.0  0.66319  0.53142  0.96086  1.0000
  H   H1721     1.0  0.50478  0.88909  0.72312  1.0000
  H   H1722     1.0  0.50163  0.94928  0.78883  1.0000
  H   H1723     1.0  0.52348  0.99182  0.81108  1.0000
  H   H1724     1.0  0.50401  0.96146  0.74579  1.0000
  H   H1725     1.0  0.61761  0.99761  0.71878  1.0000
  H   H1726     1.0  0.63311  0.72525  0.96940  1.0000
  H   H1727     1.0  0.62023  0.75690  0.97852  1.0000
  C   C1089     1.0  0.63611  0.72059  0.98429  1.0000
  H   H1728     1.0  0.49851  0.99092  0.79170  1.0000
  H   H1729     1.0  0.50115  0.79001  0.90626  1.0000
  C   C1090     1.0  0.62329  0.75152  0.99326  1.0000
  N   N107      1.0  0.62239  0.73083  0.99786  1.0000
  H   H1730     1.0  0.60209  0.71145  0.99974  1.0000
  H   H1731     1.0  0.49840  0.82882  0.77597  1.0000
  H   H1732     1.0  0.49770  0.74738  0.99964  1.0000
  H   H1733     1.0  0.49854  0.80870  0.79427  1.0000
  C   C1091     1.0  0.49647  0.76502  0.95784  1.0000
  C   C1092     1.0  0.68797  0.50231  0.94768  1.0000
  H   H1734     1.0  0.74296  0.50164  0.93986  1.0000
  C   C1093     1.0  0.79252  0.46028  0.10133  1.0000
  S   S428      1.0  0.77079  0.37299  0.09653  1.0000
  H   H1735     1.0  0.90889  0.49409  0.31305  1.0000
  S   S429      1.0  0.77304  0.41771  0.09948  1.0000
  C   C1094     1.0  0.94710  0.36982  0.10791  1.0000
  Fe  Fe214     1.0  0.76715  0.40095  0.07767  1.0000
  S   S430      1.0  0.77950  0.40922  0.04742  1.0000
  Fe  Fe215     1.0  0.77390  0.39028  0.11921  1.0000
  S   S431      1.0  0.79231  0.38066  0.14287  1.0000
  H   H1736     1.0  0.78652  0.31660  0.16473  1.0000
  H   H1737     1.0  0.92950  0.42442  0.28374  1.0000
  S   S432      1.0  0.89075  0.38895  0.31237  1.0000
  Fe  Fe216     1.0  0.89064  0.39807  0.16731  1.0000
  S   S433      1.0  0.87749  0.40149  0.19722  1.0000
  S   S434      1.0  0.87799  0.39223  0.14199  1.0000
  Fe  Fe217     1.0  0.92804  0.41150  0.17285  1.0000
  S   S435      1.0  0.91765  0.41627  0.20287  1.0000
  S   S436      1.0  0.95462  0.42254  0.15697  1.0000
  Fe  Fe218     1.0  0.90604  0.38861  0.20525  1.0000
  S   S437      1.0  0.91266  0.36599  0.22958  1.0000
  Fe  Fe219     1.0  0.89025  0.42873  0.19240  1.0000
  S   S438      1.0  0.87523  0.45765  0.19738  1.0000
  S   S439      1.0  0.91837  0.38283  0.17567  1.0000
  S   S440      1.0  0.90143  0.42625  0.16213  1.0000
  C   C1095     1.0  0.89574  0.38168  0.28965  1.0000
  C   C1096     1.0  0.88775  0.39295  0.27438  1.0000
  C   C1097     1.0  0.89278  0.38824  0.25585  1.0000
  C   C1098     1.0  0.90531  0.37185  0.25265  1.0000
  C   C1099     1.0  0.91285  0.36030  0.26800  1.0000
  C   C1100     1.0  0.90835  0.36538  0.28639  1.0000
  H   H1738     1.0  0.87800  0.40559  0.27683  1.0000
  H   H1739     1.0  0.88687  0.39720  0.24408  1.0000
  H   H1740     1.0  0.92252  0.34759  0.26559  1.0000
  H   H1741     1.0  0.91449  0.35656  0.29808  1.0000
  C   C1101     1.0  0.90633  0.48412  0.23491  1.0000
  H   H1742     1.0  0.82887  0.46576  0.17061  1.0000
  C   C1102     1.0  0.88625  0.48745  0.21020  1.0000
  C   C1103     1.0  0.88621  0.46774  0.21274  1.0000
  C   C1104     1.0  0.89566  0.45626  0.22687  1.0000
  C   C1105     1.0  0.90548  0.46451  0.23817  1.0000
  C   C1106     1.0  0.98154  0.39340  0.16973  1.0000
  H   H1743     1.0  0.78141  0.32300  0.13085  1.0000
  H   H1744     1.0  0.89519  0.44108  0.22926  1.0000
  H   H1745     1.0  0.91275  0.45566  0.24911  1.0000
  H   H1746     1.0  0.97006  0.38559  0.17620  1.0000
  C   C1107     1.0  0.81569  0.38557  0.14229  1.0000
  C   C1108     1.0  0.82322  0.38390  0.15948  1.0000
  C   C1109     1.0  0.84204  0.38656  0.15964  1.0000
  C   C1110     1.0  0.85372  0.39049  0.14255  1.0000
  C   C1111     1.0  0.84616  0.39227  0.12535  1.0000
  C   C1112     1.0  0.82719  0.39005  0.12521  1.0000
  H   H1747     1.0  0.81448  0.38039  0.17277  1.0000
  H   H1748     1.0  0.84766  0.38504  0.17297  1.0000
  H   H1749     1.0  0.85507  0.39520  0.11206  1.0000
  H   H1750     1.0  0.82167  0.39121  0.11187  1.0000
  C   C1113     1.0  0.75088  0.45206  0.13664  1.0000
  H   H1751     1.0  0.82068  0.46424  0.07263  1.0000
  C   C1114     1.0  0.96295  0.39574  0.11245  1.0000
  H   H1752     1.0  0.79694  0.46818  0.11171  1.0000
  H   H1753     1.0  0.91754  0.41565  0.26744  1.0000
  C   C1115     1.0  0.90606  0.49319  0.16256  1.0000
  C   C1116     1.0  0.77346  0.39593  0.03119  1.0000
  H   H1754     1.0  0.93600  0.45979  0.14054  1.0000
  H   H1755     1.0  0.75274  0.43666  0.13883  1.0000
  H   H1756     1.0  0.77460  0.41879  0.00791  1.0000
  N   N108      1.0  0.76229  0.33349  0.15399  1.0000
  C   C1117     1.0  0.75886  0.48193  0.14312  1.0000
  H   H1757     1.0  0.80429  0.47356  0.17717  1.0000
  C   C1118     1.0  0.92952  0.41218  0.27593  1.0000
  C   C1119     1.0  0.97782  0.41192  0.16041  1.0000
  H   H1758     1.0  0.79427  0.44763  0.06779  1.0000
  H   H1759     1.0  0.81656  0.48489  0.15603  1.0000
  H   H1760     1.0  0.97681  0.39988  0.26721  1.0000
  H   H1761     1.0  0.91929  0.38578  0.13215  1.0000
  H   H1762     1.0  0.75759  0.36339  0.15619  1.0000
  H   H1763     1.0  0.94437  0.37869  0.26388  1.0000
  N   N109      1.0  0.92408  0.48089  0.15869  1.0000
  C   C1120     1.0  0.77010  0.37710  0.03690  1.0000
  C   C1121     1.0  0.74960  0.35104  0.15775  1.0000
  H   H1764     1.0  0.93970  0.42875  0.24047  1.0000
  H   H1765     1.0  0.93111  0.40515  0.13508  1.0000
  S   S441      1.0  0.93722  0.39628  0.32622  1.0000
  H   H1766     1.0  0.83548  0.47063  0.20200  1.0000
  H   H1767     1.0  0.92530  0.40304  0.11220  1.0000
  C   C1122     1.0  0.76086  0.46200  0.14623  1.0000
  H   H1768     1.0  0.80260  0.44701  0.10026  1.0000
  H   H1769     1.0  0.94126  0.45814  0.17378  1.0000
  S   S442      1.0  0.98294  0.36183  0.31542  1.0000
  H   H1770     1.0  0.76300  0.35192  0.02828  1.0000
  H   H1771     1.0  0.96076  0.39021  0.28640  1.0000
  H   H1772     1.0  0.77861  0.45593  0.10750  1.0000
  H   H1773     1.0  0.78405  0.46951  0.05534  1.0000
  H   H1774     1.0  0.94436  0.36228  0.14577  1.0000
  H   H1775     1.0  0.95901  0.40435  0.09905  1.0000
  H   H1776     1.0  0.95541  0.38190  0.14937  1.0000
  C   C1123     1.0  0.93948  0.49274  0.15315  1.0000
  S   S443      1.0  0.92030  0.49423  0.24747  1.0000
  C   C1124     1.0  0.98852  0.39648  0.32339  1.0000
  H   H1777     1.0  0.92656  0.39978  0.28675  1.0000
  H   H1778     1.0  0.96379  0.41484  0.28396  1.0000
  N   N110      1.0  0.94873  0.38315  0.12113  1.0000
  C   C1125     1.0  0.81032  0.47713  0.07467  1.0000
  H   H1779     1.0  0.91086  0.46213  0.14611  1.0000
  H   H1780     1.0  0.96002  0.38829  0.24422  1.0000
  C   C1126     1.0  0.95101  0.42490  0.24982  1.0000
  C   C1127     1.0  0.92763  0.46751  0.17599  1.0000
  C   C1128     1.0  0.77171  0.33595  0.13424  1.0000
  N   N111      1.0  0.82296  0.49243  0.18191  1.0000
  C   C1129     1.0  0.93033  0.39479  0.12530  1.0000
  H   H1781     1.0  0.94281  0.37759  0.09427  1.0000
  C   C1130     1.0  0.77822  0.48956  0.08498  1.0000
  H   H1782     1.0  0.81002  0.48626  0.06068  1.0000
  H   H1783     1.0  0.77036  0.45421  0.15582  1.0000
  H   H1784     1.0  0.96067  0.36066  0.10461  1.0000
  N   N112      1.0  0.94758  0.40799  0.26382  1.0000
  H   H1785     1.0  0.93632  0.36027  0.11406  1.0000
  C   C1131     1.0  0.92311  0.47017  0.14300  1.0000
  C   C1132     1.0  0.95454  0.37224  0.13895  1.0000
  H   H1786     1.0  0.78022  0.34798  0.13169  1.0000
  H   H1787     1.0  0.77005  0.32795  0.18224  1.0000
  C   C1133     1.0  0.94675  0.39175  0.25373  1.0000
  H   H1788     1.0  0.76377  0.48620  0.09048  1.0000
  H   H1789     1.0  0.92152  0.47986  0.12951  1.0000
  H   H1790     1.0  0.81570  0.48533  0.08418  1.0000
  H   H1791     1.0  0.77150  0.37055  0.05131  1.0000
  H   H1792     1.0  0.96864  0.36372  0.13650  1.0000
  H   H1793     1.0  0.77050  0.45730  0.07519  1.0000
  H   H1794     1.0  0.97704  0.38744  0.10918  1.0000
  H   H1795     1.0  0.95330  0.48390  0.15017  1.0000
  H   H1796     1.0  0.93508  0.39474  0.24481  1.0000
  H   H1797     1.0  0.96458  0.42232  0.24047  1.0000
  H   H1798     1.0  0.95143  0.43753  0.25692  1.0000
  H   H1799     1.0  0.89416  0.48469  0.16702  1.0000
  H   H1800     1.0  0.99028  0.43625  0.14522  1.0000
  H   H1801     1.0  0.78518  0.34170  0.16525  1.0000
  H   H1802     1.0  0.87869  0.49644  0.19954  1.0000
  H   H1803     1.0  0.96459  0.40584  0.12220  1.0000
  H   H1804     1.0  0.85261  0.48662  0.17268  1.0000
  H   H1805     1.0  0.91640  0.45816  0.18033  1.0000
  N   N113      1.0  0.79148  0.47202  0.08264  1.0000
  C   C1134     1.0  0.76531  0.36659  0.02387  1.0000
  C   C1135     1.0  0.77662  0.32970  0.16716  1.0000
  C   C1136     1.0  0.96292  0.40308  0.27583  1.0000
  H   H1806     1.0  0.92801  0.47524  0.18820  1.0000
  C   C1137     1.0  0.89666  0.49557  0.22095  1.0000
  C   C1138     1.0  0.78482  0.46117  0.06966  1.0000
  H   H1807     1.0  0.76029  0.30392  0.15389  1.0000
  C   C1139     1.0  0.81801  0.47852  0.17096  1.0000
  C   C1140     1.0  0.82461  0.48340  0.20161  1.0000
  C   C1141     1.0  0.77199  0.40421  0.01238  1.0000
  H   H1808     1.0  0.81110  0.47870  0.20884  1.0000
  C   C1142     1.0  0.84109  0.49878  0.17305  1.0000
  C   C1143     1.0  0.76349  0.37494  0.00516  1.0000
  H   H1809     1.0  0.99315  0.42359  0.32978  1.0000
  S   S444      1.0  0.77222  0.49409  0.15442  1.0000
  H   H1810     1.0  0.97456  0.39731  0.33113  1.0000
  C   C1144     1.0  0.99297  0.42192  0.15246  1.0000
  H   H1811     1.0  0.76130  0.33897  0.12390  1.0000
  H   H1812     1.0  0.82877  0.49337  0.21016  1.0000
  H   H1813     1.0  0.78252  0.49777  0.09517  1.0000
  H   H1814     1.0  0.77759  0.49912  0.07128  1.0000
  Fe  Fe220     1.0  0.91306  0.37924  0.33173  1.0000
  Fe  Fe221     1.0  0.95453  0.36799  0.33231  1.0000
  C   C1145     1.0  0.75121  0.31741  0.15672  1.0000
  C   C1146     1.0  0.74643  0.49192  0.13083  1.0000
  H   H1815     1.0  0.93076  0.37237  0.41898  1.0000
  H   H1816     1.0  0.88327  0.21953  0.40066  1.0000
  Fe  Fe222     1.0  0.93327  0.39672  0.35760  1.0000
  C   C1147     1.0  0.88318  0.20003  0.36055  1.0000
  S   S445      1.0  0.94065  0.42075  0.37120  1.0000
  Fe  Fe223     1.0  0.92700  0.35416  0.36635  1.0000
  C   C1148     1.0  0.94494  0.19539  0.50072  1.0000
  S   S446      1.0  0.92362  0.33250  0.39315  1.0000
  C   C1149     1.0  0.74818  0.04159  0.60762  1.0000
  C   C1150     1.0  0.95368  0.20738  0.52725  1.0000
  C   C1151     1.0  0.76165  0.01846  0.41499  1.0000
  S   S447      1.0  0.95242  0.36934  0.36333  1.0000
  S   S448      1.0  0.90747  0.38185  0.36299  1.0000
  Fe  Fe224     1.0  0.83769  0.03259  0.42673  1.0000
  S   S449      1.0  0.82960  0.01863  0.45607  1.0000
  H   H1817     1.0  0.96420  0.20642  0.53722  1.0000
  Fe  Fe225     1.0  0.83775  0.07161  0.43979  1.0000
  S   S450      1.0  0.82922  0.05986  0.47022  1.0000
  S   S451      1.0  0.83842  0.10377  0.43469  1.0000
  Fe  Fe226     1.0  0.85049  0.03479  0.46388  1.0000
  S   S452      1.0  0.86951  0.01938  0.48458  1.0000
  Fe  Fe227     1.0  0.80916  0.04502  0.45908  1.0000
  S   S453      1.0  0.78068  0.04021  0.47477  1.0000
  S   S454      1.0  0.86050  0.04718  0.43419  1.0000
  S   S455      1.0  0.81576  0.05828  0.42899  1.0000
  Fe  Fe228     1.0  0.82529  0.06208  0.60552  1.0000
  S   S456      1.0  0.84694  0.04630  0.62331  1.0000
  S   S457      1.0  0.79608  0.07067  0.61997  1.0000
  Fe  Fe229     1.0  0.85378  0.06469  0.57030  1.0000
  S   S458      1.0  0.87749  0.04824  0.58513  1.0000
  S   S459      1.0  0.85753  0.07945  0.54047  1.0000
  Fe  Fe230     1.0  0.85596  0.02896  0.59908  1.0000
  H   H1818     1.0  0.86470  0.10199  0.65187  1.0000
  Fe  Fe231     1.0  0.86616  0.06706  0.60765  1.0000
  S   S460      1.0  0.88463  0.08141  0.62242  1.0000
  S   S461      1.0  0.83322  0.04395  0.58204  1.0000
  S   S462      1.0  0.84354  0.08427  0.59205  1.0000
  Fe  Fe232     1.0  0.92344  0.22188  0.62128  1.0000
  S   S463      1.0  0.94555  0.22839  0.59683  1.0000
  C   C1152     1.0  0.97761  0.19655  0.50269  1.0000
  Fe  Fe233     1.0  0.91275  0.18846  0.60427  1.0000
  S   S464      1.0  0.93444  0.19268  0.57867  1.0000
  S   S465      1.0  0.89010  0.16998  0.60329  1.0000
  Fe  Fe234     1.0  0.95326  0.19677  0.59932  1.0000
  N   N114      1.0  0.88638  0.27910  0.60356  1.0000
  Fe  Fe235     1.0  0.92473  0.22375  0.57861  1.0000
  S   S466      1.0  0.92119  0.24362  0.55167  1.0000
  S   S467      1.0  0.90176  0.21974  0.60272  1.0000
  Fe  Fe236     1.0  0.90318  0.20457  0.46642  1.0000
  S   S468      1.0  0.92259  0.17765  0.46304  1.0000
  S   S469      1.0  0.88657  0.20335  0.49548  1.0000
  Fe  Fe237     1.0  0.91367  0.22201  0.42573  1.0000
  S   S470      1.0  0.93378  0.19583  0.41932  1.0000
  S   S471      1.0  0.90930  0.24548  0.40072  1.0000
  Fe  Fe238     1.0  0.91148  0.17872  0.43553  1.0000
  S   S472      1.0  0.90823  0.15016  0.42697  1.0000
  Fe  Fe239     1.0  0.94311  0.19676  0.44742  1.0000
  S   S473      1.0  0.97305  0.18823  0.45352  1.0000
  S   S474      1.0  0.89046  0.20463  0.43977  1.0000
  S   S475      1.0  0.92460  0.22391  0.45301  1.0000
  N   N115      1.0  0.88317  0.13165  0.49157  1.0000
  H   H1819     1.0  0.98352  0.25234  0.57610  1.0000
  C   C1153     1.0  0.98675  0.20652  0.45301  1.0000
  H   H1820     1.0  0.87325  0.29537  0.62594  1.0000
  H   H1821     1.0  0.96494  0.22953  0.44650  1.0000
  H   H1822     1.0  0.79004  0.04498  0.51147  1.0000
  C   C1154     1.0  0.74659  0.06794  0.43664  1.0000
  C   C1155     1.0  0.91296  0.45077  0.36216  1.0000
  H   H1823     1.0  0.91590  0.21057  0.38500  1.0000
  H   H1824     1.0  0.81154  0.03177  0.50220  1.0000
  H   H1825     1.0  0.97378  0.20980  0.62404  1.0000
  C   C1156     1.0  0.91016  0.23347  0.53632  1.0000
  C   C1157     1.0  0.90052  0.21783  0.54317  1.0000
  C   C1158     1.0  0.89284  0.20900  0.53060  1.0000
  C   C1159     1.0  0.89512  0.21551  0.51110  1.0000
  C   C1160     1.0  0.90472  0.23118  0.50426  1.0000
  C   C1161     1.0  0.91208  0.24027  0.51688  1.0000
  H   H1826     1.0  0.89901  0.21245  0.55817  1.0000
  H   H1827     1.0  0.88542  0.19688  0.53597  1.0000
  H   H1828     1.0  0.90628  0.23646  0.48927  1.0000
  H   H1829     1.0  0.91955  0.25234  0.51151  1.0000
  C   C1162     1.0  0.89179  0.14481  0.60642  1.0000
  C   C1163     1.0  0.90157  0.13338  0.62032  1.0000
  C   C1164     1.0  0.89987  0.11379  0.62458  1.0000
  C   C1165     1.0  0.88865  0.10539  0.61479  1.0000
  C   C1166     1.0  0.87962  0.11667  0.60028  1.0000
  C   C1167     1.0  0.88095  0.13629  0.59634  1.0000
  H   H1830     1.0  0.90979  0.13978  0.62834  1.0000
  H   H1831     1.0  0.90698  0.10520  0.63579  1.0000
  H   H1832     1.0  0.87116  0.11042  0.59242  1.0000
  H   H1833     1.0  0.87326  0.14502  0.58563  1.0000
  C   C1168     1.0  0.85805  0.11615  0.43367  1.0000
  C   C1169     1.0  0.87655  0.10724  0.43046  1.0000
  C   C1170     1.0  0.89169  0.11791  0.42846  1.0000
  C   C1171     1.0  0.88857  0.13746  0.43012  1.0000
  C   C1172     1.0  0.87010  0.14629  0.43380  1.0000
  C   C1173     1.0  0.85493  0.13571  0.43539  1.0000
  H   H1834     1.0  0.87918  0.09226  0.42896  1.0000
  H   H1835     1.0  0.90592  0.11094  0.42553  1.0000
  H   H1836     1.0  0.86745  0.16133  0.43502  1.0000
  H   H1837     1.0  0.84066  0.14273  0.43780  1.0000
  C   C1174     1.0  0.87083  0.03590  0.49956  1.0000
  C   C1175     1.0  0.87181  0.02996  0.51889  1.0000
  C   C1176     1.0  0.86866  0.04346  0.53154  1.0000
  C   C1177     1.0  0.86491  0.06283  0.52473  1.0000
  C   C1178     1.0  0.86523  0.06879  0.50526  1.0000
  C   C1179     1.0  0.86819  0.05530  0.49267  1.0000
  H   H1838     1.0  0.82549  0.05803  0.53750  1.0000
  H   H1839     1.0  0.86855  0.03885  0.54660  1.0000
  H   H1840     1.0  0.86222  0.08374  0.50001  1.0000
  H   H1841     1.0  0.86780  0.05992  0.47767  1.0000
  H   H1842     1.0  0.86496  0.13752  0.51712  1.0000
  H   H1843     1.0  0.90591  0.12003  0.50768  1.0000
  H   H1844     1.0  0.91375  0.37044  0.40403  1.0000
  C   C1180     1.0  0.86856  0.12644  0.50743  1.0000
  H   H1845     1.0  0.95195  0.22221  0.51974  1.0000
  C   C1181     1.0  0.90528  0.26977  0.59688  1.0000
  C   C1182     1.0  0.77768  0.05985  0.61457  1.0000
  C   C1183     1.0  0.78138  0.04545  0.60294  1.0000
  H   H1846     1.0  0.96583  0.26079  0.65553  1.0000
  H   H1847     1.0  0.79556  0.04118  0.59679  1.0000
  H   H1848     1.0  0.78466  0.05027  0.54527  1.0000
  H   H1849     1.0  0.94341  0.20989  0.49246  1.0000
  H   H1850     1.0  0.93088  0.19297  0.50855  1.0000
  C   C1184     1.0  0.92033  0.30814  0.39467  1.0000
  C   C1185     1.0  0.92138  0.29624  0.41211  1.0000
  C   C1186     1.0  0.91839  0.27699  0.41413  1.0000
  C   C1187     1.0  0.91407  0.26943  0.39875  1.0000
  C   C1188     1.0  0.91305  0.28132  0.38131  1.0000
  C   C1189     1.0  0.91627  0.30051  0.37922  1.0000
  H   H1851     1.0  0.92449  0.30195  0.42417  1.0000
  H   H1852     1.0  0.91919  0.26810  0.42765  1.0000
  H   H1853     1.0  0.90969  0.27569  0.36931  1.0000
  H   H1854     1.0  0.91534  0.30945  0.36574  1.0000
  C   C1190     1.0  0.93077  0.44503  0.36792  1.0000
  H   H1855     1.0  0.87829  0.17943  0.39527  1.0000
  H   H1856     1.0  0.90176  0.17304  0.38401  1.0000
  H   H1857     1.0  0.87367  0.16179  0.48949  1.0000
  C   C1191     1.0  0.96067  0.17391  0.52445  1.0000
  C   C1192     1.0  0.91473  0.48373  0.36618  1.0000
  H   H1858     1.0  0.90539  0.37917  0.44510  1.0000
  H   H1859     1.0  0.92817  0.41610  0.41104  1.0000
  H   H1860     1.0  0.84838  0.10424  0.62354  1.0000
  H   H1861     1.0  0.87464  0.11516  0.47256  1.0000
  C   C1193     1.0  0.94061  0.45878  0.37245  1.0000
  H   H1862     1.0  0.74714  0.07922  0.42476  1.0000
  C   C1194     1.0  0.92465  0.26168  0.64543  1.0000
  C   C1195     1.0  0.94005  0.28855  0.62902  1.0000
  C   C1196     1.0  0.93560  0.27005  0.62953  1.0000
  H   H1863     1.0  0.83579  0.01881  0.52259  1.0000
  H   H1864     1.0  0.94809  0.29513  0.61646  1.0000
  H   H1865     1.0  0.94036  0.26244  0.61749  1.0000
  H   H1866     1.0  0.79465  0.01981  0.51869  1.0000
  H   H1867     1.0  0.85539  0.12458  0.50217  1.0000
  H   H1868     1.0  0.89241  0.18900  0.35290  1.0000
  S   S476      1.0  0.93249  0.19011  0.62527  1.0000
  C   C1197     1.0  0.76671  0.03627  0.59957  1.0000
  H   H1869     1.0  0.87252  0.25792  0.59510  1.0000
  H   H1870     1.0  0.89198  0.10252  0.48691  1.0000
  H   H1871     1.0  0.90531  0.26339  0.58370  1.0000
  H   H1872     1.0  0.94698  0.17105  0.53295  1.0000
  H   H1873     1.0  0.83570  0.14491  0.63142  1.0000
  H   H1874     1.0  0.81937  0.01226  0.61251  1.0000
  H   H1875     1.0  0.94005  0.20503  0.53603  1.0000
  H   H1876     1.0  0.98229  0.18597  0.49255  1.0000
  C   C1198     1.0  0.88727  0.11664  0.47901  1.0000
  C   C1199     1.0  0.81870  0.05466  0.52576  1.0000
  H   H1877     1.0  0.82969  0.05377  0.51322  1.0000
  H   H1878     1.0  0.98482  0.25477  0.44637  1.0000
  H   H1879     1.0  0.81945  0.00714  0.54010  1.0000
  H   H1880     1.0  0.75508  0.02200  0.40165  1.0000
  H   H1881     1.0  0.91954  0.19821  0.36467  1.0000
  C   C1200     1.0  0.87310  0.26483  0.60781  1.0000
  H   H1882     1.0  0.88700  0.15406  0.46828  1.0000
  N   N116      1.0  0.95923  0.19331  0.51377  1.0000
  H   H1883     1.0  0.75516  0.02936  0.42433  1.0000
  H   H1884     1.0  0.83306  0.02345  0.54669  1.0000
  S   S477      1.0  0.93074  0.35055  0.33535  1.0000
  H   H1885     1.0  0.94043  0.48846  0.37504  1.0000
  H   H1886     1.0  0.80247  0.04127  0.56028  1.0000
  H   H1887     1.0  0.89078  0.27620  0.63281  1.0000
  H   H1888     1.0  0.99037  0.30048  0.66277  1.0000
  H   H1889     1.0  0.85901  0.13278  0.63250  1.0000
  C   C1201     1.0  0.79876  0.02050  0.64533  1.0000
  H   H1890     1.0  0.89795  0.18606  0.40377  1.0000
  H   H1891     1.0  0.79705  0.02107  0.66087  1.0000
  C   C1202     1.0  0.78692  0.03681  0.40164  1.0000
  S   S478      1.0  0.98394  0.18549  0.59447  1.0000
  H   H1892     1.0  0.97125  0.17188  0.53454  1.0000
  H   H1893     1.0  0.80742  0.03180  0.63828  1.0000
  C   C1203     1.0  0.99060  0.23995  0.44923  1.0000
  H   H1894     1.0  0.89092  0.47425  0.35758  1.0000
  S   S479      1.0  0.91646  0.23960  0.64571  1.0000
  H   H1895     1.0  0.90519  0.44034  0.35870  1.0000
  H   H1896     1.0  0.87718  0.23150  0.37837  1.0000
  H   H1897     1.0  0.96485  0.16291  0.51472  1.0000
  C   C1204     1.0  0.75915  0.06516  0.62264  1.0000
  C   C1205     1.0  0.83478  0.10763  0.63249  1.0000
  H   H1898     1.0  0.93067  0.38678  0.39629  1.0000
  H   H1899     1.0  0.86581  0.30151  0.59299  1.0000
  H   H1900     1.0  0.82506  0.11660  0.62310  1.0000
  H   H1901     1.0  0.98872  0.19537  0.51203  1.0000
  H   H1902     1.0  0.86319  0.14920  0.47491  1.0000
  C   C1206     1.0  0.89616  0.40626  0.40357  1.0000
  C   C1207     1.0  0.79614  0.03839  0.54806  1.0000
  N   N117      1.0  0.83730  0.11733  0.64844  1.0000
  H   H1903     1.0  0.95434  0.45447  0.37701  1.0000
  H   H1904     1.0  0.97688  0.21093  0.49413  1.0000
  H   H1905     1.0  0.86365  0.21350  0.39152  1.0000
  H   H1906     1.0  0.90904  0.22279  0.36309  1.0000
  H   H1907     1.0  0.88761  0.39664  0.39890  1.0000
  H   H1908     1.0  0.78107  0.04079  0.38792  1.0000
  C   C1208     1.0  0.99450  0.24052  0.57209  1.0000
  C   C1209     1.0  0.85057  0.10491  0.66019  1.0000
  C   C1210     1.0  0.97932  0.22567  0.44934  1.0000
  S   S480      1.0  0.84110  0.01432  0.40316  1.0000
  H   H1909     1.0  0.84671  0.14329  0.65254  1.0000
  N   N118      1.0  0.89078  0.20268  0.37775  1.0000
  C   C1211     1.0  0.87810  0.21740  0.38745  1.0000
  H   H1910     1.0  0.79630  0.00543  0.61406  1.0000
  C   C1212     1.0  0.91898  0.27165  0.66112  1.0000
  H   H1911     1.0  0.87970  0.28836  0.57520  1.0000
  C   C1213     1.0  0.88706  0.28744  0.62096  1.0000
  C   C1214     1.0  0.92145  0.38072  0.40885  1.0000
  C   C1215     1.0  0.89221  0.18453  0.39070  1.0000
  C   C1216     1.0  0.90963  0.20878  0.37231  1.0000
  N   N119      1.0  0.81034  0.03674  0.53113  1.0000
  C   C1217     1.0  0.93404  0.29867  0.64456  1.0000
  H   H1912     1.0  0.91029  0.25810  0.60774  1.0000
  H   H1913     1.0  0.87328  0.11276  0.51613  1.0000
  H   H1914     1.0  0.90460  0.41279  0.39063  1.0000
  H   H1915     1.0  0.88842  0.37679  0.43021  1.0000
  C   C1218     1.0  0.89662  0.38712  0.43426  1.0000
  N   N120      1.0  0.90837  0.39584  0.41753  1.0000
  H   H1916     1.0  0.88644  0.39807  0.44112  1.0000
  H   H1917     1.0  0.89857  0.11989  0.46713  1.0000
  H   H1918     1.0  0.88632  0.41800  0.40951  1.0000
  H   H1919     1.0  0.76967  0.02502  0.59071  1.0000
  H   H1920     1.0  0.77467  0.06919  0.44243  1.0000
  H   H1921     1.0  0.91579  0.27997  0.59374  1.0000
  H   H1922     1.0  0.88193  0.21350  0.35050  1.0000
  H   H1923     1.0  0.88984  0.30527  0.58515  1.0000
  H   H1924     1.0  0.92876  0.40186  0.43381  1.0000
  H   H1925     1.0  0.91180  0.13739  0.48759  1.0000
  C   C1219     1.0  0.91924  0.40923  0.42343  1.0000
  C   C1220     1.0  0.76219  0.06224  0.44658  1.0000
  H   H1926     1.0  0.90984  0.42087  0.43002  1.0000
  H   H1927     1.0  0.86896  0.19541  0.36416  1.0000
  C   C1221     1.0  0.98893  0.20736  0.62101  1.0000
  H   H1928     1.0  0.85862  0.27135  0.61271  1.0000
  H   H1929     1.0  0.87740  0.25330  0.61925  1.0000
  H   H1930     1.0  0.89778  0.29744  0.61869  1.0000
  C   C1222     1.0  0.88013  0.29425  0.58857  1.0000
  H   H1931     1.0  0.75617  0.07625  0.63171  1.0000
  C   C1223     1.0  0.93276  0.47807  0.37134  1.0000
  C   C1224     1.0  0.97921  0.29159  0.66227  1.0000
  S   S481      1.0  0.93906  0.32228  0.64278  1.0000
  C   C1225     1.0  0.76140  0.04789  0.46214  1.0000
  H   H1932     1.0  0.94878  0.18506  0.49028  1.0000
  C   C1226     1.0  0.87643  0.14998  0.48061  1.0000
  C   C1227     1.0  0.90491  0.47001  0.36152  1.0000
  C   C1228     1.0  0.82527  0.02082  0.53536  1.0000
  C   C1229     1.0  0.84493  0.13538  0.64093  1.0000
  N   N121      1.0  0.78229  0.01801  0.41119  1.0000
  C   C1230     1.0  0.90047  0.13356  0.49922  1.0000
  H   H1933     1.0  0.89788  0.14491  0.50863  1.0000
  H   H1934     1.0  0.87395  0.01493  0.52421  1.0000
  H   H1935     1.0  0.87858  0.00708  0.44765  1.0000
  H   H1936     1.0  0.80797  0.06697  0.52205  1.0000
  H   H1937     1.0  0.78459  0.02444  0.64061  1.0000
  C   C1231     1.0  0.81894  0.12135  0.66011  1.0000
  H   H1938     1.0  0.97682  0.29253  0.64720  1.0000
  C   C1232     1.0  0.80125  0.03315  0.51523  1.0000
  H   H1939     1.0  0.80864  0.13067  0.65159  1.0000
  H   H1940     1.0  0.82902  0.09394  0.63754  1.0000
  H   H1941     1.0  0.78116  0.04822  0.41063  1.0000
  H   H1942     1.0  0.78439  0.02416  0.43903  1.0000
  H   H1943     1.0  0.83547  0.00769  0.64130  1.0000
  H   H1944     1.0  0.78953  0.02512  0.55255  1.0000
  H   H1945     1.0  0.80244  0.03692  0.39853  1.0000
  H   H1946     1.0  0.99029  0.23491  0.56001  1.0000
  C   C1233     1.0  0.79027  0.01348  0.42932  1.0000
  H   H1947     1.0  0.80573  0.01345  0.42695  1.0000
  C   C1234     1.0  0.92377  0.29001  0.66077  1.0000
  H   H1948     1.0  0.81281  0.10799  0.66591  1.0000
  H   H1949     1.0  0.78469  0.00619  0.38506  1.0000
  H   H1950     1.0  0.99332  0.22613  0.64013  1.0000
  H   H1951     1.0  0.75765  0.00451  0.42224  1.0000
  H   H1952     1.0  0.84567  0.09087  0.66555  1.0000
  H   H1953     1.0  0.99418  0.22892  0.58429  1.0000
  C   C1235     1.0  0.79042  0.00331  0.39887  1.0000
  H   H1954     1.0  0.80600  0.00276  0.39565  1.0000
  N   N122      1.0  0.80753  0.00153  0.64061  1.0000
  C   C1236     1.0  0.80997  0.00173  0.61981  1.0000
  H   H1955     1.0  0.97636  0.44218  0.89072  1.0000
  S   S482      1.0  0.76931  0.39715  0.94124  1.0000
  H   H1956     1.0  0.88630  0.49109  0.72743  1.0000
  C   C1237     1.0  0.94876  0.42290  0.67834  1.0000
  S   S483      1.0  0.75906  0.35493  0.93707  1.0000
  N   N123      1.0  0.95532  0.45535  0.87300  1.0000
  H   H1957     1.0  0.98068  0.34660  0.73026  1.0000
  Fe  Fe240     1.0  0.77240  0.37867  0.91809  1.0000
  S   S484      1.0  0.79648  0.37742  0.89343  1.0000
  H   H1958     1.0  0.85853  0.46803  0.92429  1.0000
  Fe  Fe241     1.0  0.92424  0.35138  0.70625  1.0000
  H   H1959     1.0  0.96349  0.47145  0.84596  1.0000
  S   S485      1.0  0.90057  0.35835  0.72912  1.0000
  Fe  Fe242     1.0  0.96481  0.33464  0.69816  1.0000
  H   H1960     1.0  0.91288  0.49608  0.83328  1.0000
  H   H1961     1.0  0.97487  0.27802  0.69918  1.0000
  C   C1238     1.0  0.85625  0.47651  0.91030  1.0000
  H   H1962     1.0  0.94550  0.42839  0.87401  1.0000
  S   S486      1.0  0.95113  0.36171  0.70888  1.0000
  S   S487      1.0  0.93798  0.32271  0.69847  1.0000
  Fe  Fe243     1.0  0.91162  0.41515  0.82025  1.0000
  S   S488      1.0  0.91833  0.41665  0.84935  1.0000
  S   S489      1.0  0.90255  0.44291  0.80274  1.0000
  Fe  Fe244     1.0  0.92274  0.37287  0.82436  1.0000
  S   S490      1.0  0.93062  0.37123  0.85372  1.0000
  S   S491      1.0  0.92618  0.34621  0.81079  1.0000
  Fe  Fe245     1.0  0.90343  0.39090  0.85852  1.0000
  S   S492      1.0  0.88330  0.38763  0.88612  1.0000
  Fe  Fe246     1.0  0.94469  0.39713  0.84149  1.0000
  H   H1963     1.0  0.95318  0.46905  0.68176  1.0000
  S   S493      1.0  0.89483  0.39081  0.82987  1.0000
  S   S494      1.0  0.93872  0.39723  0.81174  1.0000
  S   S495      1.0  0.96637  0.34774  0.66791  1.0000
  S   S496      1.0  0.97118  0.40809  0.84625  1.0000
  C   C1239     1.0  0.89649  0.47645  0.85202  1.0000
  C   C1240     1.0  0.90546  0.48389  0.83439  1.0000
  C   C1241     1.0  0.90594  0.47464  0.81840  1.0000
  C   C1242     1.0  0.89730  0.45815  0.82018  1.0000
  C   C1243     1.0  0.88704  0.45181  0.83744  1.0000
  C   C1244     1.0  0.88676  0.46084  0.85336  1.0000
  H   H1964     1.0  0.76293  0.43474  0.88624  1.0000
  H   H1965     1.0  0.91405  0.47950  0.80512  1.0000
  H   H1966     1.0  0.88043  0.43903  0.83889  1.0000
  H   H1967     1.0  0.87987  0.45500  0.86695  1.0000
  C   C1245     1.0  0.97476  0.44665  0.87547  1.0000
  H   H1968     1.0  0.77318  0.41536  0.90174  1.0000
  H   H1969     1.0  0.95723  0.44843  0.84467  1.0000
  H   H1970     1.0  0.80399  0.46179  0.87999  1.0000
  C   C1246     1.0  0.90768  0.35474  0.75181  1.0000
  C   C1247     1.0  0.89728  0.36476  0.76604  1.0000
  C   C1248     1.0  0.90318  0.36260  0.78404  1.0000
  C   C1249     1.0  0.91905  0.34975  0.78811  1.0000
  C   C1250     1.0  0.92928  0.33950  0.77397  1.0000
  C   C1251     1.0  0.92382  0.34225  0.75573  1.0000
  H   H1971     1.0  0.88476  0.37439  0.76303  1.0000
  H   H1972     1.0  0.89524  0.37063  0.79483  1.0000
  H   H1973     1.0  0.94157  0.32955  0.77706  1.0000
  H   H1974     1.0  0.93186  0.33440  0.74482  1.0000
  H   H1975     1.0  0.78123  0.46166  0.87303  1.0000
  H   H1976     1.0  0.96020  0.48315  0.87708  1.0000
  H   H1977     1.0  0.77661  0.43813  0.92289  1.0000
  C   C1252     1.0  0.87813  0.46553  0.75787  1.0000
  H   H1978     1.0  0.99114  0.25653  0.69758  1.0000
  H   H1979     1.0  0.99366  0.49512  0.67900  1.0000
  C   C1253     1.0  0.82067  0.37975  0.89198  1.0000
  C   C1254     1.0  0.82941  0.37968  0.90804  1.0000
  C   C1255     1.0  0.84857  0.38213  0.90601  1.0000
  C   C1256     1.0  0.85916  0.38481  0.88795  1.0000
  C   C1257     1.0  0.85035  0.38510  0.87189  1.0000
  C   C1258     1.0  0.83128  0.38242  0.87392  1.0000
  H   H1980     1.0  0.82145  0.37761  0.92203  1.0000
  H   H1981     1.0  0.85524  0.38187  0.91854  1.0000
  H   H1982     1.0  0.85819  0.38751  0.85792  1.0000
  H   H1983     1.0  0.82461  0.38267  0.86140  1.0000
  H   H1984     1.0  0.93603  0.47925  0.88145  1.0000
  C   C1259     1.0  0.95379  0.46097  0.85257  1.0000
  H   H1985     1.0  0.76759  0.45772  0.90673  1.0000
  H   H1986     1.0  0.91049  0.26530  0.67348  1.0000
  C   C1260     1.0  0.94674  0.45620  0.68315  1.0000
  C   C1261     1.0  0.94212  0.44151  0.88104  1.0000
  Fe  Fe247     1.0  0.75358  0.37462  0.95941  1.0000
  N   N124      1.0  0.93749  0.40532  0.74506  1.0000
  C   C1262     1.0  0.95196  0.41069  0.72912  1.0000
  C   C1263     1.0  0.94447  0.38702  0.75590  1.0000
  C   C1264     1.0  0.92016  0.40334  0.73749  1.0000
  C   C1265     1.0  0.93334  0.42024  0.75773  1.0000
  H   H1987     1.0  0.94731  0.42465  0.72090  1.0000
  H   H1988     1.0  0.95503  0.40002  0.71897  1.0000
  H   H1989     1.0  0.96542  0.41183  0.73422  1.0000
  H   H1990     1.0  0.94713  0.37526  0.74701  1.0000
  H   H1991     1.0  0.95780  0.38778  0.76142  1.0000
  H   H1992     1.0  0.87280  0.49484  0.93191  1.0000
  H   H1993     1.0  0.90888  0.39944  0.74909  1.0000
  H   H1994     1.0  0.92265  0.39203  0.72805  1.0000
  H   H1995     1.0  0.91462  0.41680  0.72905  1.0000
  H   H1996     1.0  0.94606  0.42198  0.76388  1.0000
  H   H1997     1.0  0.92237  0.41670  0.76988  1.0000
  H   H1998     1.0  0.92815  0.43428  0.75001  1.0000
  C   C1266     1.0  0.95060  0.47235  0.88292  1.0000
  S   S497      1.0  0.91406  0.47689  0.69852  1.0000
  H   H1999     1.0  0.90485  0.43960  0.69809  1.0000
  C   C1267     1.0  0.99550  0.34632  0.72535  1.0000
  H   H2000     1.0  0.76537  0.40036  0.98503  1.0000
  C   C1268     1.0  0.92783  0.45630  0.69077  1.0000
  C   C1269     1.0  0.91952  0.43958  0.69239  1.0000
  H   H2001     1.0  0.86269  0.46688  0.75772  1.0000
  H   H2002     1.0  0.88312  0.49906  0.90760  1.0000
  C   C1270     1.0  0.80702  0.42630  0.89892  1.0000
  H   H2003     1.0  0.91900  0.29769  0.67280  1.0000
  N   N125      1.0  0.88429  0.48424  0.75784  1.0000
  H   H2004     1.0  0.97164  0.43968  0.67060  1.0000
  H   H2005     1.0  0.79016  0.45738  0.91424  1.0000
  C   C1271     1.0  0.87943  0.49702  0.74057  1.0000
  H   H2006     1.0  0.85258  0.11158  0.67258  1.0000
  C   C1272     1.0  0.99440  0.39590  0.84429  1.0000
  H   H2007     1.0  0.85931  0.49475  0.77534  1.0000
  N   N126      1.0  0.87899  0.33377  0.85179  1.0000
  C   C1273     1.0  0.86262  0.33063  0.86631  1.0000
  C   C1274     1.0  0.87270  0.34655  0.83511  1.0000
  C   C1275     1.0  0.88820  0.31541  0.84583  1.0000
  C   C1276     1.0  0.89257  0.34256  0.85985  1.0000
  H   H2008     1.0  0.86685  0.32096  0.87906  1.0000
  H   H2009     1.0  0.85192  0.32423  0.86068  1.0000
  H   H2010     1.0  0.85555  0.34424  0.87125  1.0000
  H   H2011     1.0  0.86569  0.36056  0.83904  1.0000
  H   H2012     1.0  0.88480  0.34927  0.82399  1.0000
  H   H2013     1.0  0.86257  0.34031  0.82854  1.0000
  H   H2014     1.0  0.87840  0.30832  0.83967  1.0000
  H   H2015     1.0  0.89335  0.30545  0.85799  1.0000
  H   H2016     1.0  0.90059  0.31745  0.83480  1.0000
  H   H2017     1.0  0.90528  0.34469  0.84938  1.0000
  H   H2018     1.0  0.89736  0.33357  0.87272  1.0000
  H   H2019     1.0  0.88632  0.35668  0.86406  1.0000
  N   N127      1.0  0.78961  0.43837  0.89393  1.0000
  H   H2020     1.0  0.88514  0.45887  0.74517  1.0000
  C   C1277     1.0  0.77654  0.42630  0.88950  1.0000
  C   C1278     1.0  0.79415  0.45243  0.87717  1.0000
  C   C1279     1.0  0.78068  0.44837  0.91014  1.0000
  C   C1280     1.0  0.95713  0.43958  0.67684  1.0000
  H   H2021     1.0  0.95168  0.46873  0.89836  1.0000
  H   H2022     1.0  0.82027  0.12865  0.67232  1.0000
  H   H2023     1.0  0.97223  0.24543  0.67636  1.0000
  H   H2024     1.0  0.98662  0.36800  0.84516  1.0000
  H   H2025     1.0  0.80087  0.44524  0.86470  1.0000
  S   S498      1.0  0.96209  0.40232  0.67011  1.0000
  H   H2026     1.0  0.92735  0.44757  0.87907  1.0000
  H   H2027     1.0  0.82380  0.49824  0.92098  1.0000
  H   H2028     1.0  0.81433  0.41891  0.88682  1.0000
  H   H2029     1.0  0.92334  0.41018  0.68745  1.0000
  S   S499      1.0  0.75616  0.36158  0.98975  1.0000
  C   C1281     1.0  0.92996  0.42290  0.68634  1.0000
  H   H2030     1.0  0.93410  0.38285  0.76833  1.0000
  H   H2031     1.0  0.93926  0.46755  0.85028  1.0000
  N   N128      1.0  0.85348  0.49717  0.91143  1.0000
  H   H2032     1.0  0.97888  0.43376  0.86820  1.0000
  C   C1282     1.0  0.87485  0.49265  0.77489  1.0000
  H   H2033     1.0  0.94263  0.43708  0.89649  1.0000
  Fe  Fe248     1.0  0.95053  0.37414  0.67856  1.0000
  H   H2034     1.0  0.80392  0.41506  0.91109  1.0000
  S   S500      1.0  0.89869  0.48480  0.87308  1.0000
  S   S501      1.0  0.92268  0.36537  0.67612  1.0000
  H   H2035     1.0  0.86877  0.47247  0.90001  1.0000
  H   H2036     1.0  0.81707  0.43471  0.90295  1.0000
  S   S502      1.0  0.99198  0.31770  0.70549  1.0000
  N   N129      1.0  0.98431  0.27167  0.67072  1.0000
  H   H2037     1.0  0.90906  0.47176  0.77055  1.0000
  H   H2038     1.0  0.98505  0.45674  0.86950  1.0000
  C   C1283     1.0  0.76682  0.39379  0.99941  1.0000
  H   H2039     1.0  0.98752  0.47392  0.67253  1.0000
  H   H2040     1.0  0.88156  0.45553  0.77073  1.0000
  C   C1284     1.0  0.90483  0.48175  0.75800  1.0000
  Fe  Fe249     1.0  0.93873  0.33735  0.66845  1.0000
  H   H2041     1.0  0.78269  0.41848  0.87731  1.0000
  H   H2042     1.0  0.87841  0.48339  0.78814  1.0000
  H   H2043     1.0  0.84393  0.47202  0.90557  1.0000
  S   S503      1.0  0.74896  0.49499  0.97946  1.0000
  H   H2044     1.0  0.90978  0.49553  0.75874  1.0000
  H   H2045     1.0  0.91248  0.47608  0.74500  1.0000
  C   C1285     1.0  0.99518  0.47935  0.68241  1.0000
  H   H2046     1.0  0.86402  0.49942  0.74004  1.0000
  C   C1286     1.0  0.96881  0.26061  0.67030  1.0000
  H   H2047     1.0  0.83843  0.49422  0.93970  1.0000
  H   H2048     1.0  0.98788  0.47608  0.69707  1.0000
  C   C1287     1.0  0.98753  0.27133  0.69059  1.0000
  H   H2049     1.0  0.74782  0.45468  0.98449  1.0000
  H   H2050     1.0  0.95555  0.26649  0.67859  1.0000
  H   H2051     1.0  0.96601  0.29828  0.67003  1.0000
  Fe  Fe250     1.0  0.77905  0.52180  0.13763  1.0000
  Fe  Fe251     1.0  0.79785  0.53797  0.09953  1.0000
  S   S504      1.0  0.79995  0.56578  0.10940  1.0000
  S   S505      1.0  0.80638  0.52747  0.07110  1.0000
  Fe  Fe252     1.0  0.80884  0.54783  0.13621  1.0000
  S   S506      1.0  0.82884  0.54975  0.15752  1.0000
  S   S507      1.0  0.80917  0.52036  0.12491  1.0000
  Fe  Fe253     1.0  0.93187  0.53779  0.18699  1.0000
  S   S508      1.0  0.91597  0.54430  0.21504  1.0000
  S   S509      1.0  0.91779  0.53895  0.16027  1.0000
  Fe  Fe254     1.0  0.96989  0.52663  0.20367  1.0000
  S   S510      1.0  0.95616  0.53142  0.23290  1.0000
  H   H2052     1.0  0.98481  0.56738  0.21511  1.0000
  Fe  Fe255     1.0  0.93268  0.51736  0.22701  1.0000
  S   S511      1.0  0.77881  0.54840  0.15039  1.0000
  Fe  Fe256     1.0  0.94117  0.55773  0.21806  1.0000
  S   S512      1.0  0.94036  0.58571  0.22846  1.0000
  S   S513      1.0  0.94747  0.50994  0.19903  1.0000
  S   S514      1.0  0.95598  0.55384  0.18887  1.0000
  H   H2053     1.0  0.79561  0.51755  0.03750  1.0000
  H   H2054     1.0  0.92831  0.50699  0.28345  1.0000
  S   S515      1.0  0.91274  0.58958  0.31558  1.0000
  H   H2055     1.0  0.79421  0.56789  0.06341  1.0000
  S   S516      1.0  0.74848  0.59073  0.11885  1.0000
  H   H2056     1.0  0.89706  0.51074  0.21851  1.0000
  C   C1288     1.0  0.89738  0.54196  0.30224  1.0000
  C   C1289     1.0  0.93286  0.58594  0.25282  1.0000
  C   C1290     1.0  0.93811  0.57051  0.26637  1.0000
  C   C1291     1.0  0.93260  0.57164  0.28584  1.0000
  C   C1292     1.0  0.92127  0.58789  0.29164  1.0000
  C   C1293     1.0  0.91602  0.60316  0.27804  1.0000
  C   C1294     1.0  0.92208  0.60232  0.25874  1.0000
  H   H2057     1.0  0.94669  0.55792  0.26192  1.0000
  H   H2058     1.0  0.93695  0.55997  0.29632  1.0000
  H   H2059     1.0  0.90730  0.61575  0.28246  1.0000
  H   H2060     1.0  0.91809  0.61431  0.24836  1.0000
  C   C1295     1.0  0.90437  0.50908  0.31576  1.0000
  H   H2061     1.0  0.93321  0.52558  0.29539  1.0000
  Fe  Fe257     1.0  0.76986  0.56391  0.12283  1.0000
  C   C1296     1.0  0.85367  0.54654  0.15770  1.0000
  C   C1297     1.0  0.86060  0.54642  0.17498  1.0000
  C   C1298     1.0  0.88010  0.54407  0.17601  1.0000
  C   C1299     1.0  0.89300  0.54208  0.15967  1.0000
  C   C1300     1.0  0.88609  0.54202  0.14239  1.0000
  C   C1301     1.0  0.86656  0.54410  0.14141  1.0000
  H   H2062     1.0  0.85081  0.54831  0.18768  1.0000
  H   H2063     1.0  0.88510  0.54407  0.18942  1.0000
  H   H2064     1.0  0.89591  0.54050  0.12964  1.0000
  H   H2065     1.0  0.86150  0.54421  0.12800  1.0000
  C   C1302     1.0  0.78203  0.57194  0.03723  1.0000
  H   H2066     1.0  0.84524  0.50925  0.18102  1.0000
  C   C1303     1.0  0.79578  0.54143  0.05230  1.0000
  C   C1304     1.0  0.79099  0.56107  0.05210  1.0000
  C   C1305     1.0  0.80813  0.50901  0.18203  1.0000
  H   H2067     1.0  0.97255  0.59569  0.24408  1.0000
  H   H2068     1.0  0.98116  0.56816  0.32349  1.0000
  H   H2069     1.0  0.90660  0.54651  0.31126  1.0000
  H   H2070     1.0  0.74697  0.54264  0.04974  1.0000
  H   H2071     1.0  0.97586  0.56172  0.23957  1.0000
  C   C1306     1.0  0.78256  0.54355  0.02277  1.0000
  S   S517      1.0  0.76758  0.53709  0.11135  1.0000
  H   H2072     1.0  0.77830  0.58713  0.03718  1.0000
  C   C1307     1.0  0.89100  0.51684  0.28630  1.0000
  H   H2073     1.0  0.99228  0.60870  0.23686  1.0000
  C   C1308     1.0  0.77759  0.56317  0.02269  1.0000
  C   C1309     1.0  0.79180  0.53273  0.03747  1.0000
  C   C1310     1.0  0.98894  0.56370  0.22966  1.0000
  H   H2074     1.0  0.89065  0.52633  0.27250  1.0000
  H   H2075     1.0  0.88293  0.54318  0.31013  1.0000
  H   H2076     1.0  0.80660  0.51615  0.16738  1.0000
  C   C1311     1.0  0.92302  0.52155  0.28711  1.0000
  H   H2077     1.0  0.81144  0.51993  0.19001  1.0000
  N   N130      1.0  0.90394  0.52236  0.29787  1.0000
  H   H2078     1.0  0.98083  0.60097  0.21941  1.0000
  H   H2079     1.0  0.87641  0.51745  0.29383  1.0000
  C   C1312     1.0  0.98552  0.59684  0.23370  1.0000
  H   H2080     1.0  0.77913  0.53665  0.01165  1.0000
  H   H2081     1.0  0.90283  0.50343  0.14984  1.0000
  H   H2082     1.0  0.92318  0.53137  0.27349  1.0000
  C   C1313     1.0  0.99524  0.56694  0.32714  1.0000
  H   H2083     1.0  0.89726  0.55247  0.28910  1.0000
  H   H2084     1.0  0.91430  0.51255  0.32467  1.0000
  H   H2085     1.0  0.94052  0.50117  0.16453  1.0000
  H   H2086     1.0  0.79416  0.50478  0.18839  1.0000
  H   H2087     1.0  0.89033  0.50965  0.32456  1.0000
  H   H2088     1.0  0.84028  0.50592  0.15824  1.0000
  H   H2089     1.0  0.74860  0.58068  0.06300  1.0000
  S   S518      1.0  0.76517  0.57698  0.00507  1.0000
  H   H2090     1.0  0.75777  0.55757  0.07398  1.0000
  H   H2091     1.0  0.89548  0.50206  0.28286  1.0000
  H   H2092     1.0  0.93706  0.50325  0.14035  1.0000
  H   H2093     1.0  0.99056  0.57143  0.26470  1.0000
  H   H2094     1.0  0.90644  0.50170  0.17417  1.0000
  Fe  Fe258     1.0  0.91634  0.72349  0.61218  1.0000
  S   S519      1.0  0.91259  0.69646  0.60171  1.0000
  S   S520      1.0  0.89093  0.74543  0.61860  1.0000
  Fe  Fe259     1.0  0.95700  0.70869  0.61865  1.0000
  S   S521      1.0  0.95639  0.68048  0.60915  1.0000
  C   C1314     1.0  0.78276  0.92577  0.61207  1.0000
  Fe  Fe260     1.0  0.94150  0.69837  0.58578  1.0000
  S   S522      1.0  0.95173  0.69307  0.55556  1.0000
  Fe  Fe261     1.0  0.92759  0.68078  0.62593  1.0000
  S   S523      1.0  0.91461  0.65873  0.64850  1.0000
  S   S524      1.0  0.94412  0.72671  0.59429  1.0000
  S   S525      1.0  0.92949  0.70775  0.63735  1.0000
  Fe  Fe262     1.0  0.94719  0.70867  0.44600  1.0000
  S   S526      1.0  0.93324  0.68211  0.45361  1.0000
  H   H2095     1.0  0.98488  0.61053  0.40383  1.0000
  Fe  Fe263     1.0  0.91147  0.73351  0.43463  1.0000
  S   S527      1.0  0.89485  0.70881  0.44178  1.0000
  S   S528      1.0  0.89787  0.76167  0.42004  1.0000
  Fe  Fe264     1.0  0.90977  0.70134  0.46757  1.0000
  S   S529      1.0  0.89528  0.69247  0.49680  1.0000
  Fe  Fe265     1.0  0.91982  0.69163  0.42707  1.0000
  S   S530      1.0  0.91448  0.67391  0.40511  1.0000
  S   S531      1.0  0.92440  0.72735  0.46179  1.0000
  S   S532      1.0  0.93580  0.71683  0.41813  1.0000
  C   C1315     1.0  0.83643  0.97848  0.42376  1.0000
  H   H2096     1.0  0.97671  0.73518  0.42122  1.0000
  C   C1316     1.0  0.89282  0.62471  0.46650  1.0000
  H   H2097     1.0  0.84789  0.70664  0.61849  1.0000
  S   S533      1.0  0.94318  0.53596  0.38146  1.0000
  C   C1317     1.0  0.76042  0.87169  0.65043  1.0000
  Fe  Fe266     1.0  0.92059  0.53214  0.36465  1.0000
  C   C1318     1.0  0.75961  0.89287  0.45585  1.0000
  Fe  Fe267     1.0  0.93109  0.56716  0.37981  1.0000
  S   S534      1.0  0.93169  0.58367  0.40461  1.0000
  Fe  Fe268     1.0  0.83837  0.89665  0.58574  1.0000
  S   S535      1.0  0.80977  0.88715  0.59202  1.0000
  S   S536      1.0  0.83721  0.92818  0.57339  1.0000
  Fe  Fe269     1.0  0.85739  0.85548  0.59692  1.0000
  S   S537      1.0  0.82991  0.84382  0.60493  1.0000
  S   S538      1.0  0.88518  0.83554  0.59513  1.0000
  Fe  Fe270     1.0  0.82210  0.86157  0.57821  1.0000
  S   S539      1.0  0.80722  0.84843  0.55935  1.0000
  Fe  Fe271     1.0  0.81991  0.87052  0.61822  1.0000
  S   S540      1.0  0.79811  0.87464  0.64355  1.0000
  S   S541      1.0  0.84997  0.87213  0.56916  1.0000
  S   S542      1.0  0.84818  0.88107  0.61288  1.0000
  Fe  Fe272     1.0  0.81084  0.89229  0.46189  1.0000
  S   S543      1.0  0.84223  0.88705  0.45913  1.0000
  S   S544      1.0  0.79361  0.90581  0.48603  1.0000
  Fe  Fe273     1.0  0.80930  0.88036  0.42398  1.0000
  S   S545      1.0  0.84089  0.87443  0.41744  1.0000
  S   S546      1.0  0.78825  0.88077  0.40379  1.0000
  Fe  Fe274     1.0  0.83966  0.86006  0.44774  1.0000
  S   S547      1.0  0.85620  0.83268  0.46096  1.0000
  Fe  Fe275     1.0  0.84093  0.90179  0.42939  1.0000
  S   S548      1.0  0.85993  0.92408  0.41644  1.0000
  S   S549      1.0  0.80793  0.86426  0.45338  1.0000
  S   S550      1.0  0.80973  0.90879  0.43307  1.0000
  C   C1319     1.0  0.84342  0.94711  0.58350  1.0000
  C   C1320     1.0  0.84053  0.96584  0.57404  1.0000
  C   C1321     1.0  0.84557  0.98124  0.58137  1.0000
  C   C1322     1.0  0.85369  0.97804  0.59822  1.0000
  C   C1323     1.0  0.85633  0.95937  0.60780  1.0000
  C   C1324     1.0  0.85119  0.94400  0.60054  1.0000
  H   H2098     1.0  0.83460  0.96838  0.56082  1.0000
  H   H2099     1.0  0.87075  0.71961  0.36311  1.0000
  H   H2100     1.0  0.86263  0.95671  0.62082  1.0000
  H   H2101     1.0  0.85357  0.92970  0.60796  1.0000
  C   C1325     1.0  0.80123  0.86471  0.53982  1.0000
  C   C1326     1.0  0.80112  0.88420  0.53985  1.0000
  C   C1327     1.0  0.79795  0.89697  0.52348  1.0000
  C   C1328     1.0  0.79545  0.89015  0.50697  1.0000
  C   C1329     1.0  0.79526  0.87069  0.50704  1.0000
  C   C1330     1.0  0.79779  0.85801  0.52359  1.0000
  H   H2102     1.0  0.80391  0.88944  0.55229  1.0000
  H   H2103     1.0  0.79823  0.91203  0.52336  1.0000
  H   H2104     1.0  0.79321  0.86541  0.49433  1.0000
  H   H2105     1.0  0.79791  0.84293  0.52350  1.0000
  H   H2106     1.0  0.88947  0.67249  0.46604  1.0000
  C   C1331     1.0  0.85202  0.94879  0.41258  1.0000
  C   C1332     1.0  0.83987  0.95833  0.42624  1.0000
  H   H2107     1.0  0.99356  0.56029  0.39338  1.0000
  H   H2108     1.0  0.83371  0.95020  0.43900  1.0000
  H   H2109     1.0  0.89194  0.70108  0.64004  1.0000
  C   C1333     1.0  0.76576  0.85656  0.42734  1.0000
  C   C1334     1.0  0.76708  0.87126  0.41212  1.0000
  H   H2110     1.0  0.90011  0.65881  0.44734  1.0000
  H   H2111     1.0  0.96007  0.73711  0.47258  1.0000
  H   H2112     1.0  0.77808  0.85046  0.43405  1.0000
  H   H2113     1.0  0.87546  0.65955  0.45552  1.0000
  H   H2114     1.0  0.79114  0.92577  0.59774  1.0000
  C   C1335     1.0  0.92929  0.59331  0.65546  1.0000
  H   H2115     1.0  0.76998  0.92677  0.43968  1.0000
  C   C1336     1.0  0.77816  0.86405  0.64220  1.0000
  C   C1337     1.0  0.77973  0.84839  0.63239  1.0000
  C   C1338     1.0  0.90041  0.97643  0.46193  1.0000
  S   S551      1.0  0.90369  0.50755  0.36630  1.0000
  H   H2116     1.0  0.79337  0.84218  0.62633  1.0000
  H   H2117     1.0  0.88426  0.70889  0.40223  1.0000
  H   H2118     1.0  0.75184  0.88051  0.45649  1.0000
  H   H2119     1.0  0.97845  0.61839  0.37056  1.0000
  H   H2120     1.0  0.98704  0.72880  0.59153  1.0000
  C   C1339     1.0  0.76299  0.82906  0.56219  1.0000
  H   H2121     1.0  0.87878  0.62441  0.46222  1.0000
  H   H2122     1.0  0.89695  0.98765  0.47152  1.0000
  C   C1340     1.0  0.75114  0.87878  0.40327  1.0000
  C   C1341     1.0  0.85634  0.97940  0.39359  1.0000
  H   H2123     1.0  0.86979  0.95231  0.38581  1.0000
  H   H2124     1.0  0.89590  0.61178  0.47687  1.0000
  H   H2125     1.0  0.87564  0.71552  0.65480  1.0000
  H   H2126     1.0  0.90333  0.62345  0.45360  1.0000
  H   H2127     1.0  0.99036  0.71507  0.49514  1.0000
  C   C1342     1.0  0.88616  0.78118  0.43173  1.0000
  C   C1343     1.0  0.88515  0.78091  0.45136  1.0000
  C   C1344     1.0  0.87589  0.79675  0.46004  1.0000
  C   C1345     1.0  0.86744  0.81302  0.44926  1.0000
  C   C1346     1.0  0.86836  0.81324  0.42965  1.0000
  C   C1347     1.0  0.87770  0.79743  0.42096  1.0000
  H   H2128     1.0  0.89154  0.76852  0.45985  1.0000
  H   H2129     1.0  0.87525  0.79639  0.47520  1.0000
  H   H2130     1.0  0.86198  0.82565  0.42116  1.0000
  H   H2131     1.0  0.87841  0.79786  0.40578  1.0000
  C   C1348     1.0  0.92011  0.64885  0.40495  1.0000
  C   C1349     1.0  0.92797  0.63682  0.41980  1.0000
  C   C1350     1.0  0.93136  0.61695  0.41949  1.0000
  C   C1351     1.0  0.92730  0.60886  0.40418  1.0000
  C   C1352     1.0  0.91990  0.62093  0.38912  1.0000
  C   C1353     1.0  0.91621  0.64077  0.38959  1.0000
  H   H2132     1.0  0.93139  0.64281  0.43154  1.0000
  H   H2133     1.0  0.93721  0.60776  0.43116  1.0000
  H   H2134     1.0  0.91670  0.61497  0.37723  1.0000
  H   H2135     1.0  0.91019  0.64988  0.37797  1.0000
  C   C1354     1.0  0.88933  0.77035  0.61108  1.0000
  C   C1355     1.0  0.87315  0.78218  0.61762  1.0000
  C   C1356     1.0  0.87151  0.80208  0.61248  1.0000
  C   C1357     1.0  0.88615  0.81043  0.60087  1.0000
  C   C1358     1.0  0.90231  0.79857  0.59418  1.0000
  C   C1359     1.0  0.90382  0.77861  0.59910  1.0000
  H   H2136     1.0  0.86182  0.77598  0.62684  1.0000
  H   H2137     1.0  0.85907  0.81099  0.61787  1.0000
  H   H2138     1.0  0.91363  0.80488  0.58505  1.0000
  H   H2139     1.0  0.91611  0.76963  0.59356  1.0000
  C   C1360     1.0  0.92082  0.63359  0.65089  1.0000
  C   C1361     1.0  0.93841  0.75754  0.63650  1.0000
  C   C1362     1.0  0.86761  0.97322  0.46343  1.0000
  C   C1363     1.0  0.76051  0.90713  0.60453  1.0000
  C   C1364     1.0  0.86885  0.67671  0.63618  1.0000
  N   N131      1.0  0.74728  0.91110  0.45239  1.0000
  H   H2140     1.0  0.94438  0.72772  0.52448  1.0000
  H   H2141     1.0  0.97411  0.73847  0.52787  1.0000
  H   H2142     1.0  0.87895  0.96160  0.42906  1.0000
  H   H2143     1.0  0.76552  0.89150  0.46947  1.0000
  C   C1365     1.0  0.93540  0.69122  0.54039  1.0000
  C   C1366     1.0  0.91606  0.69620  0.54526  1.0000
  C   C1367     1.0  0.90364  0.69608  0.53203  1.0000
  C   C1368     1.0  0.91061  0.69149  0.51378  1.0000
  C   C1369     1.0  0.92991  0.68636  0.50904  1.0000
  C   C1370     1.0  0.94219  0.68587  0.52243  1.0000
  H   H2144     1.0  0.91069  0.70044  0.55904  1.0000
  H   H2145     1.0  0.88871  0.70008  0.53574  1.0000
  H   H2146     1.0  0.93542  0.68262  0.49509  1.0000
  H   H2147     1.0  0.95705  0.68147  0.51879  1.0000
  N   N132      1.0  0.95065  0.77242  0.62907  1.0000
  H   H2148     1.0  0.90333  0.96340  0.42843  1.0000
  C   C1371     1.0  0.98967  0.73398  0.42728  1.0000
  H   H2149     1.0  0.96865  0.70690  0.49356  1.0000
  H   H2150     1.0  0.95966  0.75956  0.48074  1.0000
  H   H2151     1.0  0.94567  0.59767  0.62789  1.0000
  H   H2152     1.0  0.92744  0.79352  0.62195  1.0000
  C   C1372     1.0  0.93667  0.60453  0.63899  1.0000
  H   H2153     1.0  0.97595  0.78099  0.63529  1.0000
  H   H2154     1.0  0.89473  0.99824  0.42857  1.0000
  C   C1373     1.0  0.75815  0.92710  0.45148  1.0000
  H   H2155     1.0  0.78751  0.98887  0.40574  1.0000
  S   S552      1.0  0.98105  0.71520  0.63204  1.0000
  H   H2156     1.0  0.76510  0.82775  0.62401  1.0000
  H   H2157     1.0  0.82743  0.98568  0.43455  1.0000
  C   C1374     1.0  0.74853  0.84942  0.43359  1.0000
  H   H2158     1.0  0.76431  0.92651  0.46486  1.0000
  N   N133      1.0  0.88870  0.73080  0.37861  1.0000
  C   C1375     1.0  0.88122  0.75090  0.37290  1.0000
  C   C1376     1.0  0.90899  0.72937  0.37992  1.0000
  C   C1377     1.0  0.88591  0.71896  0.36444  1.0000
  C   C1378     1.0  0.87872  0.72391  0.39730  1.0000
  H   H2159     1.0  0.87021  0.99621  0.43031  1.0000
  Fe  Fe276     1.0  0.95903  0.54443  0.35292  1.0000
  C   C1379     1.0  0.96635  0.77005  0.64051  1.0000
  H   H2160     1.0  0.91503  0.71444  0.38460  1.0000
  H   H2161     1.0  0.91703  0.73420  0.36603  1.0000
  S   S553      1.0  0.98927  0.53210  0.34704  1.0000
  C   C1380     1.0  0.76370  0.84025  0.63104  1.0000
  H   H2162     1.0  0.89329  0.72371  0.35015  1.0000
  H   H2163     1.0  0.78897  0.91328  0.62148  1.0000
  H   H2164     1.0  0.78485  0.93881  0.61761  1.0000
  H   H2165     1.0  0.75641  0.81892  0.55590  1.0000
  C   C1381     1.0  0.85958  0.70995  0.62525  1.0000
  N   N134      1.0  0.85808  0.84944  0.51366  1.0000
  C   C1382     1.0  0.84377  0.83845  0.50979  1.0000
  C   C1383     1.0  0.87265  0.85117  0.49697  1.0000
  C   C1384     1.0  0.86675  0.83950  0.53044  1.0000
  C   C1385     1.0  0.84907  0.86863  0.51745  1.0000
  H   H2166     1.0  0.83311  0.83599  0.52245  1.0000
  H   H2167     1.0  0.85022  0.82429  0.50576  1.0000
  H   H2168     1.0  0.83626  0.84598  0.49778  1.0000
  H   H2169     1.0  0.86652  0.85886  0.48418  1.0000
  H   H2170     1.0  0.88391  0.85905  0.49944  1.0000
  H   H2171     1.0  0.87933  0.83695  0.49327  1.0000
  H   H2172     1.0  0.87743  0.84752  0.53401  1.0000
  H   H2173     1.0  0.87378  0.82501  0.52804  1.0000
  H   H2174     1.0  0.85602  0.83784  0.54323  1.0000
  H   H2175     1.0  0.85953  0.87760  0.51969  1.0000
  H   H2176     1.0  0.83864  0.86782  0.53045  1.0000
  H   H2177     1.0  0.84149  0.87622  0.50551  1.0000
  N   N135      1.0  0.86346  0.69589  0.64201  1.0000
  N   N136      1.0  0.76265  0.92500  0.61134  1.0000
  H   H2178     1.0  0.96115  0.77120  0.65571  1.0000
  H   H2179     1.0  0.74760  0.83791  0.44520  1.0000
  S   S554      1.0  0.97670  0.70481  0.45347  1.0000
  S   S555      1.0  0.86033  0.99680  0.60822  1.0000
  H   H2180     1.0  0.96806  0.78122  0.60316  1.0000
  H   H2181     1.0  0.89150  0.70372  0.36850  1.0000
  H   H2182     1.0  0.88256  0.69064  0.66299  1.0000
  H   H2183     1.0  0.75211  0.89007  0.39143  1.0000
  C   C1386     1.0  0.75823  0.85506  0.58073  1.0000
  C   C1387     1.0  0.94574  0.73457  0.50942  1.0000
  C   C1388     1.0  0.97544  0.71535  0.50168  1.0000
  H   H2184     1.0  0.86338  0.98438  0.47298  1.0000
  H   H2185     1.0  0.77166  0.83706  0.55046  1.0000
  C   C1389     1.0  0.82608  0.99679  0.64752  1.0000
  H   H2186     1.0  0.96630  0.75622  0.60780  1.0000
  H   H2187     1.0  0.98168  0.74503  0.47495  1.0000
  Fe  Fe277     1.0  0.92526  0.56897  0.33851  1.0000
  H   H2188     1.0  0.85570  0.97330  0.45537  1.0000
  H   H2189     1.0  0.87215  0.71037  0.61427  1.0000
  H   H2190     1.0  0.83444  0.69207  0.65035  1.0000
  H   H2191     1.0  0.91160  0.73838  0.39029  1.0000
  H   H2192     1.0  0.76632  0.89445  0.61392  1.0000
  S   S556      1.0  0.90665  0.56241  0.36593  1.0000
  H   H2193     1.0  0.92662  0.75856  0.62798  1.0000
  S   S557      1.0  0.94873  0.57559  0.35230  1.0000
  C   C1390     1.0  0.86022  0.95949  0.39633  1.0000
  N   N137      1.0  0.74871  0.84210  0.57246  1.0000
  C   C1391     1.0  0.89008  0.96152  0.43813  1.0000
  H   H2194     1.0  0.86339  0.72458  0.39682  1.0000
  C   C1392     1.0  0.88202  0.99534  0.43875  1.0000
  N   N138      1.0  0.89343  0.64231  0.47457  1.0000
  C   C1393     1.0  0.87916  0.64355  0.49150  1.0000
  C   C1394     1.0  0.91228  0.64205  0.48011  1.0000
  C   C1395     1.0  0.88946  0.65900  0.46022  1.0000
  H   H2195     1.0  0.87936  0.65670  0.49793  1.0000
  H   H2196     1.0  0.88170  0.63121  0.50268  1.0000
  H   H2197     1.0  0.86472  0.64396  0.48788  1.0000
  H   H2198     1.0  0.91319  0.65516  0.48628  1.0000
  H   H2199     1.0  0.92344  0.64120  0.46770  1.0000
  H   H2200     1.0  0.91573  0.62969  0.49099  1.0000
  H   H2201     1.0  0.75629  0.95517  0.60305  1.0000
  H   H2202     1.0  0.93377  0.79338  0.64508  1.0000
  H   H2203     1.0  0.82482  0.99591  0.66322  1.0000
  H   H2204     1.0  0.84350  0.99549  0.57383  1.0000
  H   H2205     1.0  0.93778  0.74912  0.50903  1.0000
  H   H2206     1.0  0.75146  0.91088  0.42217  1.0000
  H   H2207     1.0  0.94693  0.77267  0.59994  1.0000
  N   N139      1.0  0.88503  0.97662  0.45055  1.0000
  H   H2208     1.0  0.78123  0.99025  0.64474  1.0000
  C   C1396     1.0  0.79531  0.98710  0.64974  1.0000
  C   C1397     1.0  0.93259  0.62455  0.63676  1.0000
  H   H2209     1.0  0.94829  0.80302  0.62437  1.0000
  H   H2210     1.0  0.84210  0.71019  0.66092  1.0000
  H   H2211     1.0  0.88174  0.67614  0.62557  1.0000
  H   H2212     1.0  0.97498  0.75584  0.63989  1.0000
  H   H2213     1.0  0.88849  0.75666  0.35891  1.0000
  H   H2214     1.0  0.85751  0.67227  0.62974  1.0000
  H   H2215     1.0  0.88032  0.73272  0.40827  1.0000
  H   H2216     1.0  0.89192  0.94710  0.44650  1.0000
  H   H2217     1.0  0.90311  0.96251  0.47100  1.0000
  H   H2218     1.0  0.77164  0.89155  0.44432  1.0000
  C   C1398     1.0  0.97632  0.60330  0.37099  1.0000
  C   C1399     1.0  0.84477  0.98908  0.40738  1.0000
  C   C1400     1.0  0.95831  0.77058  0.60910  1.0000
  H   H2219     1.0  0.91375  0.97914  0.45270  1.0000
  H   H2220     1.0  0.96108  0.60236  0.37548  1.0000
  H   H2221     1.0  0.94645  0.74306  0.63622  1.0000
  C   C1401     1.0  0.93959  0.79142  0.63017  1.0000
  H   H2222     1.0  0.86591  0.75257  0.37186  1.0000
  C   C1402     1.0  0.75517  0.94143  0.59824  1.0000
  H   H2223     1.0  0.96798  0.59399  0.40880  1.0000
  S   S558      1.0  0.93551  0.56819  0.65770  1.0000
  H   H2224     1.0  0.93860  0.72631  0.50142  1.0000
  C   C1403     1.0  0.96682  0.74465  0.48158  1.0000
  H   H2225     1.0  0.76803  0.90625  0.58996  1.0000
  H   H2226     1.0  0.85579  0.72465  0.62910  1.0000
  H   H2227     1.0  0.76616  0.86436  0.56948  1.0000
  H   H2228     1.0  0.86937  0.95921  0.47255  1.0000
  H   H2229     1.0  0.93834  0.63295  0.62398  1.0000
  H   H2230     1.0  0.98801  0.56630  0.36958  1.0000
  H   H2231     1.0  0.86278  0.98736  0.38086  1.0000
  C   C1404     1.0  0.84648  0.69590  0.65621  1.0000
  H   H2232     1.0  0.88317  0.76010  0.38344  1.0000
  N   N140      1.0  0.96568  0.73502  0.50137  1.0000
  H   H2233     1.0  0.87213  0.66578  0.64846  1.0000
  H   H2234     1.0  0.97524  0.70782  0.51646  1.0000
  H   H2235     1.0  0.97979  0.59974  0.35621  1.0000
  H   H2236     1.0  0.80162  0.97261  0.64651  1.0000
  H   H2237     1.0  0.83350  0.98293  0.64345  1.0000
  H   H2238     1.0  0.96976  0.56862  0.38914  1.0000
  H   H2239     1.0  0.93209  0.75866  0.65144  1.0000
  H   H2240     1.0  0.81650  0.98760  0.61575  1.0000
  C   C1405     1.0  0.99290  0.72050  0.44312  1.0000
  C   C1406     1.0  0.87901  0.70102  0.65043  1.0000
  H   H2241     1.0  0.77287  0.82063  0.57177  1.0000
  C   C1407     1.0  0.98295  0.59552  0.40340  1.0000
  N   N141      1.0  0.98801  0.59037  0.38399  1.0000
  H   H2242     1.0  0.75787  0.91382  0.64087  1.0000
  H   H2243     1.0  0.76288  0.94139  0.58363  1.0000
  H   H2244     1.0  0.76858  0.84700  0.58997  1.0000
  H   H2245     1.0  0.74914  0.94105  0.44916  1.0000
  H   H2246     1.0  0.98983  0.74598  0.50718  1.0000
  H   H2247     1.0  0.79307  0.98663  0.66546  1.0000
  C   C1408     1.0  0.97474  0.74546  0.51285  1.0000
  S   S559      1.0  0.93743  0.53874  0.33622  1.0000
  H   H2248     1.0  0.75917  0.88344  0.65849  1.0000
  C   C1409     1.0  0.98470  0.57053  0.38405  1.0000
  H   H2249     1.0  0.78737  0.99927  0.43687  1.0000
  H   H2250     1.0  0.96774  0.76037  0.51298  1.0000
  H   H2251     1.0  0.99169  0.58619  0.41351  1.0000
  H   H2252     1.0  0.99188  0.61152  0.66421  1.0000
  C   C1410     1.0  0.75210  0.92565  0.63055  1.0000
  H   H2253     1.0  0.74803  0.86433  0.58960  1.0000
  H   H2254     1.0  0.75271  0.93924  0.63590  1.0000
  H   H2255     1.0  0.74617  0.82278  0.59854  1.0000
  C   C1411     1.0  0.74591  0.84834  0.63862  1.0000
  H   H2256     1.0  0.97104  0.62816  0.68864  1.0000
  S   S560      1.0  0.77797  0.53785  0.96993  1.0000
  N   N142      1.0  0.97813  0.59781  0.69025  1.0000
  H   H2257     1.0  0.78729  0.61044  0.98766  1.0000
  Fe  Fe278     1.0  0.77263  0.55434  0.94174  1.0000
  S   S561      1.0  0.79529  0.55791  0.91632  1.0000
  Fe  Fe279     1.0  0.93306  0.54589  0.68406  1.0000
  H   H2258     1.0  0.96807  0.58141  0.82752  1.0000
  H   H2259     1.0  0.82080  0.62428  0.95992  1.0000
  S   S562      1.0  0.94378  0.54948  0.71091  1.0000
  H   H2260     1.0  0.82048  0.59210  0.93773  1.0000
  H   H2261     1.0  0.82207  0.61020  0.98280  1.0000
  N   N143      1.0  0.99022  0.55787  0.82570  1.0000
  Fe  Fe280     1.0  0.91996  0.53392  0.72597  1.0000
  S   S563      1.0  0.90087  0.53778  0.75330  1.0000
  Fe  Fe281     1.0  0.95925  0.52020  0.70865  1.0000
  S   S564      1.0  0.90778  0.53245  0.69936  1.0000
  Fe  Fe282     1.0  0.90475  0.54604  0.89089  1.0000
  S   S565      1.0  0.89545  0.54015  0.86425  1.0000
  S   S566      1.0  0.88357  0.55597  0.91541  1.0000
  Fe  Fe283     1.0  0.94588  0.52729  0.88038  1.0000
  S   S567      1.0  0.93867  0.51899  0.85380  1.0000
  S   S568      1.0  0.97614  0.51543  0.88466  1.0000
  Fe  Fe284     1.0  0.92335  0.54853  0.84983  1.0000
  S   S569      1.0  0.93175  0.56459  0.82111  1.0000
  C   C1412     1.0  0.96152  0.59546  0.68172  1.0000
  H   H2262     1.0  0.94895  0.59415  0.69258  1.0000
  S   S570      1.0  0.93149  0.55735  0.87586  1.0000
  S   S571      1.0  0.92019  0.51673  0.89789  1.0000
  C   C1413     1.0  0.91056  0.54416  0.77203  1.0000
  C   C1414     1.0  0.90215  0.53961  0.79074  1.0000
  C   C1415     1.0  0.90898  0.54533  0.80591  1.0000
  C   C1416     1.0  0.92392  0.55613  0.80238  1.0000
  C   C1417     1.0  0.93246  0.56056  0.78368  1.0000
  C   C1418     1.0  0.92596  0.55436  0.76854  1.0000
  H   H2263     1.0  0.89021  0.53178  0.79352  1.0000
  H   H2264     1.0  0.90230  0.54188  0.82027  1.0000
  H   H2265     1.0  0.94400  0.56894  0.78088  1.0000
  H   H2266     1.0  0.93244  0.55800  0.75413  1.0000
  C   C1419     1.0  0.81972  0.55745  0.91659  1.0000
  C   C1420     1.0  0.82778  0.55400  0.93348  1.0000
  C   C1421     1.0  0.84731  0.55390  0.93297  1.0000
  C   C1422     1.0  0.85901  0.55671  0.91556  1.0000
  C   C1423     1.0  0.85094  0.55993  0.89871  1.0000
  C   C1424     1.0  0.83140  0.56044  0.89924  1.0000
  H   H2267     1.0  0.81898  0.55126  0.94688  1.0000
  H   H2268     1.0  0.85345  0.55128  0.94608  1.0000
  H   H2269     1.0  0.85972  0.56232  0.88522  1.0000
  H   H2270     1.0  0.82530  0.56316  0.88609  1.0000
  H   H2271     1.0  0.98623  0.53132  0.84344  1.0000
  Fe  Fe285     1.0  0.75124  0.52594  0.96904  1.0000
  C   C1425     1.0  0.85063  0.50784  0.89256  1.0000
  H   H2272     1.0  0.84873  0.52345  0.89287  1.0000
  H   H2273     1.0  0.86291  0.50465  0.88172  1.0000
  H   H2274     1.0  0.83581  0.60191  0.96200  1.0000
  H   H2275     1.0  0.83801  0.50440  0.88745  1.0000
  H   H2276     1.0  0.78617  0.62499  0.96496  1.0000
  S   S572      1.0  0.95048  0.51721  0.68090  1.0000
  H   H2277     1.0  0.96403  0.58238  0.67461  1.0000
  H   H2278     1.0  0.99536  0.58193  0.71074  1.0000
  C   C1426     1.0  0.78823  0.61007  0.97211  1.0000
  H   H2279     1.0  0.84900  0.68547  0.66905  1.0000
  H   H2280     1.0  0.91185  0.59392  0.68240  1.0000
  Fe  Fe286     1.0  0.91185  0.51145  0.87071  1.0000
  C   C1427     1.0  0.82194  0.60946  0.96746  1.0000
  H   H2281     1.0  0.96827  0.55071  0.84814  1.0000
  Fe  Fe287     1.0  0.75865  0.56169  0.98222  1.0000
  C   C1428     1.0  0.80847  0.58005  0.97482  1.0000
  N   N144      1.0  0.80632  0.59964  0.96461  1.0000
  C   C1429     1.0  0.80666  0.59897  0.94410  1.0000
  H   H2282     1.0  0.79572  0.59072  0.94143  1.0000
  H   H2283     1.0  0.86880  0.51797  0.91845  1.0000
  H   H2284     1.0  0.96900  0.53958  0.82737  1.0000
  S   S573      1.0  0.98827  0.51142  0.71614  1.0000
  H   H2285     1.0  0.82218  0.57189  0.96992  1.0000
  C   C1430     1.0  0.97429  0.61543  0.69921  1.0000
  S   S574      1.0  0.74713  0.54065  0.93983  1.0000
  S   S575      1.0  0.93672  0.50512  0.72609  1.0000
  H   H2286     1.0  0.77614  0.60312  0.97003  1.0000
  H   H2287     1.0  0.80411  0.61347  0.93607  1.0000
  H   H2288     1.0  0.97851  0.55498  0.88914  1.0000
  C   C1431     1.0  0.98224  0.58129  0.70475  1.0000
  H   H2289     1.0  0.79711  0.57211  0.97268  1.0000
  S   S576      1.0  0.75498  0.57920  0.95398  1.0000
  H   H2290     1.0  0.95786  0.60773  0.67081  1.0000
  H   H2291     1.0  0.96201  0.61498  0.71054  1.0000
  H   H2292     1.0  0.99068  0.52914  0.67717  1.0000
  H   H2293     1.0  0.88411  0.51118  0.73986  1.0000
  H   H2294     1.0  0.97056  0.58036  0.71668  1.0000
  H   H2295     1.0  0.90422  0.62920  0.67835  1.0000
  H   H2296     1.0  0.80766  0.58002  0.99043  1.0000
  C   C1432     1.0  0.97850  0.57454  0.81675  1.0000
  Fe  Fe288     1.0  0.92625  0.50421  0.69869  1.0000
  H   H2297     1.0  0.97027  0.57037  0.80654  1.0000
  H   H2298     1.0  0.83432  0.51737  0.92635  1.0000
  H   H2299     1.0  0.98660  0.61761  0.70578  1.0000
  C   C1433     1.0  0.97794  0.54424  0.83661  1.0000
  H   H2300     1.0  0.98718  0.58546  0.80886  1.0000
  H   H2301     1.0  0.98414  0.56773  0.69862  1.0000
  C   C1434     1.0  0.91768  0.60236  0.66969  1.0000
  H   H2302     1.0  0.87928  0.50681  0.77516  1.0000
  C   C1435     1.0  0.87025  0.50246  0.91765  1.0000
  H   H2303     1.0  0.99211  0.57128  0.84995  1.0000
  C   C1436     1.0  0.99440  0.59905  0.67524  1.0000
  C   C1437     1.0  0.99261  0.54754  0.88678  1.0000
  C   C1438     1.0  0.91340  0.62238  0.66735  1.0000
  C   C1439     1.0  0.83678  0.50189  0.92524  1.0000
  C   C1440     1.0  0.99526  0.52835  0.88413  1.0000
  H   H2304     1.0  0.99503  0.54358  0.80091  1.0000
