data_image0
_chemical_formula_structural       H5C2SC3NHNH3CHSHSHSFeHFeSHSFeSFe2S2FeS2FeS2FeSFeHS2FeS2FeS2FeSFeS3C6H4C6H4C6H10C2HC2HS2CHCHCHCHC3H2CH2C5SH3SFeH3CNCHC6H5CH2NC4H2CH3CSHSC2SHCHCH2NH2NHCH2CSH5NC3H15CH2CHCH3CS2C2HFeH3CSCHCSH2C2H4SCHCH2CH2CH3CH2FeHCHSN2C4H17FeCHC3FeC2FeHCH3CH2CS2C2HC2HSCH4SHCHSHC3HCHCFeH3CH5C2NHSH4FeHFeHSCH4CHNHCH4CFeC2H2CHCFeS2HNHCHFeSHSCHFeS2HCFeHSNH2FeCHC2HC2HCHCH8SC5H4NH3C2H8C3H5CH2CH3CFeSCHCNH2SCH4CH2SCSC3SCFeS2FeS2FeSHSFeS2FeSHFeS2FeSFeS3H2SFeSFeCS2H3CSH4SNHC3SCS2CH4C2HSHC6H5CSC6H5C6H4C6H5C5H3C6H5C4SH2C2HNCNHSHCHCH5CHFeHCH2CHC2NH2C2H3CNHCH2CSHC2NH2CFeH4SCH2SFeHC2HSH2SH4CH3C3HCH4CNC4H13CH4CH2SNC4H17CNHCHCHNH2SH2CFeCHCH2CFe2C3H4CHCH2CH2C2NHFeHSCH2C2H4SCHNCH3CSH2SHFeS2FeHFeS2H2FeSFeHSFeS2FeSFeNS2HFeSFeHSH3CNHCSHFeSC6H4CH2CH4SHC6H4C2H3SC2SHC6H4C2HCHSC2H3CHC3HCHSHSH4C2HS2HCSNCH2C3H2SH4C2HCSFeC2HSH2FeCHSH6CHFeH5CH3FeH2CHFeC2FeCH2C3SHC4HSC3H2C3H4CSH3NHCHCH2CHCS2HNSH2SCH6CH2CSHSHC4HCSCHCHCHFeHCHCNC2H7NC4H2SH10CH2CHC2HCN2C3H9FeCFeHCHSH3CSHFeCFeH3FeHC2SC2S2CNC4H2C3S2H2NSH2FeSHCH2CH3C2H3S2HC2H3SC2HFeSCFeS2FeSFeHSHCHFeHCH2SH4SHNFeS2FeS2FeSFeS2FeS2FeS2FeSFeS3FeSHFeS2FeSFeS3C6H4C4HC6H5C6H16C2HCH3SC6H4SNH9C2HCNC4H12CSH3CHCHCH2FeC4HC2NC4HCH4CH2CHC2H2SC2HC2SNH2FeHNC2NC4H13C4HCH3CHS2C3H4C2H7C2H2CH2S2HCH6NHCH2SHCNHCH5C2SCHCHCH3CHCH9CHC3NCH3CHCH4NHSH4CHC2H3C2HCH4CH2SCFeS2FeSFeHS2C3H4NC2FeS2FeS2FeSFeS3FeHSHSH3NHCH2CH3CHCHCH3CH2CNHCSCHCH3CHC6H5CHC2HSHFeH3CH5C2H5CNC4HC2HC2HCHCH8CHCH2C4H2FeH3CH2CH2CHCHNHCH6CHC2NH2CHCH2CH5CH3CSCNC2HSHCSHFeHCH4CH2SC2H2CH2CH2C3HSHCH3NHS2FeS2FeS2FeSFeS4CHFeHSHSNH2CSHSHS2HSH3CHCHSH6C2FeH3CH3FeSH5FeCHC2HCFeHC2H2SC6H4C2H2CH2SCHCFeC2H2C6H4C6H7FeCS2FeH3SFeC3HC2H5C2NCHNC4H12NC3HC3H5CHNHCFeH4C3HCHC2H2NH4CH2CHSCH3SHSHCH2CH6CH5CH3CNFe2SFeS2Fe2S3H5FeHSH3CHCSHCHC3H2SHCHC4SHSFeSHCHCHSH5C3HC3H2CH2CHNCSHCH3CFeH3CH2FeH4C3SCH4C3SC2H2SH2C4NH6C5SNHCHC2HFe2H6C2H3C2H2SCSFeSC2H2CHFeSCFeS2FeSFeS3HSHNH2SCFeSH2CFeS2FeS2FeSFeCS2FeSCFeS2FeSFeS3H2C2H2CNHSH2CH3C6H6C2H3C6H4SCH2NSH3FeH3CH3SC9H4C2H3CH2CH2CHS2C5H6C2H6C3HC2HSH6C2H3FeNC5H9CHNC4H14CH2C2H2CH3CNH2FeHC3H2S2H5NHC2H3NHSH2C2NH3C2H2CHFeCHC2H3CNHCHSCNCH2SCHCHCH3CH5C2SCH8FeH3CH2CH2SH2NH3CH2CH3SHCH2CH3CHC2H2CH4NH6CSC3H2SH2SHFeSHFeSFeSFeS3HCH2C2SCH2SFeSH4CH3NH5CH2NH2CHC6H5CSH2CHC6H5FeHCH2C2H3CHCH3CH2CHNCHCSHCH2C3H3CSFeH2CH4SC3H3SHSH2SH4Fe2S2FeS2FeHFeS3FeS2C2NHSCFeSCFeSHFeSFeS3H2C2HC2H2C6H4C6H4C6H4C6H6CHCH2SC2SHFeCHNCH2SH3CHCH2SHCH2CFeHC2H3C2HSH3C2HCNC4H18NHCH3FeC2H2NH2C2S2CHC2HSH2CHC2H3C2HCH2C3H2SCFeSFeSH6Fe2S2FeCSHCH3FeSH2SC2SHCH2FeS2FeS2FeSFeS3HFeS2FeSFeS2CSH2S2FeSH4FeSH4C8H4C2H2CHSH3C6H5CHCH2C7HCH5CHSCH4CHCHC3H4FeH2C6H5C8H2NCHCSCH5CH3SH2C2H2SHNFeNHFeSCSH2SH2CH2NC2S2NH4NC4H11FeHNHC2H2FeCHNCFe2HFe2H4CSH3CH3CH2SCNC4H4CH2C2H3NC3H9CSCH4CSH4S2HC4HCH2C4H2SH3CH8NHS2HCH2S2HSCSFeS2CSHFeSFeS3FeS2CHFeHNSFeHSFeS2H2SHS2FeS2HCFeSHSC2SCH4NCH3NH3FeHC2HCHSC6H4C6H4CH4CH2C6H3C7H4C6H7CHCFeHFeSNHCH2FeCH2C2HNHC3HCHSH4C4HFeH2SH4CFeHCH5FeCNSH3SH6FeHCH2C2H5CH4SFeS2FeSFeSFeS3FeCSNFeS2HFeCS2HFeS2FeS2FeSFeS3HSC2HSC5H2C6H5C6HSH2C2HC2H2C6H4C6H6CSFeH5SH2CH4CFeCSCSH5CH2CH2NH4CHCHSCHSHC2HNSHNC4H14CNH2SHCFeH4CHCHSH2C2HCH2CNCH2CH2CSHNCH3FeC3H2CHSCHC2HSH4FeHCFeC2NHCH2SH2C3H2SCH5CH4CH5SH4C2HC2H6C2H4SFeSFeSHCFeS2FeS2FeSFeS3FeS2H4FeSCSC2SFeS2NCSHC3H3C5HC6HC2H3C6H4C6H4C6H8FeCHCH2NHCHCH3C2HCSH2CH2CHFeHC2HCHFeHSH3NFeH2CFeCSHCSCH4CH2SH8NH4CHCNCHFeHCHCH3C2SFeH2C3H2CH3S2H2CNC2H3S2HFeHCH5SC2SHFeCHNH6CFeHCFeHCSH5CH2CHSHFeCHFeS2FeHFeHS2FeS2FeS2FeSFeS5FeSFeS2FeS2FeSFeS3HCHSCH2CHCHC6HCH2C6H2SHC6H4FeC6H4C3HC2H2CHC2SC3H4C6H4C5H2SHSFeNHC2H3FeC4H7FeNC4H12SHSHNC4H12NCH5SH2N2C4H12FeCHSHNHS2C2H2CSHSH2SHCH2CHCHSHCNSCH2SHCH4SH2CH3C4SC3NC3HCSCHSH3C2HCHCH2CH4CH3NHC2HCH3CHFeHC3H3CH2CHCHCH5FeCH4CHCNCHCHNCH3CH2FeC2FeNH5SCNSFeC2H3CHC2FeNCHCHC2H4S2H2SH2C3HCH8SCH7SHFeC2HSCHSCH5CSC2S2FeS2FeS2FeSFeS3FeS2FeS2FeSFeS3FeS2FeS2FeSFeS3CSH2CH5C2FeCH2CHNHCH7SHCHC2HCH2C4H2C6H2C6H6C3H5C2H5NCHC6H5SC4H5C4FeH3C7H6C2H3C2SFe2H5C2H6CHSHFeH2FeC3NH2CH3FeSH3CHSH2FeHNFeCH2CSH2SHFeHCHNHC3H3SH2CHCHFeHCH2SNC4H2SHCHCSH2SHNC4HC2HFeCHSCHNC4H12NC4H10CSHNCHNC2H5CH5CHC2HC2HCH3SCH2CSC2HCFeH3CHCH3C2NH5CHSH2CSFeS2H4SHFeC2HSH3CH8CH3CFeHCNHCH2SH3CH5CH4CH2FeC2HC2H4FeHSFeS3HFeS3FeSFeSFeS2FeSH2SCHCFeSFeHS2HFeSCFeS2FeSFeS2CH2NC2HC3H4CH2CH3C2H2C6SHS2CH4SNHCFeCH5SHC6H4C2HC6H3C6H5C2NH10CHSCH7FeH2CHCH2CH3CSH2NSHCHCNH6NH2SCHSCH2CH2CHCH2CH3SCSH2CSH2CFeSH2C2HSH2FeCFeCHFeHCHS2HSFeCHCNCSH4SH3SHCHFeC3FeHCH3SH2CHFeH2CHNSFeHCH4FeH2CHC3H2CH2CHCH3C2H7SCSHSC2HFeHFeS2H2FeHCSH4CH4NFeHCH2FeS2FeS2FeSFeHS2HFeS3H2FeS2CHCFeSHSH3CHC6H4CHSH2C2H3CHCH4C2HSH2CSH2C8SH8NSH3C6H5C3HCH2FeH4CH3CNHNCHSHSCHC3H2C2H2CHCHCH3NCHCNH2CHC3H2C2HC2HN2H4CHCHCHCHSH5C2HNCH2C2SHSCH2FeCFeHCHSH4CSH2CHCHFeHFeS2HFeSHSH3FeH2S2FeS2FeSFeS2FeS2FeS2FeSFeHS2CFeS2FeS2FeSFeS3FeS2FeS2FeSFeS3FeH2CHC6H4C6H4CHC6H3C7H4C6H4C6H3C6H4SH3SC7H5C6H3SH2C2H2CHC3SC2FeCHNCH5CH2CH6CH3CHNH3NC4H12SCHFeSH4SH6CH3CFeHNC4H12NC4H12NC2HCH4CFeSH2CHCNC3HSC4H2NFeHCH2SH2C2FeHNCH8Fe2HSCH2NSH3CSHNSH2C3H3C2NH2SCSCHC3HC3H3CH2SHC2H2SHC2H6Fe2H5C5H2NHC2H5CHCH2CHCH2CH3FeH3FeCSHSH2C2SH2S2H4SFeCH3NH5CH4CHCHNH2SHC2H2FeHS2HC4HSC2SH2SH3SHSCSCFeSHFeS2FeSHFeHFeS2H2CSC2HCH2CH2FeS2CHCH14NH5SH3SH3SC6H6FeC2H2NC6H4C2H3C2HC6H2CHCH3C2HCSCHCFeHCH2CH2NHNH2CNCH2CHFeHCS2H3FeNHSH2CHNH3C2H2C4H2CFeH2CHCNH5CH4SC2SC2SHCH5NH5C2HCH2CNHCH2C2H2CH3CSHC2HFeS2H2CH2CSH2CHCH2SHCH2FeHC2H2FeCHCH2CSHCH2C4SHNH4CH2FeNH2C2H2CSH2
_chemical_formula_sum              "H3072 C1920 S768 N192 Fe384"
_cell_length_a       75.386
_cell_length_b       75.1956
_cell_length_c       75.0673
_cell_angle_alpha    74.811
_cell_angle_beta     74.8109
_cell_angle_gamma    74.8048

_space_group_name_H-M_alt    "P 1"
_space_group_IT_number       1

loop_
  _space_group_symop_operation_xyz
  'x, y, z'

loop_
  _atom_site_type_symbol
  _atom_site_label
  _atom_site_symmetry_multiplicity
  _atom_site_fract_x
  _atom_site_fract_y
  _atom_site_fract_z
  _atom_site_occupancy
  H   H1        1.0  0.99681  0.11901  0.41951  1.0000
  H   H2        1.0  0.99815  0.04790  0.46553  1.0000
  H   H3        1.0  0.02821  0.04881  0.47276  1.0000
  H   H4        1.0  0.00168  0.08455  0.43436  1.0000
  H   H5        1.0  0.99223  0.10740  0.45465  1.0000
  C   C1        1.0  0.99795  0.05373  0.47732  1.0000
  C   C2        1.0  0.01499  0.05416  0.48151  1.0000
  S   S1        1.0  0.24557  0.21814  0.63287  1.0000
  C   C3        1.0  0.30063  0.16744  0.66735  1.0000
  C   C4        1.0  0.25027  0.99289  0.58519  1.0000
  C   C5        1.0  0.29034  0.10248  0.81024  1.0000
  N   N1        1.0  0.29832  0.12042  0.71221  1.0000
  H   H6        1.0  0.29901  0.06766  0.60292  1.0000
  N   N2        1.0  0.24532  0.15839  0.82534  1.0000
  H   H7        1.0  0.21813  0.15202  0.82919  1.0000
  H   H8        1.0  0.30110  0.10429  0.69139  1.0000
  H   H9        1.0  0.25702  0.00453  0.58315  1.0000
  C   C6        1.0  0.00386  0.00546  0.55803  1.0000
  H   H10       1.0  0.14231  0.05122  0.55557  1.0000
  S   S2        1.0  0.06838  0.05387  0.53826  1.0000
  H   H11       1.0  0.05622  0.17420  0.61657  1.0000
  S   S3        1.0  0.26147  0.20235  0.83744  1.0000
  H   H12       1.0  0.19924  0.13305  0.67518  1.0000
  S   S4        1.0  0.26126  0.08459  0.76053  1.0000
  Fe  Fe1       1.0  0.28230  0.08679  0.77535  1.0000
  H   H13       1.0  0.05104  0.22073  0.82564  1.0000
  Fe  Fe2       1.0  0.25493  0.06154  0.78544  1.0000
  S   S5        1.0  0.22378  0.06494  0.79638  1.0000
  H   H14       1.0  0.01600  0.99388  0.56117  1.0000
  S   S6        1.0  0.24400  0.02314  0.63297  1.0000
  Fe  Fe3       1.0  0.29504  0.03029  0.62436  1.0000
  S   S7        1.0  0.26974  0.05128  0.63449  1.0000
  Fe  Fe4       1.0  0.25916  0.02627  0.65354  1.0000
  Fe  Fe5       1.0  0.25747  0.04598  0.61295  1.0000
  S   S8        1.0  0.24181  0.07031  0.59485  1.0000
  S   S9        1.0  0.28339  0.02683  0.60087  1.0000
  Fe  Fe6       1.0  0.13339  0.19055  0.78244  1.0000
  S   S10       1.0  0.15954  0.19576  0.78713  1.0000
  S   S11       1.0  0.10527  0.20737  0.79476  1.0000
  Fe  Fe7       1.0  0.15509  0.16619  0.75384  1.0000
  S   S12       1.0  0.18288  0.17021  0.75583  1.0000
  S   S13       1.0  0.15760  0.14636  0.73479  1.0000
  Fe  Fe8       1.0  0.17149  0.16529  0.78693  1.0000
  S   S14       1.0  0.19276  0.14969  0.80469  1.0000
  Fe  Fe9       1.0  0.16869  0.20028  0.75574  1.0000
  H   H15       1.0  0.18853  0.02466  0.58581  1.0000
  S   S15       1.0  0.14437  0.15913  0.78532  1.0000
  S   S16       1.0  0.14189  0.19705  0.75068  1.0000
  Fe  Fe10      1.0  0.14754  0.12403  0.63613  1.0000
  S   S17       1.0  0.14679  0.13700  0.60567  1.0000
  S   S18       1.0  0.16475  0.09650  0.64815  1.0000
  Fe  Fe11      1.0  0.12017  0.15727  0.65025  1.0000
  S   S19       1.0  0.11726  0.17301  0.62101  1.0000
  S   S20       1.0  0.10541  0.17082  0.67506  1.0000
  Fe  Fe12      1.0  0.11549  0.14504  0.61626  1.0000
  S   S21       1.0  0.09015  0.14304  0.60602  1.0000
  Fe  Fe13      1.0  0.14863  0.16345  0.61351  1.0000
  S   S22       1.0  0.17023  0.18130  0.59814  1.0000
  S   S23       1.0  0.11637  0.13011  0.64634  1.0000
  S   S24       1.0  0.15145  0.14968  0.64309  1.0000
  C   C7        1.0  0.14171  0.15276  0.71955  1.0000
  C   C8        1.0  0.14292  0.14082  0.70754  1.0000
  C   C9        1.0  0.13178  0.14632  0.69392  1.0000
  C   C10       1.0  0.11895  0.16359  0.69256  1.0000
  C   C11       1.0  0.11725  0.17527  0.70499  1.0000
  C   C12       1.0  0.12871  0.16994  0.71838  1.0000
  H   H16       1.0  0.15265  0.12735  0.70857  1.0000
  H   H17       1.0  0.13293  0.13706  0.68461  1.0000
  H   H18       1.0  0.10730  0.18862  0.70403  1.0000
  H   H19       1.0  0.12758  0.17918  0.72765  1.0000
  C   C13       1.0  0.22087  0.07883  0.60961  1.0000
  C   C14       1.0  0.20654  0.09210  0.60197  1.0000
  C   C15       1.0  0.18932  0.09791  0.61380  1.0000
  C   C16       1.0  0.18642  0.09033  0.63321  1.0000
  C   C17       1.0  0.20086  0.07724  0.64082  1.0000
  C   C18       1.0  0.21813  0.07167  0.62907  1.0000
  H   H20       1.0  0.20860  0.09769  0.58691  1.0000
  H   H21       1.0  0.17820  0.10788  0.60782  1.0000
  H   H22       1.0  0.19870  0.07138  0.65584  1.0000
  H   H23       1.0  0.22919  0.06170  0.63519  1.0000
  C   C19       1.0  0.21473  0.08809  0.80003  1.0000
  C   C20       1.0  0.22696  0.09926  0.79996  1.0000
  C   C21       1.0  0.22004  0.11804  0.80171  1.0000
  C   C22       1.0  0.20090  0.12599  0.80294  1.0000
  C   C23       1.0  0.18857  0.11493  0.80294  1.0000
  C   C24       1.0  0.19543  0.09586  0.80193  1.0000
  H   H24       1.0  0.24179  0.09344  0.79869  1.0000
  H   H25       1.0  0.22964  0.12647  0.80174  1.0000
  H   H26       1.0  0.17371  0.12097  0.80420  1.0000
  H   H27       1.0  0.18583  0.08723  0.80239  1.0000
  H   H28       1.0  0.23872  0.03630  0.72053  1.0000
  H   H29       1.0  0.06445  0.18594  0.66630  1.0000
  H   H30       1.0  0.99918  0.99390  0.51891  1.0000
  H   H31       1.0  0.24969  0.18627  0.81157  1.0000
  H   H32       1.0  0.27770  0.09726  0.81251  1.0000
  H   H33       1.0  0.31078  0.10663  0.73630  1.0000
  C   C25       1.0  0.19220  0.20122  0.60590  1.0000
  C   C26       1.0  0.17481  0.19569  0.61094  1.0000
  H   H34       1.0  0.20259  0.19680  0.59403  1.0000
  C   C27       1.0  0.28825  0.18306  0.67356  1.0000
  C   C28       1.0  0.29531  0.19711  0.67682  1.0000
  H   H35       1.0  0.28579  0.20916  0.68174  1.0000
  S   S25       1.0  0.26397  0.18466  0.67768  1.0000
  S   S26       1.0  0.04747  0.06147  0.58073  1.0000
  C   C29       1.0  0.13519  0.05881  0.54366  1.0000
  H   H36       1.0  0.23133  0.18146  0.76203  1.0000
  C   C30       1.0  0.99795  0.06811  0.50829  1.0000
  H   H37       1.0  0.26168  0.17140  0.74131  1.0000
  C   C31       1.0  0.30193  0.10400  0.59256  1.0000
  H   H38       1.0  0.11884  0.03061  0.56633  1.0000
  C   C32       1.0  0.11241  0.03897  0.55416  1.0000
  H   H39       1.0  0.08151  0.18885  0.64483  1.0000
  C   C33       1.0  0.28559  0.19656  0.83802  1.0000
  C   C34       1.0  0.29473  0.17754  0.84141  1.0000
  C   C35       1.0  0.13682  0.23070  0.84234  1.0000
  H   H40       1.0  0.28878  0.22519  0.83306  1.0000
  H   H41       1.0  0.12758  0.06240  0.50959  1.0000
  C   C36       1.0  0.29576  0.21051  0.83535  1.0000
  H   H42       1.0  0.28697  0.16664  0.84376  1.0000
  H   H43       1.0  0.27050  0.16951  0.81625  1.0000
  C   C37       1.0  0.14117  0.03028  0.53200  1.0000
  C   C38       1.0  0.26193  0.04860  0.71971  1.0000
  C   C39       1.0  0.08952  0.12733  0.59215  1.0000
  C   C40       1.0  0.07206  0.12406  0.59182  1.0000
  C   C41       1.0  0.07078  0.11248  0.58031  1.0000
  S   S27       1.0  0.24522  0.02741  0.68379  1.0000
  H   H44       1.0  0.05940  0.13060  0.60044  1.0000
  H   H45       1.0  0.05723  0.11023  0.58013  1.0000
  H   H46       1.0  0.20519  0.03837  0.62993  1.0000
  S   S28       1.0  0.08598  0.09086  0.55270  1.0000
  Fe  Fe14      1.0  0.21703  0.23391  0.64501  1.0000
  H   H47       1.0  0.21912  0.17635  0.81971  1.0000
  H   H48       1.0  0.30324  0.01863  0.86332  1.0000
  H   H49       1.0  0.26825  0.12834  0.71605  1.0000
  C   C42       1.0  0.29983  0.09857  0.82499  1.0000
  N   N3        1.0  0.20001  0.02970  0.60695  1.0000
  C   C43       1.0  0.30023  0.13932  0.71278  1.0000
  H   H50       1.0  0.30180  0.08634  0.65729  1.0000
  C   C44       1.0  0.09326  0.21290  0.85633  1.0000
  C   C45       1.0  0.10677  0.19773  0.85022  1.0000
  C   C46       1.0  0.11110  0.19629  0.83118  1.0000
  C   C47       1.0  0.10172  0.20990  0.81822  1.0000
  C   C48       1.0  0.08851  0.22530  0.82426  1.0000
  C   C49       1.0  0.08429  0.22681  0.84325  1.0000
  H   H51       1.0  0.11376  0.18693  0.86028  1.0000
  H   H52       1.0  0.12128  0.18434  0.82668  1.0000
  H   H53       1.0  0.28092  0.06996  0.59054  1.0000
  H   H54       1.0  0.22655  0.22454  0.72341  1.0000
  H   H55       1.0  0.12440  0.07088  0.54839  1.0000
  C   C50       1.0  0.05742  0.19869  0.80012  1.0000
  H   H56       1.0  0.15265  0.03520  0.52054  1.0000
  H   H57       1.0  0.17506  0.14016  0.67323  1.0000
  N   N4        1.0  0.24305  0.19838  0.73576  1.0000
  C   C51       1.0  0.23640  0.21170  0.71935  1.0000
  C   C52       1.0  0.25629  0.18182  0.72937  1.0000
  C   C53       1.0  0.22684  0.19226  0.74987  1.0000
  C   C54       1.0  0.25266  0.20771  0.74437  1.0000
  H   H58       1.0  0.99780  0.07368  0.52027  1.0000
  H   H59       1.0  0.29848  0.14079  0.72756  1.0000
  C   C55       1.0  0.31328  0.12016  0.78987  1.0000
  H   H60       1.0  0.18394  0.23319  0.69752  1.0000
  H   H61       1.0  0.10892  0.00274  0.51807  1.0000
  H   H62       1.0  0.28979  0.12860  0.68551  1.0000
  C   C56       1.0  0.31636  0.10503  0.82203  1.0000
  S   S29       1.0  0.23723  0.23088  0.79823  1.0000
  H   H63       1.0  0.21704  0.20429  0.75563  1.0000
  S   S30       1.0  0.08809  0.21415  0.88031  1.0000
  C   C57       1.0  0.29259  0.07629  0.59086  1.0000
  C   C58       1.0  0.30107  0.11884  0.69242  1.0000
  S   S31       1.0  0.99268  0.08290  0.58480  1.0000
  H   H64       1.0  0.11045  0.04776  0.51760  1.0000
  C   C59       1.0  0.01974  0.01473  0.52570  1.0000
  H   H65       1.0  0.25825  0.13547  0.81094  1.0000
  C   C60       1.0  0.31413  0.01466  0.85156  1.0000
  H   H66       1.0  0.29785  0.06129  0.64404  1.0000
  H   H67       1.0  0.10119  0.05063  0.55914  1.0000
  N   N5        1.0  0.00247  0.00908  0.53807  1.0000
  H   H68       1.0  0.24943  0.17459  0.72268  1.0000
  H   H69       1.0  0.26911  0.13571  0.82949  1.0000
  N   N6        1.0  0.12653  0.04622  0.53798  1.0000
  H   H70       1.0  0.23435  0.17684  0.84504  1.0000
  C   C61       1.0  0.31364  0.07931  0.64811  1.0000
  H   H71       1.0  0.24325  0.22064  0.74880  1.0000
  H   H72       1.0  0.22061  0.02959  0.58095  1.0000
  C   C62       1.0  0.18426  0.03238  0.59758  1.0000
  S   S32       1.0  0.27484  0.06507  0.80140  1.0000
  H   H73       1.0  0.17923  0.04755  0.59162  1.0000
  H   H74       1.0  0.01770  0.23172  0.79388  1.0000
  H   H75       1.0  0.28700  0.10619  0.56279  1.0000
  H   H76       1.0  0.19492  0.00365  0.62579  1.0000
  H   H77       1.0  0.21031  0.00099  0.60351  1.0000
  N   N7        1.0  0.18833  0.16298  0.67084  1.0000
  C   C63       1.0  0.20222  0.16697  0.67918  1.0000
  C   C64       1.0  0.19502  0.16556  0.65016  1.0000
  C   C65       1.0  0.17013  0.17606  0.67525  1.0000
  H   H78       1.0  0.21617  0.15742  0.67612  1.0000
  H   H79       1.0  0.20429  0.18172  0.67341  1.0000
  H   H80       1.0  0.18447  0.16369  0.64319  1.0000
  H   H81       1.0  0.20828  0.15536  0.64625  1.0000
  H   H82       1.0  0.19780  0.17991  0.64386  1.0000
  H   H83       1.0  0.16448  0.17414  0.69073  1.0000
  H   H84       1.0  0.15933  0.17389  0.66878  1.0000
  H   H85       1.0  0.17154  0.19099  0.66997  1.0000
  H   H86       1.0  0.03250  0.00369  0.52803  1.0000
  H   H87       1.0  0.05043  0.18686  0.80836  1.0000
  H   H88       1.0  0.25510  0.15980  0.84932  1.0000
  H   H89       1.0  0.31156  0.09150  0.72099  1.0000
  H   H90       1.0  0.24699  0.12853  0.83512  1.0000
  H   H91       1.0  0.18171  0.03534  0.63310  1.0000
  H   H92       1.0  0.27173  0.12210  0.57726  1.0000
  C   C66       1.0  0.25535  0.13867  0.82523  1.0000
  H   H93       1.0  0.18921  0.05559  0.61704  1.0000
  H   H94       1.0  0.31433  0.14209  0.70494  1.0000
  C   C67       1.0  0.25695  0.17126  0.81200  1.0000
  H   H95       1.0  0.03038  0.19467  0.64756  1.0000
  C   C68       1.0  0.29721  0.11308  0.79264  1.0000
  H   H96       1.0  0.14790  0.19757  0.63009  1.0000
  H   H97       1.0  0.27744  0.10347  0.72192  1.0000
  H   H98       1.0  0.11924  0.12137  0.58072  1.0000
  C   C69       1.0  0.31075  0.02090  0.83311  1.0000
  S   S33       1.0  0.30536  0.06638  0.76140  1.0000
  S   S34       1.0  0.18388  0.22369  0.74034  1.0000
  C   C70       1.0  0.06795  0.15803  0.64885  1.0000
  C   C71       1.0  0.16140  0.20159  0.62620  1.0000
  H   H99       1.0  0.15468  0.21775  0.64781  1.0000
  Fe  Fe15      1.0  0.05276  0.03845  0.56488  1.0000
  H   H100      1.0  0.05773  0.23105  0.77349  1.0000
  H   H101      1.0  0.29740  0.11897  0.59401  1.0000
  H   H102      1.0  0.06255  0.14834  0.64360  1.0000
  C   C72       1.0  0.27696  0.10698  0.57652  1.0000
  S   S35       1.0  0.06343  0.00795  0.57738  1.0000
  C   C73       1.0  0.24175  0.16200  0.84454  1.0000
  H   H103      1.0  0.08320  0.15614  0.64264  1.0000
  C   C74       1.0  0.11733  0.05682  0.52207  1.0000
  S   S36       1.0  0.02535  0.04797  0.55565  1.0000
  H   H104      1.0  0.20987  0.21607  0.61255  1.0000
  H   H105      1.0  0.01922  0.01748  0.51051  1.0000
  C   C75       1.0  0.08530  0.99937  0.56379  1.0000
  C   C76       1.0  0.06153  0.18340  0.62255  1.0000
  H   H106      1.0  0.24829  0.21631  0.70824  1.0000
  H   H107      1.0  0.23297  0.15259  0.85501  1.0000
  H   H108      1.0  0.25739  0.19829  0.75712  1.0000
  H   H109      1.0  0.05926  0.20511  0.64693  1.0000
  S   S37       1.0  0.28721  0.11538  0.77348  1.0000
  C   C77       1.0  0.02756  0.21776  0.79390  1.0000
  H   H110      1.0  0.01973  0.20684  0.80299  1.0000
  C   C78       1.0  0.01510  0.06137  0.49699  1.0000
  H   H111      1.0  0.03525  0.17571  0.66711  1.0000
  H   H112      1.0  0.32266  0.21627  0.83427  1.0000
  C   C79       1.0  0.22722  0.16167  0.81959  1.0000
  H   H113      1.0  0.10625  0.06903  0.52598  1.0000
  H   H114      1.0  0.14572  0.06480  0.53176  1.0000
  C   C80       1.0  0.05398  0.23229  0.78853  1.0000
  H   H115      1.0  0.21855  0.18619  0.74358  1.0000
  H   H116      1.0  0.18151  0.14081  0.69443  1.0000
  H   H117      1.0  0.28034  0.03926  0.66904  1.0000
  C   C81       1.0  0.06616  0.19002  0.65066  1.0000
  H   H118      1.0  0.26859  0.18603  0.71856  1.0000
  H   H119      1.0  0.23943  0.00380  0.55965  1.0000
  Fe  Fe16      1.0  0.27059  0.00396  0.62222  1.0000
  H   H120      1.0  0.25711  0.05068  0.73406  1.0000
  C   C82       1.0  0.19374  0.04018  0.62241  1.0000
  H   H121      1.0  0.21181  0.05229  0.58730  1.0000
  S   S38       1.0  0.18761  0.23089  0.64589  1.0000
  N   N8        1.0  0.05840  0.17786  0.64337  1.0000
  N   N9        1.0  0.19288  0.08984  0.74855  1.0000
  C   C83       1.0  0.18548  0.07674  0.76570  1.0000
  C   C84       1.0  0.17915  0.09645  0.73609  1.0000
  C   C85       1.0  0.21090  0.07994  0.73858  1.0000
  C   C86       1.0  0.19597  0.10619  0.75392  1.0000
  H   H122      1.0  0.18265  0.06441  0.76216  1.0000
  H   H123      1.0  0.17216  0.08383  0.77392  1.0000
  H   H124      1.0  0.19567  0.07113  0.77522  1.0000
  H   H125      1.0  0.17651  0.08454  0.73163  1.0000
  H   H126      1.0  0.16539  0.10391  0.74332  1.0000
  H   H127      1.0  0.18412  0.10657  0.72312  1.0000
  H   H128      1.0  0.21704  0.08935  0.72561  1.0000
  H   H129      1.0  0.20911  0.06752  0.73426  1.0000
  H   H130      1.0  0.22147  0.07463  0.74776  1.0000
  H   H131      1.0  0.20073  0.11679  0.74131  1.0000
  H   H132      1.0  0.20680  0.10182  0.76273  1.0000
  H   H133      1.0  0.18281  0.11356  0.76217  1.0000
  H   H134      1.0  0.12458  0.23247  0.83589  1.0000
  H   H135      1.0  0.03131  0.21543  0.77921  1.0000
  H   H136      1.0  0.19754  0.16524  0.69479  1.0000
  H   H137      1.0  0.00559  0.01819  0.56173  1.0000
  H   H138      1.0  0.03248  0.20828  0.83014  1.0000
  Fe  Fe17      1.0  0.02151  0.07268  0.56864  1.0000
  C   C87       1.0  0.18596  0.14337  0.67878  1.0000
  H   H139      1.0  0.26527  0.21206  0.73432  1.0000
  C   C88       1.0  0.25159  0.04042  0.71211  1.0000
  C   C89       1.0  0.25807  0.03730  0.69365  1.0000
  C   C90       1.0  0.20621  0.00940  0.61469  1.0000
  Fe  Fe18      1.0  0.28353  0.06226  0.74868  1.0000
  C   C91       1.0  0.27851  0.05399  0.70865  1.0000
  C   C92       1.0  0.27484  0.04233  0.68292  1.0000
  Fe  Fe19      1.0  0.29601  0.04408  0.78595  1.0000
  H   H140      1.0  0.99122  0.04464  0.58737  1.0000
  C   C93       1.0  0.28475  0.05107  0.69022  1.0000
  H   H141      1.0  0.29746  0.05522  0.68163  1.0000
  H   H142      1.0  0.29734  0.02965  0.83071  1.0000
  H   H143      1.0  0.13811  0.21668  0.85217  1.0000
  C   C94       1.0  0.10639  0.99858  0.53330  1.0000
  H   H144      1.0  0.21866  0.00667  0.62112  1.0000
  H   H145      1.0  0.06638  0.15334  0.66442  1.0000
  C   C95       1.0  0.09983  0.98803  0.57264  1.0000
  S   S39       1.0  0.29212  0.06392  0.71752  1.0000
  S   S40       1.0  0.27542  0.03847  0.77204  1.0000
  C   C96       1.0  0.21578  0.03688  0.59303  1.0000
  C   C97       1.0  0.31130  0.06514  0.64046  1.0000
  H   H146      1.0  0.30898  0.09595  0.60447  1.0000
  C   C98       1.0  0.03805  0.17986  0.65143  1.0000
  C   C99       1.0  0.08853  0.00440  0.54409  1.0000
  H   H147      1.0  0.14963  0.23024  0.83084  1.0000
  S   S41       1.0  0.32101  0.02220  0.79460  1.0000
  C   C100      1.0  0.18287  0.21805  0.63161  1.0000
  H   H148      1.0  0.02173  0.02793  0.52826  1.0000
  H   H149      1.0  0.30343  0.07474  0.57776  1.0000
  H   H150      1.0  0.06977  0.19746  0.80622  1.0000
  H   H151      1.0  0.26624  0.11228  0.61200  1.0000
  S   S42       1.0  0.28509  0.00515  0.64467  1.0000
  H   H152      1.0  0.22878  0.20517  0.71278  1.0000
  C   C101      1.0  0.27935  0.11753  0.72239  1.0000
  H   H153      1.0  0.06729  0.23170  0.79263  1.0000
  S   S43       1.0  0.03479  0.09080  0.54216  1.0000
  H   H154      1.0  0.07678  0.18198  0.61602  1.0000
  C   C102      1.0  0.31479  0.19543  0.67398  1.0000
  C   C103      1.0  0.31492  0.20543  0.83616  1.0000
  C   C104      1.0  0.19633  0.21217  0.61634  1.0000
  H   H155      1.0  0.15403  0.22985  0.86971  1.0000
  C   C105      1.0  0.10574  0.11884  0.58080  1.0000
  H   H156      1.0  0.07730  0.01292  0.53715  1.0000
  C   C106      1.0  0.03881  0.21997  0.82037  1.0000
  Fe  Fe20      1.0  0.06139  0.07789  0.55347  1.0000
  H   H157      1.0  0.29523  0.15690  0.66421  1.0000
  H   H158      1.0  0.03184  0.17079  0.64621  1.0000
  H   H159      1.0  0.27814  0.08966  0.62288  1.0000
  C   C107      1.0  0.27187  0.09742  0.61042  1.0000
  H   H160      1.0  0.15365  0.23538  0.77039  1.0000
  H   H161      1.0  0.14755  0.02102  0.54391  1.0000
  H   H162      1.0  0.10542  0.02966  0.55030  1.0000
  H   H163      1.0  0.26470  0.10135  0.57636  1.0000
  H   H164      1.0  0.11700  0.10165  0.55984  1.0000
  C   C108      1.0  0.08694  0.10439  0.56859  1.0000
  C   C109      1.0  0.10441  0.10763  0.56895  1.0000
  N   N10       1.0  0.28584  0.09619  0.59258  1.0000
  H   H165      1.0  0.22811  0.03472  0.59943  1.0000
  S   S44       1.0  0.03690  0.06182  0.50156  1.0000
  H   H166      1.0  0.13521  0.02130  0.52645  1.0000
  H   H167      1.0  0.22929  0.15925  0.80511  1.0000
  H   H168      1.0  0.31466  0.12229  0.68391  1.0000
  H   H169      1.0  0.29469  0.09007  0.83851  1.0000
  Fe  Fe21      1.0  0.25126  0.21289  0.66189  1.0000
  H   H170      1.0  0.26027  0.16869  0.79744  1.0000
  Fe  Fe22      1.0  0.04028  0.06502  0.52985  1.0000
  H   H171      1.0  0.05448  0.19825  0.61778  1.0000
  S   S45       1.0  0.22228  0.22638  0.67439  1.0000
  C   C110      1.0  0.16528  0.21305  0.63621  1.0000
  H   H172      1.0  0.25968  0.09131  0.61108  1.0000
  H   H173      1.0  0.28957  0.15058  0.70621  1.0000
  H   H174      1.0  0.06297  0.19655  0.78539  1.0000
  H   H175      1.0  0.27685  0.11833  0.73747  1.0000
  C   C111      1.0  0.31256  0.10592  0.72128  1.0000
  H   H176      1.0  0.17212  0.02708  0.60767  1.0000
  N   N11       1.0  0.04445  0.21717  0.80073  1.0000
  H   H177      1.0  0.31643  0.03016  0.70404  1.0000
  C   C112      1.0  0.31397  0.17249  0.84173  1.0000
  H   H178      1.0  0.02817  0.23325  0.82152  1.0000
  H   H179      1.0  0.31886  0.12801  0.77614  1.0000
  H   H180      1.0  0.11958  0.23177  0.87849  1.0000
  H   H181      1.0  0.99100  0.00126  0.56770  1.0000
  C   C113      1.0  0.24032  0.99241  0.57188  1.0000
  Fe  Fe23      1.0  0.24992  0.23150  0.82187  1.0000
  C   C114      1.0  0.00017  0.99176  0.53388  1.0000
  C   C115      1.0  0.32007  0.16570  0.66462  1.0000
  H   H182      1.0  0.32026  0.20625  0.67657  1.0000
  H   H183      1.0  0.32086  0.15779  0.84430  1.0000
  C   C116      1.0  0.12106  0.98763  0.54215  1.0000
  H   H184      1.0  0.31275  0.10334  0.57929  1.0000
  C   C117      1.0  0.32306  0.11579  0.80446  1.0000
  Fe  Fe24      1.0  0.04223  0.47372  0.14651  1.0000
  S   S46       1.0  0.06711  0.46413  0.12457  1.0000
  S   S47       1.0  0.01626  0.46074  0.15643  1.0000
  H   H185      1.0  0.01923  0.38394  0.14152  1.0000
  N   N12       1.0  0.20463  0.44172  0.09543  1.0000
  H   H186      1.0  0.10416  0.45457  0.03140  1.0000
  C   C118      1.0  0.13591  0.42734  0.12875  1.0000
  H   H187      1.0  0.20607  0.41746  0.11822  1.0000
  Fe  Fe25      1.0  0.08415  0.47149  0.14098  1.0000
  S   S48       1.0  0.11172  0.45387  0.14709  1.0000
  H   H188      1.0  0.29120  0.44187  0.47684  1.0000
  S   S49       1.0  0.05978  0.47820  0.16463  1.0000
  C   C119      1.0  0.17024  0.39664  0.98606  1.0000
  H   H189      1.0  0.29764  0.46825  0.45047  1.0000
  Fe  Fe26      1.0  0.17278  0.44427  0.04888  1.0000
  S   S50       1.0  0.20302  0.43880  0.03426  1.0000
  S   S51       1.0  0.16393  0.42397  0.07568  1.0000
  H   H190      1.0  0.07992  0.45044  0.06153  1.0000
  C   C120      1.0  0.99535  0.44043  0.14752  1.0000
  Fe  Fe27      1.0  0.19248  0.44655  0.00730  1.0000
  H   H191      1.0  0.15430  0.40605  0.11422  1.0000
  S   S52       1.0  0.16237  0.44906  0.02234  1.0000
  N   N13       1.0  0.10351  0.46347  0.05662  1.0000
  H   H192      1.0  0.13060  0.44577  0.05927  1.0000
  H   H193      1.0  0.00771  0.39892  0.16893  1.0000
  Fe  Fe28      1.0  0.16317  0.47923  0.01976  1.0000
  C   C121      1.0  0.14944  0.43294  0.09518  1.0000
  H   H194      1.0  0.12269  0.48059  0.05577  1.0000
  C   C122      1.0  0.12618  0.44607  0.12700  1.0000
  C   C123      1.0  0.02040  0.36112  0.17580  1.0000
  H   H195      1.0  0.21987  0.43913  0.06736  1.0000
  C   C124      1.0  0.12824  0.45837  0.10933  1.0000
  C   C125      1.0  0.14721  0.42071  0.11282  1.0000
  H   H196      1.0  0.01740  0.35820  0.19149  1.0000
  C   C126      1.0  0.01234  0.44672  0.14274  1.0000
  H   H197      1.0  0.12620  0.46734  0.17398  1.0000
  C   C127      1.0  0.11538  0.44562  0.06453  1.0000
  H   H198      1.0  0.12088  0.47294  0.10798  1.0000
  H   H199      1.0  0.20220  0.42525  0.07701  1.0000
  H   H200      1.0  0.03332  0.42652  0.10472  1.0000
  H   H201      1.0  0.12248  0.46647  0.02963  1.0000
  H   H202      1.0  0.16287  0.47659  0.98548  1.0000
  H   H203      1.0  0.21359  0.45734  0.11051  1.0000
  H   H204      1.0  0.22650  0.45746  0.08674  1.0000
  H   H205      1.0  0.03745  0.47855  0.10315  1.0000
  S   S53       1.0  0.22490  0.47440  0.04250  1.0000
  C   C128      1.0  0.02594  0.44159  0.12728  1.0000
  C   C129      1.0  0.00819  0.37538  0.14755  1.0000
  C   C130      1.0  0.02265  0.43038  0.11667  1.0000
  C   C131      1.0  0.10742  0.46615  0.03585  1.0000
  C   C132      1.0  0.17807  0.40991  0.98998  1.0000
  H   H206      1.0  0.18340  0.46660  0.09968  1.0000
  H   H207      1.0  0.17916  0.45333  0.08510  1.0000
  H   H208      1.0  0.27329  0.47631  0.44956  1.0000
  H   H209      1.0  0.18878  0.43784  0.12402  1.0000
  N   N14       1.0  0.00350  0.37184  0.16837  1.0000
  H   H210      1.0  0.11255  0.44296  0.08023  1.0000
  H   H211      1.0  0.14203  0.46146  0.07996  1.0000
  H   H212      1.0  0.99567  0.38328  0.14159  1.0000
  C   C133      1.0  0.08349  0.46273  0.06439  1.0000
  C   C134      1.0  0.14021  0.45189  0.09348  1.0000
  H   H213      1.0  0.25009  0.47675  0.06414  1.0000
  H   H214      1.0  0.23049  0.43670  0.10477  1.0000
  H   H215      1.0  0.02574  0.34733  0.17134  1.0000
  H   H216      1.0  0.18464  0.42421  0.10972  1.0000
  H   H217      1.0  0.03908  0.44616  0.12348  1.0000
  H   H218      1.0  0.07989  0.46161  0.07997  1.0000
  H   H219      1.0  0.11138  0.47321  0.19546  1.0000
  H   H220      1.0  0.10514  0.47781  0.07731  1.0000
  C   C135      1.0  0.19566  0.42979  0.11265  1.0000
  C   C136      1.0  0.21303  0.43056  0.08060  1.0000
  C   C137      1.0  0.00576  0.42406  0.12141  1.0000
  H   H221      1.0  0.22389  0.41814  0.08510  1.0000
  H   H222      1.0  0.15835  0.39179  0.99600  1.0000
  H   H223      1.0  0.17225  0.41513  0.00286  1.0000
  H   H224      1.0  0.19662  0.46747  0.07594  1.0000
  H   H225      1.0  0.13620  0.47222  0.19107  1.0000
  C   C138      1.0  0.19031  0.45800  0.08877  1.0000
  H   H226      1.0  0.26681  0.44903  0.47577  1.0000
  H   H227      1.0  0.01335  0.36204  0.14225  1.0000
  C   C139      1.0  0.21945  0.44858  0.09961  1.0000
  H   H228      1.0  0.99353  0.38799  0.19016  1.0000
  H   H229      1.0  0.13431  0.41780  0.14238  1.0000
  H   H230      1.0  0.01670  0.24195  0.99297  1.0000
  C   C140      1.0  0.12381  0.47644  0.18431  1.0000
  Fe  Fe29      1.0  0.20080  0.46975  0.03210  1.0000
  S   S54       1.0  0.17076  0.47470  0.04792  1.0000
  C   C141      1.0  0.28431  0.47723  0.45647  1.0000
  H   H231      1.0  0.07411  0.47569  0.05825  1.0000
  C   C142      1.0  0.10777  0.47938  0.06172  1.0000
  N   N15       1.0  0.27933  0.47112  0.47721  1.0000
  H   H232      1.0  0.00563  0.47585  0.10265  1.0000
  H   H233      1.0  0.03199  0.36904  0.17058  1.0000
  S   S55       1.0  0.19306  0.47720  0.00348  1.0000
  C   C143      1.0  0.99690  0.39004  0.17451  1.0000
  H   H234      1.0  0.11287  0.43332  0.06064  1.0000
  H   H235      1.0  0.09918  0.47977  0.02937  1.0000
  H   H236      1.0  0.19681  0.31639  0.98591  1.0000
  H   H237      1.0  0.99277  0.34722  0.17071  1.0000
  C   C144      1.0  0.00775  0.25234  0.98436  1.0000
  H   H238      1.0  0.24973  0.48171  0.47851  1.0000
  H   H239      1.0  0.30804  0.46463  0.48014  1.0000
  S   S56       1.0  0.32200  0.47961  0.41404  1.0000
  C   C145      1.0  0.99203  0.42916  0.13687  1.0000
  S   S57       1.0  0.00279  0.40952  0.10778  1.0000
  C   C146      1.0  0.30546  0.30191  0.52348  1.0000
  C   C147      1.0  0.99242  0.28361  0.85026  1.0000
  C   C148      1.0  0.06902  0.45150  0.85435  1.0000
  S   S58       1.0  0.00824  0.27129  0.79841  1.0000
  C   C149      1.0  0.17182  0.41497  0.91920  1.0000
  Fe  Fe30      1.0  0.03668  0.27334  0.88722  1.0000
  S   S59       1.0  0.04398  0.28736  0.90652  1.0000
  S   S60       1.0  0.00999  0.28624  0.87660  1.0000
  Fe  Fe31      1.0  0.07368  0.27976  0.89055  1.0000
  S   S61       1.0  0.09528  0.29782  0.87693  1.0000
  S   S62       1.0  0.06576  0.26855  0.86949  1.0000
  Fe  Fe32      1.0  0.06571  0.39995  0.79896  1.0000
  S   S63       1.0  0.07744  0.39387  0.82513  1.0000
  H   H240      1.0  0.16826  0.40266  0.93037  1.0000
  S   S64       1.0  0.09480  0.43194  0.80737  1.0000
  Fe  Fe33      1.0  0.10366  0.40151  0.80597  1.0000
  S   S65       1.0  0.13144  0.38395  0.81246  1.0000
  S   S66       1.0  0.09309  0.40554  0.77952  1.0000
  Fe  Fe34      1.0  0.16735  0.36590  0.93773  1.0000
  S   S67       1.0  0.14244  0.37876  0.92418  1.0000
  H   H241      1.0  0.29149  0.30836  0.53122  1.0000
  Fe  Fe35      1.0  0.18501  0.34027  0.90944  1.0000
  S   S68       1.0  0.16186  0.35129  0.89328  1.0000
  S   S69       1.0  0.20807  0.31487  0.90496  1.0000
  Fe  Fe36      1.0  0.16361  0.37941  0.89696  1.0000
  S   S70       1.0  0.15838  0.40592  0.87526  1.0000
  Fe  Fe37      1.0  0.14256  0.34968  0.92168  1.0000
  S   S71       1.0  0.11539  0.33944  0.92995  1.0000
  S   S72       1.0  0.18876  0.36873  0.91051  1.0000
  S   S73       1.0  0.16546  0.33657  0.93777  1.0000
  H   H242      1.0  0.04492  0.24650  0.78934  1.0000
  H   H243      1.0  0.15663  0.43623  0.80609  1.0000
  S   S74       1.0  0.29692  0.33454  0.59540  1.0000
  Fe  Fe38      1.0  0.24119  0.27427  0.81427  1.0000
  S   S75       1.0  0.23924  0.30238  0.82106  1.0000
  Fe  Fe39      1.0  0.25268  0.25359  0.78154  1.0000
  C   C150      1.0  0.02539  0.35185  0.84262  1.0000
  S   S76       1.0  0.22877  0.27704  0.78930  1.0000
  S   S77       1.0  0.26693  0.25295  0.80459  1.0000
  H   H244      1.0  0.17532  0.26470  0.66351  1.0000
  H   H245      1.0  0.24431  0.30350  0.95630  1.0000
  H   H246      1.0  0.30486  0.46904  0.69977  1.0000
  C   C151      1.0  0.00365  0.27277  0.95430  1.0000
  S   S78       1.0  0.22583  0.26182  0.63819  1.0000
  H   H247      1.0  0.17460  0.28114  0.70628  1.0000
  H   H248      1.0  0.12523  0.47653  0.78089  1.0000
  H   H249      1.0  0.20699  0.29041  0.96785  1.0000
  H   H250      1.0  0.05694  0.33779  0.81918  1.0000
  S   S79       1.0  0.27718  0.25542  0.60364  1.0000
  N   N16       1.0  0.31845  0.29240  0.53643  1.0000
  H   H251      1.0  0.25714  0.47892  0.50018  1.0000
  C   C152      1.0  0.07532  0.46396  0.83787  1.0000
  C   C153      1.0  0.20977  0.30128  0.95478  1.0000
  C   C154      1.0  0.12188  0.47437  0.79647  1.0000
  S   S80       1.0  0.08480  0.46258  0.76122  1.0000
  C   C155      1.0  0.32107  0.30632  0.54572  1.0000
  S   S81       1.0  0.26290  0.23871  0.65661  1.0000
  S   S82       1.0  0.05356  0.43050  0.80078  1.0000
  C   C156      1.0  0.25646  0.25636  0.73454  1.0000
  H   H252      1.0  0.27397  0.44603  0.49765  1.0000
  H   H253      1.0  0.06257  0.34104  0.83965  1.0000
  H   H254      1.0  0.30784  0.46795  0.74857  1.0000
  H   H255      1.0  0.99436  0.39871  0.77373  1.0000
  C   C157      1.0  0.21888  0.33114  0.94067  1.0000
  C   C158      1.0  0.17965  0.26808  0.67514  1.0000
  H   H256      1.0  0.25581  0.29664  0.64407  1.0000
  S   S83       1.0  0.07991  0.25157  0.90974  1.0000
  H   H257      1.0  0.14275  0.26855  0.68291  1.0000
  C   C159      1.0  0.28259  0.27714  0.60252  1.0000
  C   C160      1.0  0.30141  0.27896  0.59750  1.0000
  C   C161      1.0  0.30599  0.29651  0.59516  1.0000
  C   C162      1.0  0.29174  0.31237  0.59779  1.0000
  C   C163      1.0  0.27293  0.31048  0.60311  1.0000
  C   C164      1.0  0.26835  0.29293  0.60545  1.0000
  H   H258      1.0  0.15377  0.24797  0.79770  1.0000
  H   H259      1.0  0.24489  0.31886  0.66549  1.0000
  H   H260      1.0  0.26183  0.32270  0.60515  1.0000
  H   H261      1.0  0.25379  0.29169  0.60908  1.0000
  H   H262      1.0  0.15374  0.44657  0.74874  1.0000
  C   C165      1.0  0.26124  0.48298  0.48454  1.0000
  S   S84       1.0  0.26927  0.24971  0.75254  1.0000
  C   C166      1.0  0.21581  0.31142  0.88158  1.0000
  C   C167      1.0  0.22308  0.29312  0.87826  1.0000
  C   C168      1.0  0.23000  0.29012  0.85973  1.0000
  C   C169      1.0  0.23025  0.30549  0.84447  1.0000
  C   C170      1.0  0.22304  0.32380  0.84780  1.0000
  C   C171      1.0  0.21550  0.32675  0.86626  1.0000
  H   H263      1.0  0.22343  0.28121  0.89005  1.0000
  H   H264      1.0  0.23565  0.27597  0.85732  1.0000
  H   H265      1.0  0.22339  0.33575  0.83605  1.0000
  H   H266      1.0  0.21009  0.34093  0.86870  1.0000
  H   H267      1.0  0.04409  0.30918  0.86697  1.0000
  C   C172      1.0  0.13937  0.39063  0.82933  1.0000
  C   C173      1.0  0.15525  0.37944  0.83602  1.0000
  C   C174      1.0  0.16136  0.38424  0.84995  1.0000
  C   C175      1.0  0.15185  0.40049  0.85688  1.0000
  C   C176      1.0  0.13625  0.41190  0.84991  1.0000
  C   C177      1.0  0.12989  0.40681  0.83639  1.0000
  H   H268      1.0  0.16277  0.36703  0.83052  1.0000
  H   H269      1.0  0.17358  0.37547  0.85515  1.0000
  H   H270      1.0  0.12861  0.42424  0.85557  1.0000
  H   H271      1.0  0.11745  0.41528  0.83174  1.0000
  C   C178      1.0  0.10140  0.30837  0.89218  1.0000
  C   C179      1.0  0.11696  0.31700  0.88573  1.0000
  C   C180      1.0  0.12185  0.32591  0.89749  1.0000
  C   C181      1.0  0.11099  0.32655  0.91564  1.0000
  C   C182      1.0  0.09542  0.31794  0.92204  1.0000
  C   C183      1.0  0.09072  0.30872  0.91041  1.0000
  H   H272      1.0  0.12520  0.31681  0.87163  1.0000
  H   H273      1.0  0.13379  0.33256  0.89237  1.0000
  H   H274      1.0  0.08693  0.31840  0.93605  1.0000
  H   H275      1.0  0.07872  0.30205  0.91552  1.0000
  H   H276      1.0  0.14998  0.25490  0.86742  1.0000
  C   C184      1.0  0.14989  0.48158  0.96188  1.0000
  C   C185      1.0  0.02055  0.38918  0.78342  1.0000
  C   C186      1.0  0.03448  0.37364  0.78872  1.0000
  C   C187      1.0  0.15140  0.24364  0.85971  1.0000
  C   C188      1.0  0.01710  0.35299  0.78298  1.0000
  H   H277      1.0  0.15449  0.42399  0.95261  1.0000
  H   H278      1.0  0.02164  0.40315  0.78376  1.0000
  H   H279      1.0  0.99865  0.35165  0.71219  1.0000
  C   C189      1.0  0.00861  0.27316  0.82113  1.0000
  C   C190      1.0  0.18258  0.25104  0.78808  1.0000
  C   C191      1.0  0.00504  0.38661  0.77781  1.0000
  C   C192      1.0  0.00949  0.27966  0.85601  1.0000
  C   C193      1.0  0.02603  0.27160  0.84471  1.0000
  C   C194      1.0  0.02564  0.26866  0.82713  1.0000
  H   H280      1.0  0.03922  0.26834  0.84912  1.0000
  H   H281      1.0  0.03861  0.26344  0.81798  1.0000
  H   H282      1.0  0.22278  0.34359  0.94285  1.0000
  H   H283      1.0  0.32053  0.29771  0.59153  1.0000
  H   H284      1.0  0.29674  0.28318  0.55951  1.0000
  C   C195      1.0  0.05605  0.33214  0.83457  1.0000
  C   C196      1.0  0.19323  0.39573  0.95686  1.0000
  C   C197      1.0  0.20114  0.40893  0.96084  1.0000
  C   C198      1.0  0.28083  0.31549  0.64634  1.0000
  S   S85       1.0  0.18381  0.25699  0.80876  1.0000
  H   H285      1.0  0.19944  0.39001  0.94430  1.0000
  H   H286      1.0  0.21331  0.41348  0.95116  1.0000
  C   C199      1.0  0.29415  0.47312  0.48568  1.0000
  C   C200      1.0  0.10741  0.46786  0.75416  1.0000
  H   H287      1.0  0.06486  0.31764  0.83639  1.0000
  N   N17       1.0  0.16796  0.26163  0.69373  1.0000
  C   C201      1.0  0.28642  0.28968  0.67260  1.0000
  N   N18       1.0  0.13846  0.46376  0.80450  1.0000
  H   H288      1.0  0.29467  0.46220  0.72435  1.0000
  S   S86       1.0  0.05828  0.43367  0.85339  1.0000
  H   H289      1.0  0.11551  0.25690  0.87580  1.0000
  C   C202      1.0  0.08426  0.47783  0.83864  1.0000
  H   H290      1.0  0.28531  0.32521  0.65238  1.0000
  C   C203      1.0  0.02805  0.32103  0.83693  1.0000
  H   H291      1.0  0.20625  0.33634  0.93434  1.0000
  H   H292      1.0  0.11004  0.46682  0.80168  1.0000
  H   H293      1.0  0.23034  0.32481  0.92994  1.0000
  H   H294      1.0  0.01335  0.32040  0.84462  1.0000
  H   H295      1.0  0.30317  0.29187  0.51615  1.0000
  C   C204      1.0  0.17469  0.26588  0.70867  1.0000
  H   H296      1.0  0.26070  0.24928  0.69054  1.0000
  Fe  Fe40      1.0  0.07015  0.24071  0.88958  1.0000
  H   H297      1.0  0.13897  0.26685  0.70791  1.0000
  C   C205      1.0  0.01526  0.25926  0.96531  1.0000
  H   H298      1.0  0.31247  0.26671  0.59551  1.0000
  H   H299      1.0  0.02142  0.32366  0.87314  1.0000
  C   C206      1.0  0.14343  0.47665  0.74302  1.0000
  H   H300      1.0  0.11880  0.26654  0.83309  1.0000
  C   C207      1.0  0.16619  0.24659  0.78661  1.0000
  C   C208      1.0  0.12346  0.45346  0.75463  1.0000
  N   N19       1.0  0.15807  0.43244  0.92239  1.0000
  H   H301      1.0  0.14542  0.45316  0.83192  1.0000
  H   H302      1.0  0.31767  0.44998  0.71463  1.0000
  C   C209      1.0  0.99194  0.27995  0.83306  1.0000
  C   C210      1.0  0.14481  0.44507  0.79936  1.0000
  H   H303      1.0  0.17203  0.43783  0.94150  1.0000
  H   H304      1.0  0.25959  0.31976  0.68051  1.0000
  H   H305      1.0  0.04365  0.34354  0.79172  1.0000
  C   C211      1.0  0.25580  0.31029  0.67359  1.0000
  N   N20       1.0  0.27242  0.30103  0.66124  1.0000
  H   H306      1.0  0.04232  0.33196  0.87138  1.0000
  C   C212      1.0  0.03275  0.35561  0.78817  1.0000
  H   H307      1.0  0.06626  0.44389  0.88455  1.0000
  H   H308      1.0  0.12846  0.44350  0.92432  1.0000
  C   C213      1.0  0.15805  0.43593  0.94089  1.0000
  S   S87       1.0  0.03919  0.25097  0.95568  1.0000
  H   H309      1.0  0.03622  0.30629  0.83797  1.0000
  C   C214      1.0  0.30807  0.46408  0.71414  1.0000
  C   C215      1.0  0.25436  0.25440  0.70336  1.0000
  N   N21       1.0  0.21522  0.31728  0.95851  1.0000
  H   H310      1.0  0.19683  0.30599  0.94885  1.0000
  H   H311      1.0  0.27865  0.24155  0.71575  1.0000
  C   C216      1.0  0.08048  0.46715  0.87246  1.0000
  Fe  Fe41      1.0  0.06788  0.42470  0.82518  1.0000
  H   H312      1.0  0.08263  0.46822  0.88580  1.0000
  H   H313      1.0  0.16589  0.26168  0.72288  1.0000
  H   H314      1.0  0.99384  0.38662  0.70568  1.0000
  H   H315      1.0  0.04338  0.47894  0.89313  1.0000
  S   S88       1.0  0.22375  0.27214  0.68733  1.0000
  C   C217      1.0  0.31049  0.27737  0.55087  1.0000
  H   H316      1.0  0.29343  0.30900  0.63676  1.0000
  H   H317      1.0  0.10495  0.24694  0.86295  1.0000
  S   S89       1.0  0.04016  0.24445  0.90560  1.0000
  Fe  Fe42      1.0  0.23322  0.25282  0.66674  1.0000
  H   H318      1.0  0.07293  0.46320  0.82452  1.0000
  C   C218      1.0  0.19363  0.41607  0.97743  1.0000
  C   C219      1.0  0.23627  0.26566  0.70558  1.0000
  H   H319      1.0  0.20326  0.33878  0.97497  1.0000
  S   S90       1.0  0.22522  0.25273  0.83350  1.0000
  H   H320      1.0  0.32006  0.26978  0.56075  1.0000
  H   H321      1.0  0.27074  0.32425  0.63734  1.0000
  S   S91       1.0  0.16747  0.37258  0.96552  1.0000
  H   H322      1.0  0.14662  0.28699  0.69171  1.0000
  H   H323      1.0  0.26040  0.27746  0.66329  1.0000
  H   H324      1.0  0.15290  0.46168  0.90875  1.0000
  H   H325      1.0  0.01598  0.33899  0.78277  1.0000
  C   C220      1.0  0.00313  0.36848  0.77775  1.0000
  H   H326      1.0  0.29114  0.46821  0.50129  1.0000
  H   H327      1.0  0.12162  0.45365  0.83134  1.0000
  H   H328      1.0  0.02763  0.32705  0.82182  1.0000
  C   C221      1.0  0.03602  0.32397  0.86497  1.0000
  C   C222      1.0  0.19827  0.24273  0.75782  1.0000
  C   C223      1.0  0.13335  0.46132  0.82526  1.0000
  H   H329      1.0  0.00938  0.27839  0.93972  1.0000
  C   C224      1.0  0.14139  0.45784  0.74867  1.0000
  H   H330      1.0  0.18938  0.25811  0.70924  1.0000
  H   H331      1.0  0.15780  0.47649  0.78113  1.0000
  H   H332      1.0  0.16413  0.24415  0.84813  1.0000
  H   H333      1.0  0.21092  0.25361  0.77412  1.0000
  C   C225      1.0  0.08709  0.47934  0.85585  1.0000
  N   N22       1.0  0.17776  0.31678  0.82653  1.0000
  C   C226      1.0  0.17648  0.30827  0.81135  1.0000
  C   C227      1.0  0.18628  0.30190  0.84093  1.0000
  C   C228      1.0  0.15875  0.32593  0.83532  1.0000
  C   C229      1.0  0.18959  0.33101  0.81847  1.0000
  H   H334      1.0  0.17003  0.31905  0.80025  1.0000
  H   H335      1.0  0.16791  0.29723  0.81692  1.0000
  H   H336      1.0  0.19063  0.30136  0.80437  1.0000
  H   H337      1.0  0.17767  0.29099  0.84748  1.0000
  H   H338      1.0  0.20054  0.29459  0.83465  1.0000
  H   H339      1.0  0.18789  0.30781  0.85244  1.0000
  H   H340      1.0  0.15922  0.33213  0.84710  1.0000
  H   H341      1.0  0.14930  0.31570  0.84118  1.0000
  H   H342      1.0  0.15208  0.33758  0.82492  1.0000
  H   H343      1.0  0.19097  0.33762  0.82955  1.0000
  H   H344      1.0  0.18360  0.34249  0.80755  1.0000
  H   H345      1.0  0.20407  0.32460  0.81172  1.0000
  H   H346      1.0  0.12927  0.27629  0.84619  1.0000
  C   C230      1.0  0.22834  0.27236  0.72227  1.0000
  H   H347      1.0  0.01055  0.35245  0.85038  1.0000
  H   H348      1.0  0.13330  0.43714  0.80381  1.0000
  H   H349      1.0  0.30754  0.31305  0.55397  1.0000
  H   H350      1.0  0.23205  0.27258  0.74975  1.0000
  C   C231      1.0  0.32071  0.47039  0.73773  1.0000
  H   H351      1.0  0.03155  0.36090  0.84789  1.0000
  H   H352      1.0  0.29122  0.29862  0.67932  1.0000
  S   S92       1.0  0.99074  0.31468  0.75992  1.0000
  N   N23       1.0  0.09176  0.38427  0.88671  1.0000
  C   C232      1.0  0.11149  0.37999  0.88877  1.0000
  C   C233      1.0  0.08423  0.36685  0.89330  1.0000
  C   C234      1.0  0.09084  0.39200  0.86668  1.0000
  C   C235      1.0  0.08041  0.39827  0.89806  1.0000
  H   H353      1.0  0.11267  0.37403  0.90371  1.0000
  H   H354      1.0  0.11755  0.39285  0.88410  1.0000
  H   H355      1.0  0.12052  0.36955  0.88028  1.0000
  H   H356      1.0  0.06935  0.36956  0.89200  1.0000
  H   H357      1.0  0.09244  0.35598  0.88500  1.0000
  H   H358      1.0  0.08474  0.36060  0.90840  1.0000
  H   H359      1.0  0.10014  0.38235  0.85743  1.0000
  H   H360      1.0  0.09512  0.40585  0.86159  1.0000
  H   H361      1.0  0.07627  0.39442  0.86453  1.0000
  H   H362      1.0  0.08040  0.39268  0.91335  1.0000
  H   H363      1.0  0.06556  0.40229  0.89629  1.0000
  H   H364      1.0  0.08601  0.41142  0.89368  1.0000
  H   H365      1.0  0.19466  0.26120  0.67459  1.0000
  H   H366      1.0  0.16389  0.44579  0.89304  1.0000
  H   H367      1.0  0.14757  0.44880  0.94397  1.0000
  H   H368      1.0  0.13876  0.42740  0.90857  1.0000
  H   H369      1.0  0.28046  0.27877  0.68411  1.0000
  C   C236      1.0  0.23832  0.26751  0.73684  1.0000
  N   N24       1.0  0.03637  0.33227  0.84476  1.0000
  H   H370      1.0  0.12205  0.43890  0.75922  1.0000
  C   C237      1.0  0.07133  0.45333  0.87171  1.0000
  H   H371      1.0  0.13469  0.41864  0.93369  1.0000
  C   C238      1.0  0.26663  0.28862  0.65246  1.0000
  H   H372      1.0  0.17224  0.41189  0.90536  1.0000
  N   N25       1.0  0.13442  0.24603  0.85228  1.0000
  H   H373      1.0  0.21435  0.28113  0.72408  1.0000
  H   H374      1.0  0.14973  0.44637  0.78386  1.0000
  S   S93       1.0  0.05368  0.37547  0.79734  1.0000
  H   H375      1.0  0.18626  0.41602  0.91926  1.0000
  H   H376      1.0  0.17726  0.45064  0.90725  1.0000
  C   C239      1.0  0.13913  0.43040  0.92223  1.0000
  Fe  Fe43      1.0  0.21440  0.25427  0.80795  1.0000
  C   C240      1.0  0.19985  0.32634  0.97218  1.0000
  H   H377      1.0  0.29903  0.28228  0.66374  1.0000
  C   C241      1.0  0.16329  0.44834  0.90718  1.0000
  H   H378      1.0  0.24911  0.29973  0.68497  1.0000
  H   H379      1.0  0.27874  0.28152  0.64284  1.0000
  C   C242      1.0  0.17769  0.38956  0.96946  1.0000
  Fe  Fe44      1.0  0.08174  0.43562  0.78287  1.0000
  Fe  Fe45      1.0  0.04933  0.25803  0.92400  1.0000
  C   C243      1.0  0.19840  0.24968  0.77336  1.0000
  C   C244      1.0  0.16617  0.23938  0.77117  1.0000
  C   C245      1.0  0.14818  0.27147  0.69407  1.0000
  H   H380      1.0  0.12862  0.47516  0.82965  1.0000
  H   H381      1.0  0.16658  0.46670  0.80248  1.0000
  H   H382      1.0  0.17884  0.28353  0.67206  1.0000
  H   H383      1.0  0.21073  0.24123  0.74684  1.0000
  C   C246      1.0  0.13146  0.26441  0.83902  1.0000
  H   H384      1.0  0.02509  0.35838  0.82756  1.0000
  C   C247      1.0  0.26455  0.25005  0.71765  1.0000
  H   H385      1.0  0.16114  0.47190  0.95482  1.0000
  H   H386      1.0  0.23021  0.29983  0.97979  1.0000
  C   C248      1.0  0.15377  0.47432  0.79684  1.0000
  H   H387      1.0  0.30807  0.26673  0.54439  1.0000
  H   H388      1.0  0.23693  0.32211  0.96925  1.0000
  C   C249      1.0  0.11794  0.24540  0.86808  1.0000
  C   C250      1.0  0.23244  0.31037  0.96632  1.0000
  N   N26       1.0  0.31663  0.47753  0.71860  1.0000
  H   H389      1.0  0.18657  0.33156  0.96686  1.0000
  Fe  Fe46      1.0  0.25494  0.24550  0.62846  1.0000
  H   H390      1.0  0.07386  0.23854  0.84781  1.0000
  S   S94       1.0  0.16630  0.48120  0.73689  1.0000
  C   C251      1.0  0.16932  0.24110  0.69702  1.0000
  H   H391      1.0  0.14371  0.26546  0.82697  1.0000
  H   H392      1.0  0.22090  0.29439  0.94419  1.0000
  C   C252      1.0  0.15092  0.48427  0.97930  1.0000
  C   C253      1.0  0.18247  0.23670  0.75717  1.0000
  H   H393      1.0  0.08152  0.23614  0.81429  1.0000
  H   H394      1.0  0.31106  0.31340  0.51245  1.0000
  H   H395      1.0  0.16032  0.23582  0.71075  1.0000
  H   H396      1.0  0.16504  0.23727  0.68561  1.0000
  S   S95       1.0  0.20425  0.43237  0.98204  1.0000
  C   C254      1.0  0.27768  0.45116  0.48211  1.0000
  H   H397      1.0  0.28900  0.63546  0.25812  1.0000
  N   N27       1.0  0.26570  0.54802  0.19775  1.0000
  C   C255      1.0  0.32275  0.61327  0.22659  1.0000
  H   H398      1.0  0.29585  0.54131  0.19359  1.0000
  H   H399      1.0  0.13587  0.51551  0.15346  1.0000
  H   H400      1.0  0.22937  0.63426  0.27549  1.0000
  C   C256      1.0  0.22831  0.52134  0.06984  1.0000
  S   S96       1.0  0.29032  0.52772  0.42445  1.0000
  H   H401      1.0  0.04963  0.50188  0.03255  1.0000
  H   H402      1.0  0.27196  0.52160  0.05226  1.0000
  S   S97       1.0  0.28270  0.71981  0.13947  1.0000
  H   H403      1.0  0.06359  0.51511  0.22242  1.0000
  Fe  Fe47      1.0  0.28663  0.67346  0.12328  1.0000
  S   S98       1.0  0.26315  0.68256  0.14658  1.0000
  S   S99       1.0  0.29381  0.64663  0.11268  1.0000
  Fe  Fe48      1.0  0.26208  0.71140  0.12803  1.0000
  H   H404      1.0  0.05266  0.51193  0.19509  1.0000
  Fe  Fe49      1.0  0.28547  0.69004  0.15625  1.0000
  S   S100      1.0  0.28897  0.68068  0.18617  1.0000
  S   S101      1.0  0.28360  0.70164  0.10361  1.0000
  H   H405      1.0  0.02824  0.53392  0.02597  1.0000
  H   H406      1.0  0.20513  0.61343  0.39788  1.0000
  Fe  Fe50      1.0  0.24728  0.56896  0.12286  1.0000
  S   S102      1.0  0.23323  0.59639  0.13198  1.0000
  Fe  Fe51      1.0  0.13980  0.71679  0.25641  1.0000
  H   H407      1.0  0.12997  0.50508  0.19587  1.0000
  S   S103      1.0  0.08287  0.50113  0.12467  1.0000
  Fe  Fe52      1.0  0.15715  0.68015  0.24149  1.0000
  S   S104      1.0  0.18220  0.69116  0.22322  1.0000
  S   S105      1.0  0.15738  0.64921  0.24605  1.0000
  Fe  Fe53      1.0  0.18228  0.70280  0.24769  1.0000
  S   S106      1.0  0.20874  0.69578  0.25865  1.0000
  Fe  Fe54      1.0  0.16142  0.71793  0.21616  1.0000
  N   N28       1.0  0.05240  0.52238  0.00648  1.0000
  S   S107      1.0  0.15884  0.68976  0.26667  1.0000
  S   S108      1.0  0.13596  0.70600  0.23263  1.0000
  H   H408      1.0  0.18184  0.62392  0.29834  1.0000
  Fe  Fe55      1.0  0.13489  0.58083  0.20541  1.0000
  S   S109      1.0  0.13621  0.61102  0.19127  1.0000
  Fe  Fe56      1.0  0.24791  0.71235  0.34143  1.0000
  H   H409      1.0  0.22184  0.51515  0.19967  1.0000
  S   S110      1.0  0.26005  0.68132  0.34316  1.0000
  H   H410      1.0  0.04405  0.49575  0.01342  1.0000
  H   H411      1.0  0.07991  0.52359  0.00880  1.0000
  H   H412      1.0  0.10523  0.50559  0.20079  1.0000
  C   C257      1.0  0.00829  0.71265  0.44440  1.0000
  N   N29       1.0  0.31320  0.52379  0.34412  1.0000
  H   H413      1.0  0.02281  0.52624  0.00783  1.0000
  C   C258      1.0  0.30664  0.72783  0.20018  1.0000
  S   S111      1.0  0.21778  0.72778  0.34371  1.0000
  H   H414      1.0  0.15035  0.49637  0.16638  1.0000
  Fe  Fe57      1.0  0.22909  0.59808  0.33102  1.0000
  S   S112      1.0  0.21273  0.62481  0.34065  1.0000
  C   C259      1.0  0.24668  0.66732  0.33929  1.0000
  C   C260      1.0  0.25586  0.65013  0.33395  1.0000
  C   C261      1.0  0.24547  0.63744  0.33322  1.0000
  C   C262      1.0  0.22587  0.64175  0.33824  1.0000
  C   C263      1.0  0.21665  0.65922  0.34290  1.0000
  C   C264      1.0  0.22705  0.67206  0.34331  1.0000
  H   H415      1.0  0.27106  0.64644  0.33084  1.0000
  H   H416      1.0  0.25268  0.62403  0.32949  1.0000
  H   H417      1.0  0.20147  0.66262  0.34675  1.0000
  H   H418      1.0  0.21990  0.68524  0.34755  1.0000
  C   C265      1.0  0.21125  0.71394  0.26769  1.0000
  H   H419      1.0  0.00389  0.52200  0.05479  1.0000
  H   H420      1.0  0.27354  0.53204  0.07043  1.0000
  C   C266      1.0  0.21663  0.72241  0.15910  1.0000
  H   H421      1.0  0.29421  0.51800  0.05878  1.0000
  H   H422      1.0  0.25215  0.50171  0.07919  1.0000
  H   H423      1.0  0.04405  0.71670  0.46240  1.0000
  H   H424      1.0  0.12204  0.57343  0.29478  1.0000
  S   S113      1.0  0.25114  0.50848  0.16710  1.0000
  H   H425      1.0  0.00815  0.52655  0.10743  1.0000
  C   C267      1.0  0.15357  0.63976  0.22865  1.0000
  C   C268      1.0  0.16026  0.62046  0.22920  1.0000
  C   C269      1.0  0.15511  0.61166  0.21760  1.0000
  C   C270      1.0  0.14372  0.62224  0.20491  1.0000
  C   C271      1.0  0.13799  0.64181  0.20347  1.0000
  C   C272      1.0  0.14272  0.65056  0.21552  1.0000
  H   H426      1.0  0.16916  0.61215  0.23892  1.0000
  H   H427      1.0  0.15984  0.59664  0.21862  1.0000
  H   H428      1.0  0.12914  0.65004  0.19367  1.0000
  H   H429      1.0  0.13732  0.66545  0.21516  1.0000
  C   C273      1.0  0.22146  0.72392  0.29089  1.0000
  C   C274      1.0  0.21892  0.50779  0.15779  1.0000
  H   H430      1.0  0.28429  0.53848  0.34743  1.0000
  H   H431      1.0  0.06119  0.53114  0.02734  1.0000
  H   H432      1.0  0.04677  0.72930  0.39067  1.0000
  S   S114      1.0  0.30911  0.67848  0.13461  1.0000
  C   C275      1.0  0.01223  0.48643  0.09218  1.0000
  C   C276      1.0  0.03286  0.53299  0.01089  1.0000
  S   S115      1.0  0.05437  0.53474  0.15693  1.0000
  H   H433      1.0  0.20937  0.67327  0.14524  1.0000
  C   C277      1.0  0.27668  0.63294  0.11862  1.0000
  C   C278      1.0  0.25823  0.63939  0.12775  1.0000
  C   C279      1.0  0.24483  0.62813  0.13192  1.0000
  C   C280      1.0  0.24992  0.61045  0.12701  1.0000
  C   C281      1.0  0.26840  0.60400  0.11806  1.0000
  C   C282      1.0  0.28173  0.61523  0.11385  1.0000
  H   H434      1.0  0.25425  0.65311  0.13132  1.0000
  H   H435      1.0  0.23053  0.63317  0.13876  1.0000
  H   H436      1.0  0.27247  0.59043  0.11416  1.0000
  H   H437      1.0  0.29596  0.61021  0.10676  1.0000
  C   C283      1.0  0.29486  0.69877  0.19257  1.0000
  C   C284      1.0  0.18271  0.73253  0.16906  1.0000
  H   H438      1.0  0.30691  0.64520  0.20597  1.0000
  C   C285      1.0  0.29371  0.52607  0.34203  1.0000
  H   H439      1.0  0.07542  0.55955  0.16104  1.0000
  S   S116      1.0  0.15294  0.54456  0.26668  1.0000
  C   C286      1.0  0.29180  0.73207  0.19082  1.0000
  C   C287      1.0  0.06651  0.52459  0.20892  1.0000
  H   H440      1.0  0.22775  0.50431  0.14475  1.0000
  H   H441      1.0  0.10126  0.51670  0.15939  1.0000
  H   H442      1.0  0.09138  0.49864  0.17700  1.0000
  C   C288      1.0  0.06775  0.72167  0.31308  1.0000
  H   H443      1.0  0.06454  0.69853  0.29281  1.0000
  C   C289      1.0  0.11696  0.61324  0.26057  1.0000
  C   C290      1.0  0.28324  0.57547  0.26670  1.0000
  C   C291      1.0  0.26738  0.54532  0.39929  1.0000
  H   H444      1.0  0.26776  0.55822  0.40287  1.0000
  C   C292      1.0  0.10421  0.50151  0.16634  1.0000
  H   H445      1.0  0.28683  0.53901  0.17454  1.0000
  S   S117      1.0  0.30618  0.56580  0.21436  1.0000
  H   H446      1.0  0.12231  0.57563  0.27051  1.0000
  S   S118      1.0  0.21390  0.57516  0.33371  1.0000
  H   H447      1.0  0.12258  0.60628  0.24824  1.0000
  H   H448      1.0  0.26949  0.57239  0.03019  1.0000
  H   H449      1.0  0.12176  0.62683  0.25652  1.0000
  H   H450      1.0  0.29153  0.55778  0.06227  1.0000
  C   C293      1.0  0.21221  0.50956  0.05223  1.0000
  C   C294      1.0  0.02516  0.70758  0.45093  1.0000
  H   H451      1.0  0.18713  0.52194  0.20379  1.0000
  S   S119      1.0  0.99185  0.55887  0.99667  1.0000
  S   S120      1.0  0.24359  0.52961  0.36463  1.0000
  H   H452      1.0  0.19194  0.65388  0.31276  1.0000
  C   C295      1.0  0.07979  0.55109  0.18960  1.0000
  S   S121      1.0  0.12503  0.56232  0.19260  1.0000
  N   N30       1.0  0.12077  0.49662  0.17507  1.0000
  C   C296      1.0  0.27736  0.52808  0.40789  1.0000
  H   H453      1.0  0.28533  0.52166  0.19614  1.0000
  H   H454      1.0  0.17486  0.60141  0.16772  1.0000
  C   C297      1.0  0.29780  0.55383  0.04833  1.0000
  C   C298      1.0  0.07321  0.54954  0.17429  1.0000
  C   C299      1.0  0.06355  0.53534  0.17610  1.0000
  H   H455      1.0  0.19315  0.51068  0.14901  1.0000
  H   H456      1.0  0.27609  0.57332  0.19265  1.0000
  S   S122      1.0  0.24228  0.59880  0.30063  1.0000
  H   H457      1.0  0.14968  0.58741  0.28617  1.0000
  H   H458      1.0  0.25705  0.55337  0.03699  1.0000
  H   H459      1.0  0.20391  0.57989  0.24459  1.0000
  H   H460      1.0  0.06289  0.73267  0.32170  1.0000
  C   C300      1.0  0.19937  0.51140  0.16019  1.0000
  C   C301      1.0  0.20022  0.72313  0.17349  1.0000
  H   H461      1.0  0.20038  0.62018  0.31058  1.0000
  C   C302      1.0  0.11691  0.58321  0.28236  1.0000
  S   S123      1.0  0.11761  0.57202  0.23426  1.0000
  Fe  Fe58      1.0  0.14388  0.55029  0.23875  1.0000
  C   C303      1.0  0.11578  0.61090  0.29357  1.0000
  C   C304      1.0  0.19616  0.57139  0.25649  1.0000
  H   H462      1.0  0.31306  0.65456  0.24126  1.0000
  S   S124      1.0  0.25434  0.57887  0.34119  1.0000
  H   H463      1.0  0.30453  0.53330  0.37037  1.0000
  H   H464      1.0  0.24325  0.63911  0.37277  1.0000
  Fe  Fe59      1.0  0.06320  0.49468  0.11062  1.0000
  C   C305      1.0  0.23975  0.48983  0.06324  1.0000
  H   H465      1.0  0.06816  0.49420  0.01382  1.0000
  S   S125      1.0  0.08348  0.54101  0.22684  1.0000
  H   H466      1.0  0.08690  0.56230  0.18809  1.0000
  H   H467      1.0  0.11496  0.52350  0.18283  1.0000
  H   H468      1.0  0.22778  0.72037  0.30307  1.0000
  H   H469      1.0  0.11042  0.51672  0.98725  1.0000
  H   H470      1.0  0.10624  0.49312  0.15548  1.0000
  H   H471      1.0  0.15026  0.59026  0.26162  1.0000
  C   C306      1.0  0.25077  0.54182  0.19299  1.0000
  H   H472      1.0  0.19316  0.55449  0.30363  1.0000
  Fe  Fe60      1.0  0.11048  0.55114  0.22180  1.0000
  H   H473      1.0  0.12052  0.60212  0.30659  1.0000
  H   H474      1.0  0.03112  0.54772  0.00249  1.0000
  H   H475      1.0  0.10014  0.61410  0.29678  1.0000
  H   H476      1.0  0.27461  0.72079  0.17954  1.0000
  H   H477      1.0  0.20113  0.51188  0.04467  1.0000
  C   C307      1.0  0.19010  0.55717  0.28975  1.0000
  H   H478      1.0  0.03411  0.69386  0.45010  1.0000
  H   H479      1.0  0.20114  0.71664  0.18797  1.0000
  H   H480      1.0  0.26522  0.49904  0.38709  1.0000
  Fe  Fe61      1.0  0.14996  0.54075  0.20030  1.0000
  H   H481      1.0  0.15677  0.57774  0.17084  1.0000
  H   H482      1.0  0.29514  0.72955  0.26788  1.0000
  C   C308      1.0  0.14415  0.59712  0.27394  1.0000
  H   H483      1.0  0.09886  0.49306  0.05621  1.0000
  Fe  Fe62      1.0  0.31753  0.50614  0.42428  1.0000
  C   C309      1.0  0.20026  0.56808  0.27444  1.0000
  C   C310      1.0  0.26591  0.51200  0.39037  1.0000
  Fe  Fe63      1.0  0.22878  0.57454  0.30356  1.0000
  C   C311      1.0  0.26720  0.55938  0.04090  1.0000
  H   H484      1.0  0.25228  0.54410  0.17745  1.0000
  H   H485      1.0  0.29292  0.52828  0.32698  1.0000
  C   C312      1.0  0.03839  0.72810  0.30295  1.0000
  C   C313      1.0  0.17590  0.54970  0.28709  1.0000
  C   C314      1.0  0.24477  0.63096  0.38715  1.0000
  S   S126      1.0  0.13514  0.52854  0.22903  1.0000
  H   H486      1.0  0.23998  0.64124  0.39661  1.0000
  C   C315      1.0  0.03879  0.50180  0.07926  1.0000
  C   C316      1.0  0.13751  0.50029  0.16033  1.0000
  C   C317      1.0  0.05802  0.52269  0.98601  1.0000
  C   C318      1.0  0.22535  0.49251  0.05347  1.0000
  H   H487      1.0  0.08331  0.71963  0.30871  1.0000
  S   S127      1.0  0.23130  0.54636  0.12786  1.0000
  C   C319      1.0  0.24102  0.50401  0.07170  1.0000
  C   C320      1.0  0.28601  0.71751  0.18688  1.0000
  C   C321      1.0  0.28541  0.57313  0.24829  1.0000
  H   H488      1.0  0.12049  0.62447  0.29036  1.0000
  H   H489      1.0  0.30885  0.55409  0.12987  1.0000
  C   C322      1.0  0.11758  0.50817  0.18926  1.0000
  C   C323      1.0  0.32043  0.54082  0.33330  1.0000
  C   C324      1.0  0.16259  0.57691  0.15582  1.0000
  H   H490      1.0  0.26206  0.49814  0.48082  1.0000
  H   H491      1.0  0.17997  0.64905  0.26972  1.0000
  H   H492      1.0  0.28378  0.49802  0.41030  1.0000
  H   H493      1.0  0.99914  0.49920  0.13045  1.0000
  C   C325      1.0  0.03076  0.72043  0.45799  1.0000
  S   S128      1.0  0.13806  0.50002  0.01049  1.0000
  H   H494      1.0  0.30834  0.50827  0.37279  1.0000
  H   H495      1.0  0.24910  0.55319  0.22472  1.0000
  H   H496      1.0  0.10131  0.58554  0.28545  1.0000
  N   N31       1.0  0.05886  0.72700  0.29653  1.0000
  H   H497      1.0  0.22512  0.69496  0.28927  1.0000
  C   C326      1.0  0.29404  0.54045  0.02394  1.0000
  H   H498      1.0  0.28916  0.63194  0.21840  1.0000
  C   C327      1.0  0.29896  0.57187  0.27472  1.0000
  H   H499      1.0  0.23653  0.54954  0.19875  1.0000
  H   H500      1.0  0.03567  0.52500  0.05578  1.0000
  C   C328      1.0  0.25629  0.52926  0.38145  1.0000
  H   H501      1.0  0.25127  0.52648  0.19873  1.0000
  C   C329      1.0  0.26288  0.54496  0.21850  1.0000
  S   S129      1.0  0.21785  0.57830  0.27697  1.0000
  S   S130      1.0  0.16372  0.52374  0.17814  1.0000
  H   H502      1.0  0.25116  0.57701  0.19476  1.0000
  N   N32       1.0  0.28504  0.54556  0.04243  1.0000
  S   S131      1.0  0.26122  0.56556  0.09340  1.0000
  H   H503      1.0  0.26938  0.58032  0.27449  1.0000
  H   H504      1.0  0.22445  0.64008  0.29838  1.0000
  S   S132      1.0  0.06096  0.50436  0.08022  1.0000
  C   C330      1.0  0.02931  0.51395  0.06558  1.0000
  H   H505      1.0  0.17902  0.56655  0.23994  1.0000
  H   H506      1.0  0.16803  0.54134  0.29901  1.0000
  H   H507      1.0  0.20541  0.61395  0.28802  1.0000
  H   H508      1.0  0.22288  0.65839  0.27775  1.0000
  H   H509      1.0  0.19058  0.67191  0.29180  1.0000
  H   H510      1.0  0.30111  0.56677  0.03805  1.0000
  C   C331      1.0  0.31887  0.56221  0.24640  1.0000
  H   H511      1.0  0.30746  0.52992  0.02467  1.0000
  H   H512      1.0  0.02374  0.71935  0.37912  1.0000
  C   C332      1.0  0.21387  0.52398  0.06013  1.0000
  S   S133      1.0  0.00139  0.69652  0.43551  1.0000
  H   H513      1.0  0.18500  0.64335  0.18778  1.0000
  S   S134      1.0  0.23070  0.54059  0.07798  1.0000
  H   H514      1.0  0.06083  0.71632  0.27201  1.0000
  C   C333      1.0  0.32192  0.64197  0.23579  1.0000
  C   C334      1.0  0.06501  0.53118  0.01195  1.0000
  C   C335      1.0  0.30916  0.69451  0.20263  1.0000
  C   C336      1.0  0.18794  0.51685  0.17660  1.0000
  H   H515      1.0  0.14009  0.49213  0.14915  1.0000
  C   C337      1.0  0.21383  0.62436  0.39324  1.0000
  S   S135      1.0  0.31417  0.54463  0.09274  1.0000
  C   C338      1.0  0.01125  0.51241  0.06523  1.0000
  H   H516      1.0  0.20399  0.53735  0.05855  1.0000
  C   C339      1.0  0.99305  0.53319  0.10762  1.0000
  H   H517      1.0  0.14964  0.61024  0.27081  1.0000
  C   C340      1.0  0.25703  0.54591  0.38598  1.0000
  H   H518      1.0  0.10137  0.61650  0.26273  1.0000
  Fe  Fe64      1.0  0.24720  0.54095  0.09935  1.0000
  H   H519      1.0  0.24922  0.55918  0.37959  1.0000
  C   C341      1.0  0.30328  0.56678  0.23802  1.0000
  H   H520      1.0  0.32168  0.63819  0.13433  1.0000
  C   C342      1.0  0.21992  0.70952  0.28310  1.0000
  N   N33       1.0  0.23384  0.61591  0.39351  1.0000
  C   C343      1.0  0.24099  0.60245  0.38075  1.0000
  C   C344      1.0  0.23575  0.60585  0.41289  1.0000
  H   H521      1.0  0.23993  0.60959  0.36599  1.0000
  H   H522      1.0  0.23280  0.59113  0.38490  1.0000
  H   H523      1.0  0.25602  0.59563  0.38065  1.0000
  H   H524      1.0  0.23040  0.61554  0.42296  1.0000
  H   H525      1.0  0.25072  0.59936  0.41356  1.0000
  H   H526      1.0  0.21192  0.63194  0.37877  1.0000
  H   H527      1.0  0.20795  0.63471  0.40260  1.0000
  N   N34       1.0  0.19126  0.67033  0.17284  1.0000
  C   C345      1.0  0.19602  0.68068  0.15313  1.0000
  C   C346      1.0  0.18871  0.65143  0.17305  1.0000
  C   C347      1.0  0.17364  0.68087  0.18274  1.0000
  C   C348      1.0  0.20664  0.66839  0.18250  1.0000
  H   H528      1.0  0.19786  0.69508  0.15255  1.0000
  H   H529      1.0  0.18475  0.68244  0.14537  1.0000
  S   S136      1.0  0.11647  0.72649  0.28000  1.0000
  H   H530      1.0  0.17714  0.65239  0.16595  1.0000
  H   H531      1.0  0.19783  0.66269  0.26036  1.0000
  H   H532      1.0  0.20173  0.64302  0.16573  1.0000
  H   H533      1.0  0.16971  0.67361  0.19771  1.0000
  H   H534      1.0  0.16167  0.68262  0.17591  1.0000
  H   H535      1.0  0.17500  0.69522  0.18279  1.0000
  H   H536      1.0  0.20351  0.66072  0.19745  1.0000
  H   H537      1.0  0.20888  0.68241  0.18265  1.0000
  H   H538      1.0  0.22020  0.66059  0.17535  1.0000
  H   H539      1.0  0.22776  0.59431  0.41807  1.0000
  C   C349      1.0  0.06039  0.52271  0.19344  1.0000
  H   H540      1.0  0.03134  0.73088  0.29092  1.0000
  H   H541      1.0  0.27325  0.57648  0.24199  1.0000
  C   C350      1.0  0.26492  0.56825  0.18933  1.0000
  H   H542      1.0  0.00043  0.52720  0.14207  1.0000
  C   C351      1.0  0.21560  0.51394  0.18873  1.0000
  C   C352      1.0  0.00253  0.49889  0.07879  1.0000
  H   H543      1.0  0.26331  0.52985  0.22532  1.0000
  C   C353      1.0  0.17180  0.55303  0.26913  1.0000
  N   N35       1.0  0.12342  0.60112  0.27762  1.0000
  N   N36       1.0  0.18130  0.58181  0.14945  1.0000
  C   C354      1.0  0.17983  0.60084  0.15249  1.0000
  C   C355      1.0  0.18822  0.58152  0.12917  1.0000
  C   C356      1.0  0.19449  0.56796  0.16039  1.0000
  H   H544      1.0  0.16322  0.56234  0.15448  1.0000
  H   H545      1.0  0.15233  0.58675  0.14759  1.0000
  H   H546      1.0  0.19365  0.60514  0.14758  1.0000
  H   H547      1.0  0.16965  0.61158  0.14478  1.0000
  H   H548      1.0  0.20234  0.58518  0.12388  1.0000
  H   H549      1.0  0.17861  0.59179  0.12048  1.0000
  H   H550      1.0  0.18952  0.56731  0.12645  1.0000
  H   H551      1.0  0.20877  0.57123  0.15597  1.0000
  H   H552      1.0  0.19587  0.55343  0.15849  1.0000
  Fe  Fe65      1.0  0.05759  0.50769  0.14741  1.0000
  C   C357      1.0  0.13669  0.49689  0.98854  1.0000
  Fe  Fe66      1.0  0.26593  0.57717  0.31094  1.0000
  H   H553      1.0  0.26005  0.62515  0.38660  1.0000
  C   C358      1.0  0.22703  0.50930  0.17193  1.0000
  H   H554      1.0  0.28959  0.61415  0.25114  1.0000
  S   S137      1.0  0.27108  0.51972  0.11054  1.0000
  H   H555      1.0  0.29728  0.55300  0.01292  1.0000
  H   H556      1.0  0.17318  0.65761  0.30064  1.0000
  H   H557      1.0  0.29642  0.73002  0.24348  1.0000
  C   C359      1.0  0.03039  0.73077  0.37050  1.0000
  S   S138      1.0  0.16145  0.56017  0.21042  1.0000
  H   H558      1.0  0.18971  0.56775  0.17574  1.0000
  Fe  Fe67      1.0  0.25623  0.52718  0.13856  1.0000
  C   C360      1.0  0.19599  0.51791  0.19100  1.0000
  Fe  Fe68      1.0  0.24041  0.55580  0.34165  1.0000
  H   H559      1.0  0.26699  0.57105  0.17367  1.0000
  H   H560      1.0  0.27399  0.54933  0.22265  1.0000
  H   H561      1.0  0.28768  0.51353  0.34998  1.0000
  Fe  Fe69      1.0  0.28386  0.54477  0.10681  1.0000
  H   H562      1.0  0.31449  0.60381  0.22475  1.0000
  C   C361      1.0  0.29850  0.62335  0.25225  1.0000
  C   C362      1.0  0.28425  0.53701  0.19018  1.0000
  S   S139      1.0  0.27097  0.55023  0.13578  1.0000
  C   C363      1.0  0.27654  0.51141  0.40343  1.0000
  C   C364      1.0  0.18208  0.56381  0.25380  1.0000
  S   S140      1.0  0.29627  0.57576  0.29737  1.0000
  S   S141      1.0  0.25376  0.55285  0.31177  1.0000
  C   C365      1.0  0.07627  0.53876  0.20706  1.0000
  N   N37       1.0  0.20011  0.64368  0.28697  1.0000
  C   C366      1.0  0.19509  0.64865  0.26829  1.0000
  C   C367      1.0  0.18840  0.65736  0.29856  1.0000
  C   C368      1.0  0.22011  0.64406  0.28455  1.0000
  C   C369      1.0  0.19680  0.62460  0.29642  1.0000
  H   H563      1.0  0.20325  0.63824  0.25944  1.0000
  H   H564      1.0  0.03509  0.71486  0.31272  1.0000
  C   C370      1.0  0.03026  0.48798  0.09250  1.0000
  C   C371      1.0  0.29830  0.64053  0.22018  1.0000
  C   C372      1.0  0.28109  0.52850  0.05656  1.0000
  S   S142      1.0  0.25436  0.72798  0.35992  1.0000
  S   S143      1.0  0.16156  0.73333  0.18613  1.0000
  H   H565      1.0  0.28474  0.53422  0.01906  1.0000
  H   H566      1.0  0.23014  0.71532  0.16254  1.0000
  N   N38       1.0  0.31035  0.62978  0.23374  1.0000
  S   S144      1.0  0.03765  0.50408  0.13166  1.0000
  H   H567      1.0  0.26008  0.56365  0.05458  1.0000
  H   H568      1.0  0.06428  0.54612  0.00429  1.0000
  Fe  Fe70      1.0  0.30441  0.70748  0.11669  1.0000
  S   S145      1.0  0.25867  0.73133  0.31446  1.0000
  H   H569      1.0  0.31902  0.73339  0.15761  1.0000
  C   C373      1.0  0.99688  0.73047  0.44535  1.0000
  H   H570      1.0  0.30719  0.61498  0.26276  1.0000
  H   H571      1.0  0.32054  0.54312  0.31799  1.0000
  C   C374      1.0  0.05365  0.50267  0.01705  1.0000
  H   H572      1.0  0.28906  0.65346  0.22473  1.0000
  H   H573      1.0  0.99020  0.52343  0.98873  1.0000
  H   H574      1.0  0.08250  0.71147  0.27981  1.0000
  C   C375      1.0  0.31679  0.56513  0.26459  1.0000
  C   C376      1.0  0.31510  0.70905  0.20637  1.0000
  H   H575      1.0  0.31612  0.68004  0.20690  1.0000
  H   H576      1.0  0.28621  0.49207  0.45222  1.0000
  H   H577      1.0  0.26030  0.73501  0.08258  1.0000
  S   S146      1.0  0.23543  0.73114  0.12181  1.0000
  S   S147      1.0  0.00727  0.73514  0.34628  1.0000
  H   H578      1.0  0.31132  0.54370  0.04990  1.0000
  C   C377      1.0  0.20463  0.73276  0.25969  1.0000
  C   C378      1.0  0.06700  0.71267  0.28476  1.0000
  H   H579      1.0  0.99171  0.54874  0.10442  1.0000
  H   H580      1.0  0.31148  0.55370  0.33817  1.0000
  H   H581      1.0  0.06445  0.70832  0.32252  1.0000
  S   S148      1.0  0.16356  0.73083  0.23926  1.0000
  C   C379      1.0  0.31354  0.52112  0.36428  1.0000
  C   C380      1.0  0.21548  0.73131  0.14037  1.0000
  H   H582      1.0  0.32026  0.49401  0.34489  1.0000
  Fe  Fe71      1.0  0.09605  0.50742  0.88194  1.0000
  S   S149      1.0  0.11967  0.51764  0.88634  1.0000
  C   C381      1.0  0.18015  0.51376  0.67765  1.0000
  Fe  Fe72      1.0  0.06943  0.51873  0.91714  1.0000
  S   S150      1.0  0.09045  0.53042  0.92462  1.0000
  S   S151      1.0  0.04098  0.51333  0.93396  1.0000
  Fe  Fe73      1.0  0.09799  0.54281  0.89347  1.0000
  S   S152      1.0  0.10399  0.57224  0.88301  1.0000
  Fe  Fe74      1.0  0.11090  0.50467  0.91686  1.0000
  H   H583      1.0  0.27844  0.64678  0.62272  1.0000
  S   S153      1.0  0.07471  0.53374  0.88670  1.0000
  H   H584      1.0  0.26417  0.60710  0.75582  1.0000
  C   C382      1.0  0.23540  0.67537  0.63198  1.0000
  H   H585      1.0  0.31603  0.61308  0.50536  1.0000
  Fe  Fe75      1.0  0.32313  0.65170  0.83377  1.0000
  H   H586      1.0  0.02449  0.66489  0.52604  1.0000
  C   C383      1.0  0.26442  0.54226  0.71445  1.0000
  H   H587      1.0  0.11595  0.72637  0.54425  1.0000
  H   H588      1.0  0.00983  0.50587  0.96409  1.0000
  S   S154      1.0  0.07053  0.69751  0.53700  1.0000
  H   H589      1.0  0.23895  0.67432  0.77983  1.0000
  H   H590      1.0  0.28858  0.71912  0.79373  1.0000
  H   H591      1.0  0.15073  0.69298  0.71197  1.0000
  H   H592      1.0  0.01408  0.52373  0.90514  1.0000
  S   S155      1.0  0.08954  0.49177  0.91179  1.0000
  H   H593      1.0  0.01529  0.67559  0.50502  1.0000
  N   N39       1.0  0.15314  0.68747  0.74092  1.0000
  Fe  Fe76      1.0  0.15973  0.67105  0.58081  1.0000
  S   S156      1.0  0.13922  0.67794  0.60698  1.0000
  S   S157      1.0  0.15333  0.67682  0.55181  1.0000
  Fe  Fe77      1.0  0.19367  0.66078  0.59927  1.0000
  S   S158      1.0  0.17607  0.66716  0.62669  1.0000
  S   S159      1.0  0.22495  0.64957  0.59583  1.0000
  Fe  Fe78      1.0  0.15641  0.65188  0.62218  1.0000
  S   S160      1.0  0.14383  0.63274  0.64830  1.0000
  Fe  Fe79      1.0  0.16062  0.69250  0.60931  1.0000
  S   S161      1.0  0.17507  0.64355  0.59571  1.0000
  S   S162      1.0  0.18011  0.68755  0.58210  1.0000
  Fe  Fe80      1.0  0.18574  0.65720  0.80324  1.0000
  S   S163      1.0  0.20382  0.63502  0.82132  1.0000
  S   S164      1.0  0.17277  0.68556  0.81058  1.0000
  Fe  Fe81      1.0  0.19195  0.63373  0.77441  1.0000
  S   S165      1.0  0.21125  0.60998  0.78929  1.0000
  S   S166      1.0  0.18657  0.63310  0.74648  1.0000
  Fe  Fe82      1.0  0.18968  0.61463  0.81573  1.0000
  S   S167      1.0  0.18402  0.58709  0.83541  1.0000
  Fe  Fe83      1.0  0.22364  0.63215  0.79373  1.0000
  S   S168      1.0  0.25492  0.63085  0.78693  1.0000
  S   S169      1.0  0.16953  0.63725  0.80039  1.0000
  S   S170      1.0  0.20646  0.65542  0.77608  1.0000
  Fe  Fe84      1.0  0.17302  0.50930  0.73507  1.0000
  S   S171      1.0  0.15864  0.53790  0.72158  1.0000
  H   H594      1.0  0.14946  0.48852  0.80043  1.0000
  Fe  Fe85      1.0  0.20348  0.52448  0.74297  1.0000
  S   S172      1.0  0.19214  0.55412  0.72967  1.0000
  S   S173      1.0  0.22748  0.51810  0.75784  1.0000
  Fe  Fe86      1.0  0.16399  0.54775  0.74503  1.0000
  S   S174      1.0  0.14335  0.56840  0.76113  1.0000
  Fe  Fe87      1.0  0.18788  0.54197  0.70731  1.0000
  S   S175      1.0  0.19590  0.55471  0.67646  1.0000
  S   S176      1.0  0.17558  0.51871  0.76011  1.0000
  S   S177      1.0  0.20213  0.51261  0.71907  1.0000
  C   C384      1.0  0.17172  0.61762  0.74939  1.0000
  C   C385      1.0  0.17296  0.60880  0.73473  1.0000
  C   C386      1.0  0.16288  0.59467  0.73776  1.0000
  C   C387      1.0  0.15146  0.58945  0.75540  1.0000
  C   C388      1.0  0.14877  0.59959  0.76940  1.0000
  C   C389      1.0  0.15918  0.61341  0.76654  1.0000
  H   H595      1.0  0.18234  0.61220  0.72133  1.0000
  H   H596      1.0  0.16424  0.58752  0.72657  1.0000
  H   H597      1.0  0.13944  0.59604  0.78286  1.0000
  H   H598      1.0  0.15766  0.62053  0.77773  1.0000
  C   C390      1.0  0.28879  0.59023  0.77802  1.0000
  C   C391      1.0  0.19434  0.56522  0.77370  1.0000
  C   C392      1.0  0.17458  0.70612  0.79298  1.0000
  C   C393      1.0  0.18114  0.70552  0.77383  1.0000
  H   H599      1.0  0.18507  0.69222  0.76951  1.0000
  C   C394      1.0  0.15874  0.61138  0.65612  1.0000
  C   C395      1.0  0.17595  0.60498  0.64470  1.0000
  C   C396      1.0  0.18738  0.58762  0.65109  1.0000
  C   C397      1.0  0.18185  0.57682  0.66909  1.0000
  C   C398      1.0  0.16494  0.58352  0.68076  1.0000
  C   C399      1.0  0.15332  0.60065  0.67419  1.0000
  H   H600      1.0  0.18028  0.61321  0.63078  1.0000
  H   H601      1.0  0.20048  0.58253  0.64202  1.0000
  H   H602      1.0  0.16064  0.57543  0.69474  1.0000
  H   H603      1.0  0.14009  0.60565  0.68315  1.0000
  H   H604      1.0  0.01759  0.48917  0.87608  1.0000
  C   C400      1.0  0.09339  0.69171  0.54153  1.0000
  C   C401      1.0  0.10847  0.69610  0.52695  1.0000
  C   C402      1.0  0.12675  0.69120  0.53032  1.0000
  C   C403      1.0  0.13006  0.68248  0.54843  1.0000
  C   C404      1.0  0.11494  0.67849  0.56319  1.0000
  C   C405      1.0  0.09665  0.68284  0.55966  1.0000
  H   H605      1.0  0.10612  0.70287  0.51291  1.0000
  H   H606      1.0  0.13838  0.69419  0.51880  1.0000
  H   H607      1.0  0.11739  0.67168  0.57718  1.0000
  H   H608      1.0  0.08503  0.67947  0.57101  1.0000
  H   H609      1.0  0.15236  0.69212  0.64960  1.0000
  H   H610      1.0  0.15196  0.66167  0.73436  1.0000
  H   H611      1.0  0.99597  0.71402  0.51667  1.0000
  H   H612      1.0  0.04775  0.70543  0.50400  1.0000
  H   H613      1.0  0.23166  0.69869  0.80836  1.0000
  H   H614      1.0  0.00924  0.70981  0.49403  1.0000
  H   H615      1.0  0.29020  0.60258  0.78264  1.0000
  H   H616      1.0  0.27673  0.72349  0.60684  1.0000
  H   H617      1.0  0.15057  0.71334  0.72013  1.0000
  H   H618      1.0  0.13073  0.70003  0.76119  1.0000
  H   H619      1.0  0.26264  0.63813  0.60195  1.0000
  H   H620      1.0  0.22443  0.69061  0.76451  1.0000
  C   C406      1.0  0.14775  0.51108  0.68953  1.0000
  C   C407      1.0  0.12740  0.49112  0.74264  1.0000
  H   H621      1.0  0.23851  0.64820  0.81969  1.0000
  C   C408      1.0  0.20437  0.55629  0.80338  1.0000
  H   H622      1.0  0.28998  0.49503  0.72828  1.0000
  H   H623      1.0  0.12880  0.50567  0.73832  1.0000
  H   H624      1.0  0.21217  0.67745  0.61931  1.0000
  S   S178      1.0  0.26415  0.67170  0.64928  1.0000
  C   C409      1.0  0.12601  0.57626  0.86888  1.0000
  C   C410      1.0  0.14135  0.56135  0.86606  1.0000
  C   C411      1.0  0.15902  0.56496  0.85595  1.0000
  C   C412      1.0  0.16142  0.58349  0.84793  1.0000
  C   C413      1.0  0.14602  0.59843  0.85032  1.0000
  C   C414      1.0  0.12844  0.59482  0.86096  1.0000
  H   H625      1.0  0.13969  0.54705  0.87185  1.0000
  H   H626      1.0  0.17086  0.55332  0.85415  1.0000
  H   H627      1.0  0.14771  0.61278  0.84426  1.0000
  H   H628      1.0  0.11666  0.60647  0.86305  1.0000
  S   S179      1.0  0.30027  0.54744  0.70865  1.0000
  N   N40       1.0  0.29276  0.59316  0.75722  1.0000
  H   H629      1.0  0.02202  0.56697  0.96568  1.0000
  H   H630      1.0  0.13012  0.70303  0.72747  1.0000
  H   H631      1.0  0.05643  0.51410  0.86708  1.0000
  H   H632      1.0  0.15174  0.66008  0.75862  1.0000
  H   H633      1.0  0.30193  0.56349  0.75770  1.0000
  H   H634      1.0  0.29568  0.48803  0.48249  1.0000
  H   H635      1.0  0.15178  0.49540  0.69245  1.0000
  H   H636      1.0  0.27968  0.62256  0.75282  1.0000
  H   H637      1.0  0.15506  0.54579  0.68280  1.0000
  C   C415      1.0  0.02730  0.52631  0.95110  1.0000
  C   C416      1.0  0.01259  0.51917  0.96447  1.0000
  H   H638      1.0  0.00095  0.67880  0.52765  1.0000
  C   C417      1.0  0.03074  0.54352  0.95163  1.0000
  N   N41       1.0  0.20286  0.63560  0.67149  1.0000
  C   C418      1.0  0.21281  0.62954  0.65358  1.0000
  C   C419      1.0  0.18334  0.63278  0.67621  1.0000
  C   C420      1.0  0.20271  0.65573  0.66946  1.0000
  C   C421      1.0  0.21264  0.62428  0.68676  1.0000
  H   H639      1.0  0.22753  0.63168  0.64942  1.0000
  H   H640      1.0  0.20580  0.63767  0.64171  1.0000
  H   H641      1.0  0.21324  0.61439  0.65463  1.0000
  H   H642      1.0  0.17556  0.64088  0.66487  1.0000
  H   H643      1.0  0.18299  0.61768  0.67802  1.0000
  H   H644      1.0  0.17532  0.63731  0.68954  1.0000
  H   H645      1.0  0.19485  0.66095  0.68250  1.0000
  H   H646      1.0  0.19605  0.66471  0.65761  1.0000
  H   H647      1.0  0.21721  0.65819  0.66660  1.0000
  H   H648      1.0  0.20586  0.62888  0.70037  1.0000
  H   H649      1.0  0.22757  0.62571  0.68340  1.0000
  H   H650      1.0  0.21258  0.60904  0.68908  1.0000
  C   C422      1.0  0.17391  0.68358  0.73611  1.0000
  S   S180      1.0  0.30822  0.68195  0.65708  1.0000
  H   H651      1.0  0.21788  0.54755  0.79731  1.0000
  H   H652      1.0  0.04788  0.49771  0.85965  1.0000
  H   H653      1.0  0.13319  0.51525  0.68695  1.0000
  C   C423      1.0  0.03931  0.49264  0.89769  1.0000
  H   H654      1.0  0.16645  0.72713  0.53675  1.0000
  C   C424      1.0  0.22652  0.67059  0.62017  1.0000
  H   H655      1.0  0.18497  0.49817  0.68040  1.0000
  C   C425      1.0  0.29634  0.72932  0.79494  1.0000
  H   H656      1.0  0.05181  0.68055  0.51245  1.0000
  H   H657      1.0  0.04194  0.54922  0.94128  1.0000
  Fe  Fe88      1.0  0.06770  0.72439  0.51516  1.0000
  C   C426      1.0  0.25405  0.66665  0.63310  1.0000
  C   C427      1.0  0.04202  0.69277  0.50570  1.0000
  C   C428      1.0  0.01044  0.71148  0.50795  1.0000
  C   C429      1.0  0.25465  0.70433  0.76240  1.0000
  H   H658      1.0  0.29867  0.57778  0.78426  1.0000
  C   C430      1.0  0.17452  0.71365  0.66934  1.0000
  C   C431      1.0  0.15536  0.54047  0.67021  1.0000
  N   N42       1.0  0.02272  0.69478  0.51723  1.0000
  C   C432      1.0  0.31462  0.70602  0.81563  1.0000
  C   C433      1.0  0.27878  0.60922  0.74958  1.0000
  C   C434      1.0  0.18218  0.72229  0.76017  1.0000
  C   C435      1.0  0.01942  0.55357  0.96541  1.0000
  H   H659      1.0  0.08878  0.48761  0.82585  1.0000
  C   C436      1.0  0.16924  0.72352  0.79838  1.0000
  H   H660      1.0  0.21649  0.68732  0.78966  1.0000
  H   H661      1.0  0.01702  0.53726  0.88128  1.0000
  H   H662      1.0  0.25068  0.70753  0.74843  1.0000
  H   H663      1.0  0.29490  0.57741  0.73628  1.0000
  C   C437      1.0  0.29173  0.57593  0.75188  1.0000
  H   H664      1.0  0.05706  0.53737  0.97756  1.0000
  H   H665      1.0  0.00317  0.50011  0.89512  1.0000
  C   C438      1.0  0.32220  0.58650  0.64794  1.0000
  H   H666      1.0  0.30714  0.69494  0.81591  1.0000
  C   C439      1.0  0.14634  0.69703  0.75707  1.0000
  C   C440      1.0  0.14662  0.66953  0.74604  1.0000
  H   H667      1.0  0.24554  0.71138  0.65324  1.0000
  H   H668      1.0  0.05226  0.49593  0.89938  1.0000
  S   S181      1.0  0.31397  0.67291  0.61477  1.0000
  C   C441      1.0  0.10944  0.48669  0.74791  1.0000
  C   C442      1.0  0.24730  0.52701  0.74423  1.0000
  H   H669      1.0  0.12753  0.72993  0.57886  1.0000
  C   C443      1.0  0.13456  0.49136  0.95360  1.0000
  C   C444      1.0  0.26186  0.65348  0.82771  1.0000
  S   S182      1.0  0.21052  0.73435  0.71079  1.0000
  N   N43       1.0  0.03007  0.50780  0.88401  1.0000
  H   H670      1.0  0.20080  0.55042  0.81881  1.0000
  H   H671      1.0  0.04251  0.69089  0.49135  1.0000
  Fe  Fe89      1.0  0.29575  0.66628  0.64347  1.0000
  H   H672      1.0  0.17936  0.69679  0.73215  1.0000
  N   N44       1.0  0.23799  0.70360  0.77804  1.0000
  C   C445      1.0  0.00144  0.52909  0.97842  1.0000
  C   C446      1.0  0.22910  0.68830  0.77798  1.0000
  N   N45       1.0  0.15320  0.54294  0.91974  1.0000
  C   C447      1.0  0.16455  0.52885  0.90846  1.0000
  C   C448      1.0  0.15788  0.56157  0.91056  1.0000
  C   C449      1.0  0.15725  0.53714  0.93892  1.0000
  C   C450      1.0  0.13306  0.54411  0.92102  1.0000
  H   H673      1.0  0.16119  0.51467  0.91494  1.0000
  H   H674      1.0  0.17986  0.52748  0.90726  1.0000
  H   H675      1.0  0.16187  0.53280  0.89390  1.0000
  H   H676      1.0  0.14957  0.57252  0.91873  1.0000
  H   H677      1.0  0.11673  0.48856  0.80005  1.0000
  H   H678      1.0  0.15476  0.56646  0.89614  1.0000
  H   H679      1.0  0.14872  0.54728  0.94795  1.0000
  H   H680      1.0  0.17232  0.53620  0.93854  1.0000
  H   H681      1.0  0.15401  0.52304  0.94616  1.0000
  H   H682      1.0  0.12395  0.55459  0.92941  1.0000
  H   H683      1.0  0.12913  0.53026  0.92770  1.0000
  H   H684      1.0  0.12948  0.54846  0.90682  1.0000
  H   H685      1.0  0.15085  0.71073  0.75363  1.0000
  C   C451      1.0  0.27857  0.53193  0.74186  1.0000
  C   C452      1.0  0.25506  0.64860  0.61026  1.0000
  C   C453      1.0  0.12020  0.50396  0.96281  1.0000
  C   C454      1.0  0.22436  0.72178  0.77560  1.0000
  H   H686      1.0  0.19944  0.52852  0.78968  1.0000
  C   C455      1.0  0.24383  0.69991  0.79622  1.0000
  H   H687      1.0  0.32197  0.57529  0.80639  1.0000
  H   H688      1.0  0.27424  0.58802  0.78439  1.0000
  H   H689      1.0  0.22772  0.68575  0.64038  1.0000
  C   C456      1.0  0.01554  0.67774  0.51909  1.0000
  H   H690      1.0  0.23660  0.53707  0.71865  1.0000
  S   S183      1.0  0.18478  0.70951  0.68888  1.0000
  S   S184      1.0  0.15282  0.72140  0.61600  1.0000
  C   C457      1.0  0.01350  0.50243  0.88152  1.0000
  C   C458      1.0  0.23623  0.65695  0.60952  1.0000
  C   C459      1.0  0.26474  0.63918  0.80128  1.0000
  H   H691      1.0  0.17304  0.56122  0.90911  1.0000
  H   H692      1.0  0.15009  0.71587  0.53281  1.0000
  H   H693      1.0  0.30962  0.50639  0.72125  1.0000
  H   H694      1.0  0.26173  0.51864  0.76732  1.0000
  C   C460      1.0  0.16001  0.71901  0.63707  1.0000
  C   C461      1.0  0.17467  0.73046  0.65580  1.0000
  H   H695      1.0  0.09704  0.49788  0.74750  1.0000
  H   H696      1.0  0.17272  0.58329  0.80065  1.0000
  H   H697      1.0  0.15967  0.56850  0.79628  1.0000
  H   H698      1.0  0.14730  0.51537  0.70275  1.0000
  H   H699      1.0  0.32122  0.60191  0.64552  1.0000
  H   H700      1.0  0.03245  0.68488  0.54335  1.0000
  H   H701      1.0  0.14720  0.51765  0.65270  1.0000
  C   C462      1.0  0.29256  0.64402  0.80863  1.0000
  C   C463      1.0  0.04344  0.51063  0.86567  1.0000
  H   H702      1.0  0.16748  0.56286  0.81797  1.0000
  H   H703      1.0  0.18327  0.56561  0.76625  1.0000
  C   C464      1.0  0.26245  0.52524  0.75256  1.0000
  H   H704      1.0  0.00870  0.69845  0.54539  1.0000
  H   H705      1.0  0.30763  0.64268  0.80556  1.0000
  S   S185      1.0  0.07505  0.72709  0.48365  1.0000
  S   S186      1.0  0.13428  0.48780  0.93148  1.0000
  H   H706      1.0  0.29302  0.63218  0.78533  1.0000
  C   C465      1.0  0.28251  0.73345  0.63643  1.0000
  H   H707      1.0  0.31264  0.59876  0.52879  1.0000
  H   H708      1.0  0.13643  0.71043  0.56719  1.0000
  H   H709      1.0  0.10829  0.51150  0.95655  1.0000
  H   H710      1.0  0.29011  0.53054  0.74844  1.0000
  H   H711      1.0  0.31521  0.59977  0.73372  1.0000
  H   H712      1.0  0.25019  0.71138  0.79704  1.0000
  N   N46       1.0  0.26559  0.72768  0.63529  1.0000
  H   H713      1.0  0.21965  0.72501  0.76200  1.0000
  C   C466      1.0  0.30348  0.49601  0.71791  1.0000
  H   H714      1.0  0.21152  0.72164  0.78708  1.0000
  H   H715      1.0  0.18049  0.51846  0.69036  1.0000
  S   S187      1.0  0.09914  0.49650  0.85575  1.0000
  H   H716      1.0  0.31854  0.69914  0.78141  1.0000
  C   C467      1.0  0.16135  0.51341  0.65629  1.0000
  N   N47       1.0  0.16113  0.51969  0.67344  1.0000
  H   H717      1.0  0.25442  0.68648  0.79827  1.0000
  C   C468      1.0  0.14574  0.69974  0.72445  1.0000
  H   H718      1.0  0.16578  0.68706  0.67774  1.0000
  H   H719      1.0  0.14112  0.54557  0.66687  1.0000
  H   H720      1.0  0.26834  0.70447  0.65896  1.0000
  H   H721      1.0  0.30821  0.58352  0.65581  1.0000
  H   H722      1.0  0.31922  0.57785  0.68553  1.0000
  C   C469      1.0  0.28140  0.65180  0.82392  1.0000
  C   C470      1.0  0.15215  0.72964  0.53386  1.0000
  S   S188      1.0  0.29153  0.65995  0.83813  1.0000
  C   C471      1.0  0.18651  0.53758  0.79635  1.0000
  H   H723      1.0  0.03717  0.52232  0.85511  1.0000
  C   C472      1.0  0.02402  0.52544  0.89120  1.0000
  H   H724      1.0  0.16408  0.72411  0.81314  1.0000
  C   C473      1.0  0.26401  0.65350  0.62197  1.0000
  H   H725      1.0  0.26498  0.69065  0.76354  1.0000
  H   H726      1.0  0.16537  0.54740  0.65836  1.0000
  H   H727      1.0  0.13102  0.67188  0.74938  1.0000
  C   C474      1.0  0.31175  0.59729  0.74941  1.0000
  H   H728      1.0  0.25315  0.65947  0.83954  1.0000
  C   C475      1.0  0.16759  0.73306  0.63958  1.0000
  H   H729      1.0  0.28099  0.61139  0.73398  1.0000
  H   H730      1.0  0.17489  0.53770  0.78970  1.0000
  H   H731      1.0  0.20672  0.57065  0.80184  1.0000
  H   H732      1.0  0.18288  0.53080  0.81151  1.0000
  H   H733      1.0  0.17950  0.67646  0.72390  1.0000
  H   H734      1.0  0.18690  0.72177  0.74544  1.0000
  H   H735      1.0  0.02994  0.49068  0.91194  1.0000
  H   H736      1.0  0.29352  0.72104  0.64062  1.0000
  H   H737      1.0  0.20769  0.55692  0.76674  1.0000
  C   C476      1.0  0.28424  0.63794  0.79724  1.0000
  H   H738      1.0  0.31305  0.61004  0.75348  1.0000
  C   C477      1.0  0.15893  0.70266  0.65110  1.0000
  C   C478      1.0  0.16634  0.69989  0.66713  1.0000
  C   C479      1.0  0.17151  0.56842  0.80258  1.0000
  N   N48       1.0  0.18921  0.55689  0.79401  1.0000
  C   C480      1.0  0.25354  0.64709  0.81648  1.0000
  H   H739      1.0  0.15183  0.68825  0.76972  1.0000
  H   H740      1.0  0.30714  0.71276  0.82784  1.0000
  H   H741      1.0  0.25840  0.71094  0.61999  1.0000
  C   C481      1.0  0.27967  0.54026  0.72272  1.0000
  H   H742      1.0  0.18002  0.67416  0.74810  1.0000
  C   C482      1.0  0.24824  0.53566  0.72518  1.0000
  H   H743      1.0  0.26517  0.54870  0.69966  1.0000
  H   H744      1.0  0.19608  0.57997  0.77136  1.0000
  H   H745      1.0  0.19066  0.52004  0.66588  1.0000
  H   H746      1.0  0.03616  0.52981  0.89339  1.0000
  N   N49       1.0  0.31559  0.71993  0.79756  1.0000
  H   H747      1.0  0.26202  0.71542  0.76229  1.0000
  S   S189      1.0  0.31449  0.63871  0.65239  1.0000
  H   H748      1.0  0.17132  0.51967  0.64390  1.0000
  H   H749      1.0  0.23050  0.73370  0.77562  1.0000
  H   H750      1.0  0.27749  0.57261  0.75739  1.0000
  H   H751      1.0  0.15235  0.72243  0.57098  1.0000
  C   C483      1.0  0.25772  0.71682  0.65386  1.0000
  H   H752      1.0  0.28148  0.70299  0.62488  1.0000
  C   C484      1.0  0.12134  0.50682  0.98023  1.0000
  C   C485      1.0  0.02296  0.69705  0.53614  1.0000
  H   H753      1.0  0.00617  0.51358  0.87129  1.0000
  H   H754      1.0  0.25275  0.72548  0.66479  1.0000
  H   H755      1.0  0.02830  0.70979  0.53525  1.0000
  C   C486      1.0  0.13849  0.72455  0.56725  1.0000
  C   C487      1.0  0.27075  0.71583  0.62107  1.0000
  H   H756      1.0  0.16572  0.49781  0.65820  1.0000
  C   C488      1.0  0.00476  0.54638  0.97886  1.0000
  H   H757      1.0  0.30010  0.50205  0.70369  1.0000
  H   H758      1.0  0.01598  0.72450  0.50529  1.0000
  H   H759      1.0  0.32271  0.58547  0.75474  1.0000
  H   H760      1.0  0.04871  0.51618  0.98144  1.0000
  C   C489      1.0  0.32314  0.60149  0.51540  1.0000
  H   H761      1.0  0.07271  0.51487  0.98204  1.0000
  H   H762      1.0  0.26511  0.77737  0.23460  1.0000
  S   S190      1.0  0.18480  0.83683  0.46287  1.0000
  C   C490      1.0  0.14136  0.78979  0.42096  1.0000
  Fe  Fe90      1.0  0.13803  0.84949  0.44452  1.0000
  S   S191      1.0  0.16105  0.86555  0.43144  1.0000
  S   S192      1.0  0.11042  0.85460  0.43559  1.0000
  Fe  Fe91      1.0  0.18034  0.83688  0.43423  1.0000
  S   S193      1.0  0.20278  0.82898  0.40927  1.0000
  Fe  Fe92      1.0  0.16330  0.86410  0.46125  1.0000
  H   H763      1.0  0.00002  0.81519  0.39475  1.0000
  S   S194      1.0  0.15699  0.82109  0.44528  1.0000
  S   S195      1.0  0.16103  0.89035  0.47219  1.0000
  C   C491      1.0  0.99039  0.78233  0.41407  1.0000
  C   C492      1.0  0.00224  0.74307  0.45282  1.0000
  C   C493      1.0  0.11051  0.75001  0.28295  1.0000
  H   H764      1.0  0.07615  0.85435  0.46649  1.0000
  H   H765      1.0  0.08696  0.86150  0.35816  1.0000
  H   H766      1.0  0.19388  0.76399  0.42266  1.0000
  H   H767      1.0  0.08974  0.88548  0.35215  1.0000
  N   N50       1.0  0.26735  0.77430  0.38119  1.0000
  C   C494      1.0  0.27404  0.78686  0.38901  1.0000
  C   C495      1.0  0.01077  0.80471  0.40193  1.0000
  Fe  Fe93      1.0  0.09300  0.81817  0.35571  1.0000
  S   S196      1.0  0.09740  0.79353  0.34248  1.0000
  S   S197      1.0  0.11814  0.82364  0.36266  1.0000
  Fe  Fe94      1.0  0.05182  0.83085  0.35352  1.0000
  S   S198      1.0  0.05246  0.80754  0.33969  1.0000
  S   S199      1.0  0.02514  0.84943  0.36619  1.0000
  Fe  Fe95      1.0  0.06964  0.78912  0.36049  1.0000
  S   S200      1.0  0.06617  0.75988  0.37552  1.0000
  Fe  Fe96      1.0  0.08036  0.81328  0.32231  1.0000
  S   S201      1.0  0.09108  0.81077  0.29182  1.0000
  S   S202      1.0  0.06681  0.81174  0.37601  1.0000
  S   S203      1.0  0.07812  0.83876  0.33398  1.0000
  Fe  Fe97      1.0  0.15977  0.82323  0.47359  1.0000
  H   H768      1.0  0.04003  0.86996  0.38935  1.0000
  S   S204      1.0  0.02532  0.75499  0.46766  1.0000
  H   H769      1.0  0.03169  0.73966  0.31072  1.0000
  S   S205      1.0  0.28727  0.76177  0.32797  1.0000
  H   H770      1.0  0.05921  0.89696  0.34247  1.0000
  H   H771      1.0  0.27242  0.74676  0.10418  1.0000
  H   H772      1.0  0.21412  0.81750  0.37373  1.0000
  N   N51       1.0  0.14238  0.77737  0.40822  1.0000
  H   H773      1.0  0.09845  0.74228  0.31260  1.0000
  C   C496      1.0  0.18172  0.74123  0.15034  1.0000
  H   H774      1.0  0.09656  0.80316  0.47387  1.0000
  H   H775      1.0  0.29381  0.73908  0.07545  1.0000
  C   C497      1.0  0.01303  0.86957  0.35263  1.0000
  H   H776      1.0  0.06505  0.90969  0.36744  1.0000
  H   H777      1.0  0.05839  0.85282  0.37915  1.0000
  H   H778      1.0  0.03357  0.86855  0.32667  1.0000
  C   C498      1.0  0.20281  0.80787  0.40317  1.0000
  H   H779      1.0  0.06193  0.86230  0.39727  1.0000
  C   C499      1.0  0.08362  0.87467  0.36364  1.0000
  H   H780      1.0  0.01670  0.89802  0.30885  1.0000
  C   C500      1.0  0.02042  0.87618  0.33359  1.0000
  H   H781      1.0  0.16686  0.75469  0.27862  1.0000
  H   H782      1.0  0.14671  0.79861  0.38291  1.0000
  H   H783      1.0  0.24156  0.75525  0.08184  1.0000
  C   C501      1.0  0.05955  0.89794  0.37809  1.0000
  H   H784      1.0  0.03830  0.89066  0.35828  1.0000
  H   H785      1.0  0.13496  0.80463  0.41535  1.0000
  C   C502      1.0  0.05556  0.86589  0.38465  1.0000
  N   N52       1.0  0.06314  0.88105  0.37006  1.0000
  H   H786      1.0  0.06643  0.89491  0.39032  1.0000
  C   C503      1.0  0.99593  0.87959  0.36143  1.0000
  S   S206      1.0  0.13852  0.85023  0.47404  1.0000
  C   C504      1.0  0.25638  0.74988  0.07507  1.0000
  H   H787      1.0  0.15556  0.78962  0.42290  1.0000
  C   C505      1.0  0.08186  0.84853  0.47957  1.0000
  H   H788      1.0  0.25729  0.75757  0.40825  1.0000
  H   H789      1.0  0.25669  0.74974  0.06021  1.0000
  H   H790      1.0  0.30774  0.78515  0.09441  1.0000
  C   C506      1.0  0.20664  0.74718  0.26717  1.0000
  H   H791      1.0  0.14363  0.75236  0.43018  1.0000
  C   C507      1.0  0.11255  0.84600  0.41536  1.0000
  C   C508      1.0  0.09702  0.84116  0.41225  1.0000
  C   C509      1.0  0.09860  0.83408  0.39620  1.0000
  C   C510      1.0  0.11558  0.83232  0.38298  1.0000
  C   C511      1.0  0.13104  0.83727  0.38606  1.0000
  C   C512      1.0  0.12959  0.84392  0.40230  1.0000
  H   H792      1.0  0.08385  0.84261  0.42242  1.0000
  H   H793      1.0  0.08673  0.82998  0.39408  1.0000
  H   H794      1.0  0.14424  0.83591  0.37590  1.0000
  H   H795      1.0  0.14164  0.84764  0.40460  1.0000
  H   H796      1.0  0.25449  0.77627  0.35820  1.0000
  C   C513      1.0  0.21474  0.74274  0.28297  1.0000
  H   H797      1.0  0.24857  0.79737  0.36736  1.0000
  C   C514      1.0  0.26789  0.76127  0.09617  1.0000
  C   C515      1.0  0.09484  0.77234  0.30346  1.0000
  H   H798      1.0  0.24439  0.94950  0.48186  1.0000
  S   S207      1.0  0.31534  0.74602  0.20309  1.0000
  H   H799      1.0  0.29043  0.77206  0.22973  1.0000
  Fe  Fe98      1.0  0.26268  0.74819  0.33295  1.0000
  H   H800      1.0  0.26245  0.79874  0.39299  1.0000
  H   H801      1.0  0.16826  0.74853  0.14683  1.0000
  H   H802      1.0  0.17984  0.74814  0.30695  1.0000
  C   C516      1.0  0.16603  0.75515  0.31441  1.0000
  H   H803      1.0  0.20183  0.76173  0.26071  1.0000
  H   H804      1.0  0.16779  0.78471  0.39013  1.0000
  H   H805      1.0  0.08741  0.77500  0.31723  1.0000
  H   H806      1.0  0.11029  0.79529  0.25881  1.0000
  H   H807      1.0  0.11025  0.82103  0.46710  1.0000
  C   C517      1.0  0.02547  0.74034  0.35324  1.0000
  C   C518      1.0  0.05208  0.75114  0.36602  1.0000
  H   H808      1.0  0.02478  0.80737  0.39368  1.0000
  H   H809      1.0  0.24039  0.77779  0.40016  1.0000
  H   H810      1.0  0.26416  0.78161  0.05084  1.0000
  H   H811      1.0  0.30757  0.74530  0.24954  1.0000
  H   H812      1.0  0.29842  0.76240  0.06710  1.0000
  C   C519      1.0  0.20968  0.80581  0.38440  1.0000
  N   N53       1.0  0.00923  0.78519  0.40323  1.0000
  C   C520      1.0  0.26341  0.78097  0.06600  1.0000
  C   C521      1.0  0.05377  0.88571  0.35392  1.0000
  C   C522      1.0  0.19806  0.77571  0.41186  1.0000
  C   C523      1.0  0.10103  0.75376  0.30076  1.0000
  H   H813      1.0  0.02336  0.75691  0.41366  1.0000
  C   C524      1.0  0.28861  0.75346  0.06748  1.0000
  C   C525      1.0  0.10771  0.78369  0.27055  1.0000
  H   H814      1.0  0.02186  0.77361  0.42756  1.0000
  C   C526      1.0  0.14686  0.76725  0.46772  1.0000
  C   C527      1.0  0.15570  0.77722  0.47495  1.0000
  H   H815      1.0  0.00892  0.80766  0.41615  1.0000
  C   C528      1.0  0.01083  0.89286  0.32352  1.0000
  H   H816      1.0  0.21567  0.78749  0.36479  1.0000
  C   C529      1.0  0.09567  0.81864  0.47015  1.0000
  H   H817      1.0  0.14470  0.75042  0.29294  1.0000
  H   H818      1.0  0.05759  0.75649  0.29405  1.0000
  H   H819      1.0  0.13891  0.78476  0.32270  1.0000
  H   H820      1.0  0.27688  0.77022  0.09759  1.0000
  H   H821      1.0  0.05519  0.77073  0.33934  1.0000
  H   H822      1.0  0.16611  0.75721  0.41715  1.0000
  H   H823      1.0  0.07750  0.74497  0.27911  1.0000
  H   H824      1.0  0.13260  0.78544  0.43512  1.0000
  C   C530      1.0  0.27774  0.76572  0.23485  1.0000
  H   H825      1.0  0.27133  0.79078  0.35283  1.0000
  C   C531      1.0  0.25219  0.76642  0.39547  1.0000
  H   H826      1.0  0.05772  0.82914  0.47714  1.0000
  H   H827      1.0  0.09120  0.87167  0.37534  1.0000
  C   C532      1.0  0.15155  0.75793  0.41590  1.0000
  C   C533      1.0  0.31747  0.75509  0.09657  1.0000
  C   C534      1.0  0.30760  0.75574  0.31086  1.0000
  C   C535      1.0  0.09817  0.78739  0.28839  1.0000
  H   H828      1.0  0.28513  0.74658  0.18617  1.0000
  H   H829      1.0  0.05589  0.87319  0.34775  1.0000
  Fe  Fe99      1.0  0.22922  0.74812  0.31820  1.0000
  H   H830      1.0  0.04422  0.90309  0.38312  1.0000
  H   H831      1.0  0.11582  0.79208  0.40095  1.0000
  H   H832      1.0  0.01137  0.76716  0.38445  1.0000
  C   C536      1.0  0.26008  0.78520  0.36419  1.0000
  H   H833      1.0  0.19194  0.79410  0.43146  1.0000
  H   H834      1.0  0.15418  0.76159  0.45532  1.0000
  C   C537      1.0  0.19690  0.79279  0.41688  1.0000
  H   H835      1.0  0.29463  0.76419  0.36502  1.0000
  H   H836      1.0  0.12941  0.78969  0.30196  1.0000
  C   C538      1.0  0.31821  0.77409  0.08857  1.0000
  H   H837      1.0  0.15788  0.74400  0.32188  1.0000
  C   C539      1.0  0.21065  0.78879  0.37934  1.0000
  H   H838      1.0  0.12101  0.76230  0.25398  1.0000
  N   N54       1.0  0.27746  0.75367  0.25391  1.0000
  H   H839      1.0  0.26308  0.77645  0.26819  1.0000
  C   C540      1.0  0.19800  0.74070  0.13611  1.0000
  H   H840      1.0  0.27804  0.75745  0.22440  1.0000
  H   H841      1.0  0.24625  0.75746  0.38980  1.0000
  H   H842      1.0  0.27273  0.79004  0.06660  1.0000
  H   H843      1.0  0.28545  0.79308  0.37855  1.0000
  H   H844      1.0  0.27611  0.75672  0.28196  1.0000
  H   H845      1.0  0.27843  0.74907  0.37012  1.0000
  C   C541      1.0  0.12842  0.76515  0.47619  1.0000
  H   H846      1.0  0.14586  0.77227  0.27614  1.0000
  C   C542      1.0  0.16686  0.78476  0.29198  1.0000
  C   C543      1.0  0.15321  0.76146  0.28657  1.0000
  N   N55       1.0  0.15590  0.76991  0.30112  1.0000
  H   H847      1.0  0.25320  0.76656  0.10334  1.0000
  H   H848      1.0  0.15495  0.77485  0.37951  1.0000
  C   C544      1.0  0.15342  0.78417  0.38936  1.0000
  H   H849      1.0  0.12334  0.76844  0.39712  1.0000
  C   C545      1.0  0.12316  0.77760  0.40668  1.0000
  H   H850      1.0  0.16965  0.77953  0.46792  1.0000
  H   H851      1.0  0.24874  0.78738  0.07222  1.0000
  C   C546      1.0  0.20500  0.77363  0.39310  1.0000
  H   H852      1.0  0.27960  0.77913  0.40189  1.0000
  H   H853      1.0  0.15934  0.79636  0.28225  1.0000
  H   H854      1.0  0.05487  0.75055  0.27334  1.0000
  H   H855      1.0  0.11450  0.77248  0.42073  1.0000
  H   H856      1.0  0.18070  0.77906  0.28358  1.0000
  C   C547      1.0  0.04806  0.75987  0.34822  1.0000
  H   H857      1.0  0.19700  0.74762  0.12172  1.0000
  H   H858      1.0  0.03076  0.76226  0.32865  1.0000
  H   H859      1.0  0.09040  0.82411  0.45680  1.0000
  C   C548      1.0  0.02375  0.77182  0.41287  1.0000
  S   S208      1.0  0.21606  0.76075  0.29301  1.0000
  C   C549      1.0  0.03453  0.75472  0.34196  1.0000
  N   N56       1.0  0.26908  0.76139  0.07617  1.0000
  C   C550      1.0  0.11390  0.76502  0.26782  1.0000
  C   C551      1.0  0.13741  0.77835  0.31152  1.0000
  H   H860      1.0  0.16889  0.76111  0.32522  1.0000
  S   S209      1.0  0.23395  0.76683  0.33449  1.0000
  H   H861      1.0  0.12857  0.76766  0.31841  1.0000
  C   C552      1.0  0.28307  0.75878  0.37606  1.0000
  S   S210      1.0  0.20613  0.75204  0.38730  1.0000
  H   H862      1.0  0.16969  0.79103  0.30259  1.0000
  Fe  Fe100     1.0  0.22508  0.74523  0.35998  1.0000
  H   H863      1.0  0.02605  0.78416  0.37545  1.0000
  C   C553      1.0  0.01205  0.78187  0.38404  1.0000
  H   H864      1.0  0.00120  0.79147  0.37642  1.0000
  H   H865      1.0  0.28840  0.77235  0.26359  1.0000
  H   H866      1.0  0.24766  0.75542  0.25975  1.0000
  H   H867      1.0  0.03813  0.77380  0.40533  1.0000
  C   C554      1.0  0.99370  0.90287  0.33233  1.0000
  H   H868      1.0  0.28984  0.75243  0.05267  1.0000
  H   H869      1.0  0.99310  0.75665  0.45388  1.0000
  S   S211      1.0  0.11659  0.75475  0.46569  1.0000
  C   C555      1.0  0.26102  0.74470  0.25954  1.0000
  C   C556      1.0  0.06232  0.74557  0.28528  1.0000
  H   H870      1.0  0.30652  0.75147  0.10860  1.0000
  H   H871      1.0  0.99375  0.94039  0.24985  1.0000
  C   C557      1.0  0.04360  0.73624  0.37695  1.0000
  H   H872      1.0  0.09589  0.85223  0.47647  1.0000
  H   H873      1.0  0.28906  0.75028  0.38846  1.0000
  C   C558      1.0  0.27620  0.76535  0.26746  1.0000
  H   H874      1.0  0.19834  0.73620  0.24749  1.0000
  H   H875      1.0  0.15253  0.74817  0.40665  1.0000
  C   C559      1.0  0.30917  0.74271  0.29985  1.0000
  C   C560      1.0  0.29488  0.73897  0.25373  1.0000
  C   C561      1.0  0.01922  0.73820  0.45902  1.0000
  H   H876      1.0  0.32163  0.77436  0.31686  1.0000
  S   S212      1.0  0.06271  0.77297  0.48127  1.0000
  H   H877      1.0  0.99015  0.87458  0.37616  1.0000
  C   C562      1.0  0.32267  0.76435  0.30839  1.0000
  H   H878      1.0  0.29786  0.73557  0.30204  1.0000
  H   H879      1.0  0.26023  0.73555  0.27389  1.0000
  H   H880      1.0  0.26156  0.73572  0.24965  1.0000
  N   N57       1.0  0.08334  0.82793  0.48542  1.0000
  H   H881      1.0  0.31451  0.81030  0.65517  1.0000
  S   S213      1.0  0.04431  0.79062  0.52822  1.0000
  S   S214      1.0  0.15908  0.91429  0.60381  1.0000
  Fe  Fe101     1.0  0.08282  0.84591  0.62086  1.0000
  S   S215      1.0  0.06297  0.83430  0.61156  1.0000
  S   S216      1.0  0.09161  0.83065  0.64847  1.0000
  Fe  Fe102     1.0  0.08456  0.87758  0.58619  1.0000
  S   S217      1.0  0.06572  0.86816  0.57353  1.0000
  S   S218      1.0  0.09462  0.90415  0.57130  1.0000
  Fe  Fe103     1.0  0.04839  0.86460  0.60307  1.0000
  S   S219      1.0  0.01692  0.87543  0.60973  1.0000
  Fe  Fe104     1.0  0.08207  0.83904  0.58308  1.0000
  S   S220      1.0  0.09606  0.81600  0.56684  1.0000
  S   S221      1.0  0.06644  0.87573  0.61517  1.0000
  S   S222      1.0  0.10277  0.84895  0.59285  1.0000
  S   S223      1.0  0.21989  0.97719  0.55660  1.0000
  C   C563      1.0  0.30650  0.80678  0.66992  1.0000
  H   H882      1.0  0.23173  0.96125  0.50088  1.0000
  Fe  Fe105     1.0  0.18646  0.77820  0.67779  1.0000
  H   H883      1.0  0.28684  0.77415  0.66264  1.0000
  S   S224      1.0  0.17694  0.80275  0.65504  1.0000
  H   H884      1.0  0.29080  0.78238  0.69943  1.0000
  S   S225      1.0  0.25477  0.75448  0.67956  1.0000
  N   N58       1.0  0.25306  0.93697  0.50832  1.0000
  H   H885      1.0  0.28897  0.74144  0.62259  1.0000
  H   H886      1.0  0.06521  0.80813  0.49355  1.0000
  C   C564      1.0  0.19196  0.88122  0.48911  1.0000
  S   S226      1.0  0.17859  0.76097  0.74916  1.0000
  H   H887      1.0  0.14094  0.85240  0.55960  1.0000
  S   S227      1.0  0.20322  0.78086  0.69739  1.0000
  H   H888      1.0  0.04758  0.92472  0.59662  1.0000
  S   S228      1.0  0.19555  0.95873  0.52931  1.0000
  S   S229      1.0  0.20482  0.92599  0.56613  1.0000
  H   H889      1.0  0.04991  0.92674  0.61913  1.0000
  S   S230      1.0  0.15592  0.79939  0.49848  1.0000
  H   H890      1.0  0.24172  0.75528  0.71951  1.0000
  H   H891      1.0  0.24740  0.75394  0.64014  1.0000
  H   H892      1.0  0.11768  0.74954  0.53066  1.0000
  C   C565      1.0  0.24446  0.93400  0.52868  1.0000
  H   H893      1.0  0.27568  0.80532  0.69744  1.0000
  C   C566      1.0  0.01303  0.93031  0.58251  1.0000
  H   H894      1.0  0.02219  0.93888  0.57244  1.0000
  S   S231      1.0  0.29955  0.74147  0.74363  1.0000
  H   H895      1.0  0.15467  0.75446  0.55267  1.0000
  H   H896      1.0  0.01217  0.97982  0.53659  1.0000
  H   H897      1.0  0.13118  0.78621  0.63804  1.0000
  H   H898      1.0  0.12138  0.79495  0.59906  1.0000
  H   H899      1.0  0.11389  0.87303  0.52155  1.0000
  H   H900      1.0  0.27920  0.74240  0.64700  1.0000
  C   C567      1.0  0.11761  0.86911  0.53568  1.0000
  C   C568      1.0  0.23847  0.94721  0.49731  1.0000
  Fe  Fe106     1.0  0.04843  0.74936  0.48388  1.0000
  H   H901      1.0  0.10584  0.82345  0.49987  1.0000
  H   H902      1.0  0.12992  0.87576  0.56336  1.0000
  H   H903      1.0  0.27892  0.94077  0.51238  1.0000
  C   C569      1.0  0.10995  0.79514  0.61192  1.0000
  H   H904      1.0  0.05440  0.94914  0.56837  1.0000
  H   H905      1.0  0.26906  0.78635  0.69203  1.0000
  H   H906      1.0  0.12124  0.78711  0.51259  1.0000
  Fe  Fe107     1.0  0.19708  0.92759  0.53857  1.0000
  S   S232      1.0  0.17001  0.96308  0.57141  1.0000
  H   H907      1.0  0.09226  0.80548  0.50737  1.0000
  H   H908      1.0  0.30778  0.77003  0.67155  1.0000
  H   H909      1.0  0.09645  0.79772  0.60729  1.0000
  H   H910      1.0  0.14032  0.76609  0.53568  1.0000
  H   H911      1.0  0.09676  0.79032  0.64941  1.0000
  Fe  Fe108     1.0  0.17359  0.93156  0.57737  1.0000
  C   C570      1.0  0.26700  0.74807  0.73066  1.0000
  H   H912      1.0  0.27252  0.91024  0.51123  1.0000
  C   C571      1.0  0.11927  0.77222  0.49245  1.0000
  C   C572      1.0  0.28670  0.74317  0.72655  1.0000
  H   H913      1.0  0.14922  0.89695  0.52677  1.0000
  C   C573      1.0  0.11294  0.76143  0.61795  1.0000
  Fe  Fe109     1.0  0.05657  0.76665  0.51288  1.0000
  H   H914      1.0  0.16486  0.86489  0.52036  1.0000
  C   C574      1.0  0.06447  0.82360  0.48956  1.0000
  C   C575      1.0  0.20293  0.88498  0.49979  1.0000
  H   H915      1.0  0.12466  0.76007  0.60545  1.0000
  H   H916      1.0  0.12903  0.97398  0.56872  1.0000
  S   S233      1.0  0.21157  0.90622  0.52009  1.0000
  C   C576      1.0  0.11546  0.82210  0.64967  1.0000
  C   C577      1.0  0.12983  0.82642  0.63422  1.0000
  C   C578      1.0  0.14871  0.81962  0.63579  1.0000
  C   C579      1.0  0.15332  0.80858  0.65281  1.0000
  C   C580      1.0  0.13898  0.80387  0.66812  1.0000
  C   C581      1.0  0.12009  0.81068  0.66656  1.0000
  H   H917      1.0  0.12644  0.83523  0.62117  1.0000
  H   H918      1.0  0.15978  0.82319  0.62386  1.0000
  H   H919      1.0  0.14239  0.79549  0.68135  1.0000
  H   H920      1.0  0.10901  0.80728  0.67857  1.0000
  C   C582      1.0  0.00831  0.89969  0.60153  1.0000
  C   C583      1.0  0.02006  0.91099  0.58869  1.0000
  H   H921      1.0  0.26541  0.80487  0.66045  1.0000
  H   H922      1.0  0.09957  0.76317  0.61338  1.0000
  C   C584      1.0  0.13079  0.77448  0.63180  1.0000
  H   H923      1.0  0.02761  0.95760  0.59420  1.0000
  H   H924      1.0  0.03453  0.90476  0.58340  1.0000
  S   S234      1.0  0.08342  0.74561  0.51547  1.0000
  C   C585      1.0  0.17574  0.89429  0.48510  1.0000
  H   H925      1.0  0.10628  0.87724  0.54512  1.0000
  C   C586      1.0  0.25687  0.75072  0.71654  1.0000
  Fe  Fe110     1.0  0.22364  0.75585  0.68815  1.0000
  C   C587      1.0  0.24357  0.96272  0.60294  1.0000
  C   C588      1.0  0.23324  0.96245  0.58986  1.0000
  H   H926      1.0  0.24503  0.95105  0.61485  1.0000
  H   H927      1.0  0.22679  0.95064  0.59174  1.0000
  C   C589      1.0  0.13868  0.91267  0.59781  1.0000
  C   C590      1.0  0.13183  0.89603  0.60421  1.0000
  C   C591      1.0  0.11754  0.89372  0.59678  1.0000
  C   C592      1.0  0.11050  0.90787  0.58257  1.0000
  C   C593      1.0  0.11673  0.92482  0.57681  1.0000
  C   C594      1.0  0.13048  0.92735  0.58478  1.0000
  H   H928      1.0  0.13820  0.88458  0.61406  1.0000
  H   H929      1.0  0.11260  0.88068  0.60146  1.0000
  H   H930      1.0  0.11147  0.93582  0.56575  1.0000
  H   H931      1.0  0.13542  0.94040  0.58014  1.0000
  C   C595      1.0  0.05844  0.79668  0.54006  1.0000
  C   C596      1.0  0.07677  0.78654  0.54065  1.0000
  C   C597      1.0  0.08820  0.79254  0.54899  1.0000
  C   C598      1.0  0.08122  0.80845  0.55711  1.0000
  C   C599      1.0  0.06276  0.81834  0.55693  1.0000
  C   C600      1.0  0.05143  0.81251  0.54833  1.0000
  H   H932      1.0  0.08229  0.77438  0.53431  1.0000
  H   H933      1.0  0.10251  0.78497  0.54898  1.0000
  H   H934      1.0  0.05725  0.83060  0.56325  1.0000
  H   H935      1.0  0.03721  0.82034  0.54801  1.0000
  H   H936      1.0  0.08257  0.82759  0.51438  1.0000
  H   H937      1.0  0.17712  0.92759  0.50797  1.0000
  H   H938      1.0  0.11738  0.85389  0.54136  1.0000
  Fe  Fe111     1.0  0.16521  0.96175  0.54360  1.0000
  C   C601      1.0  0.29611  0.74018  0.70856  1.0000
  S   S235      1.0  0.14369  0.98220  0.52834  1.0000
  S   S236      1.0  0.16963  0.75911  0.70008  1.0000
  Fe  Fe112     1.0  0.20079  0.95766  0.55784  1.0000
  H   H939      1.0  0.14284  0.77355  0.61954  1.0000
  H   H940      1.0  0.06509  0.95201  0.62061  1.0000
  H   H941      1.0  0.16638  0.75360  0.78917  1.0000
  S   S237      1.0  0.16639  0.93074  0.55042  1.0000
  Fe  Fe113     1.0  0.08854  0.75036  0.48393  1.0000
  C   C602      1.0  0.17051  0.74021  0.78481  1.0000
  C   C603      1.0  0.27740  0.81121  0.65993  1.0000
  C   C604      1.0  0.15071  0.86209  0.52175  1.0000
  H   H942      1.0  0.21554  0.87490  0.50269  1.0000
  C   C605      1.0  0.09718  0.77850  0.64283  1.0000
  C   C606      1.0  0.26648  0.74837  0.69835  1.0000
  H   H943      1.0  0.08329  0.78099  0.63900  1.0000
  H   H944      1.0  0.12440  0.90213  0.53593  1.0000
  H   H945      1.0  0.07795  0.94406  0.57173  1.0000
  H   H946      1.0  0.13329  0.89783  0.51236  1.0000
  H   H947      1.0  0.13326  0.76121  0.64253  1.0000
  C   C607      1.0  0.28604  0.74260  0.69457  1.0000
  C   C608      1.0  0.28116  0.79280  0.69082  1.0000
  N   N59       1.0  0.11272  0.77739  0.62612  1.0000
  C   C609      1.0  0.17060  0.91103  0.49190  1.0000
  H   H948      1.0  0.15150  0.84667  0.52688  1.0000
  N   N60       1.0  0.15622  0.86486  0.65493  1.0000
  C   C610      1.0  0.16373  0.85910  0.63657  1.0000
  C   C611      1.0  0.17152  0.86899  0.66110  1.0000
  C   C612      1.0  0.14858  0.84944  0.66907  1.0000
  C   C613      1.0  0.14110  0.88190  0.65295  1.0000
  H   H949      1.0  0.15254  0.85606  0.63139  1.0000
  H   H950      1.0  0.17496  0.84605  0.63763  1.0000
  H   H951      1.0  0.16974  0.87037  0.62555  1.0000
  H   H952      1.0  0.16643  0.87331  0.67497  1.0000
  H   H953      1.0  0.18319  0.85641  0.66262  1.0000
  H   H954      1.0  0.17751  0.88063  0.65070  1.0000
  H   H955      1.0  0.14266  0.85329  0.68309  1.0000
  H   H956      1.0  0.15964  0.83637  0.67102  1.0000
  H   H957      1.0  0.13717  0.84579  0.66469  1.0000
  H   H958      1.0  0.13533  0.88683  0.66646  1.0000
  H   H959      1.0  0.12921  0.87917  0.64855  1.0000
  H   H960      1.0  0.14630  0.89374  0.64212  1.0000
  N   N61       1.0  0.05673  0.94966  0.59617  1.0000
  C   C614      1.0  0.05610  0.92954  0.60374  1.0000
  C   C615      1.0  0.06949  0.95491  0.60496  1.0000
  C   C616      1.0  0.03766  0.96135  0.60046  1.0000
  H   H961      1.0  0.31884  0.74160  0.80962  1.0000
  C   C617      1.0  0.19759  0.90164  0.50680  1.0000
  C   C618      1.0  0.14638  0.78444  0.49109  1.0000
  C   C619      1.0  0.11772  0.98223  0.56183  1.0000
  H   H962      1.0  0.11502  0.74778  0.62830  1.0000
  H   H963      1.0  0.06971  0.97017  0.60015  1.0000
  H   H964      1.0  0.27434  0.95085  0.48907  1.0000
  H   H965      1.0  0.31676  0.79713  0.67824  1.0000
  H   H966      1.0  0.03198  0.95943  0.61594  1.0000
  C   C620      1.0  0.18132  0.91461  0.50286  1.0000
  H   H967      1.0  0.09869  0.76530  0.65381  1.0000
  N   N62       1.0  0.29084  0.79790  0.67092  1.0000
  H   H968      1.0  0.23369  0.92527  0.53218  1.0000
  C   C621      1.0  0.26764  0.94815  0.50434  1.0000
  Fe  Fe114     1.0  0.18865  0.75918  0.71863  1.0000
  H   H969      1.0  0.19612  0.86831  0.48388  1.0000
  H   H970      1.0  0.06475  0.96785  0.56940  1.0000
  H   H971      1.0  0.25083  0.90983  0.50582  1.0000
  H   H972      1.0  0.15449  0.87047  0.55307  1.0000
  C   C622      1.0  0.29832  0.78074  0.66299  1.0000
  C   C623      1.0  0.06372  0.95287  0.57550  1.0000
  C   C624      1.0  0.14059  0.86763  0.55348  1.0000
  H   H973      1.0  0.08421  0.94695  0.60124  1.0000
  C   C625      1.0  0.14069  0.75596  0.54945  1.0000
  H   H974      1.0  0.25506  0.92658  0.53749  1.0000
  C   C626      1.0  0.09138  0.82086  0.50251  1.0000
  C   C627      1.0  0.13571  0.89338  0.52706  1.0000
  H   H975      1.0  0.14779  0.86584  0.50728  1.0000
  H   H976      1.0  0.07041  0.92042  0.60164  1.0000
  N   N63       1.0  0.13615  0.87304  0.53449  1.0000
  H   H977      1.0  0.12984  0.76247  0.56044  1.0000
  H   H978      1.0  0.10488  0.77139  0.49865  1.0000
  H   H979      1.0  0.26827  0.92015  0.48776  1.0000
  H   H980      1.0  0.31117  0.73600  0.70534  1.0000
  C   C628      1.0  0.25215  0.97791  0.60068  1.0000
  H   H981      1.0  0.03770  0.97662  0.59480  1.0000
  H   H982      1.0  0.25962  0.75057  0.74451  1.0000
  C   C629      1.0  0.12841  0.78144  0.50015  1.0000
  H   H983      1.0  0.23748  0.94760  0.53318  1.0000
  S   S238      1.0  0.20820  0.75456  0.66692  1.0000
  C   C630      1.0  0.26161  0.91850  0.50303  1.0000
  H   H984      1.0  0.26155  0.96206  0.50846  1.0000
  H   H985      1.0  0.25665  0.75299  0.61569  1.0000
  H   H986      1.0  0.30669  0.78380  0.64834  1.0000
  S   S239      1.0  0.26572  0.97731  0.61699  1.0000
  H   H987      1.0  0.29351  0.74033  0.68065  1.0000
  S   S240      1.0  0.04010  0.74496  0.51546  1.0000
  H   H988      1.0  0.10955  0.80748  0.61769  1.0000
  C   C631      1.0  0.23176  0.97721  0.57413  1.0000
  H   H989      1.0  0.27148  0.82436  0.66551  1.0000
  H   H990      1.0  0.28428  0.81524  0.64483  1.0000
  C   C632      1.0  0.25135  0.74460  0.62978  1.0000
  H   H991      1.0  0.22712  0.93923  0.50014  1.0000
  H   H992      1.0  0.30146  0.81991  0.67557  1.0000
  H   H993      1.0  0.28815  0.73612  0.80693  1.0000
  H   H994      1.0  0.16863  0.74564  0.62870  1.0000
  H   H995      1.0  0.18066  0.74128  0.65754  1.0000
  H   H996      1.0  0.05497  0.82963  0.50161  1.0000
  C   C633      1.0  0.17694  0.73969  0.76567  1.0000
  H   H997      1.0  0.10737  0.74623  0.55544  1.0000
  H   H998      1.0  0.07255  0.85592  0.49076  1.0000
  H   H999      1.0  0.15816  0.92129  0.48877  1.0000
  H   H1000     1.0  0.09751  0.98429  0.58787  1.0000
  H   H1001     1.0  0.23827  0.74072  0.62916  1.0000
  C   C634      1.0  0.99421  0.93852  0.58914  1.0000
  H   H1002     1.0  0.29655  0.74053  0.78187  1.0000
  H   H1003     1.0  0.15196  0.73922  0.51976  1.0000
  H   H1004     1.0  0.31804  0.95015  0.86027  1.0000
  C   C635      1.0  0.11880  0.74007  0.54462  1.0000
  N   N64       1.0  0.13752  0.73756  0.54880  1.0000
  Fe  Fe115     1.0  0.19265  0.73569  0.69066  1.0000
  Fe  Fe116     1.0  0.60955  0.05590  0.03093  1.0000
  S   S241      1.0  0.60325  0.08610  0.01581  1.0000
  Fe  Fe117     1.0  0.57589  0.06085  0.06232  1.0000
  S   S242      1.0  0.56611  0.09126  0.04959  1.0000
  S   S243      1.0  0.56202  0.04549  0.09016  1.0000
  Fe  Fe118     1.0  0.57350  0.08179  0.02184  1.0000
  Fe  Fe119     1.0  0.59662  0.09260  0.04482  1.0000
  S   S244      1.0  0.60268  0.11673  0.05380  1.0000
  S   S245      1.0  0.58044  0.05124  0.03536  1.0000
  S   S246      1.0  0.60571  0.06264  0.05924  1.0000
  H   H1005     1.0  0.65039  0.17307  0.18758  1.0000
  H   H1006     1.0  0.61614  0.07526  0.09353  1.0000
  H   H1007     1.0  0.57311  0.09332  0.13882  1.0000
  H   H1008     1.0  0.60950  0.18701  0.36200  1.0000
  H   H1009     1.0  0.64341  0.11117  0.21306  1.0000
  Fe  Fe120     1.0  0.60377  0.21487  0.43927  1.0000
  H   H1010     1.0  0.58809  0.11168  0.09747  1.0000
  S   S247      1.0  0.63572  0.04508  0.24332  1.0000
  H   H1011     1.0  0.54731  0.05535  0.01462  1.0000
  H   H1012     1.0  0.59666  0.00809  0.11456  1.0000
  H   H1013     1.0  0.61605  0.01600  0.11734  1.0000
  C   C636      1.0  0.60491  0.00789  0.12493  1.0000
  H   H1014     1.0  0.65211  0.16391  0.21190  1.0000
  C   C637      1.0  0.64461  0.21387  0.47512  1.0000
  S   S248      1.0  0.62802  0.23432  0.38751  1.0000
  H   H1015     1.0  0.61710  0.00610  0.26465  1.0000
  C   C638      1.0  0.56777  0.98891  0.10637  1.0000
  H   H1016     1.0  0.61955  0.21247  0.31226  1.0000
  C   C639      1.0  0.58842  0.09026  0.13261  1.0000
  C   C640      1.0  0.64276  0.06606  0.26455  1.0000
  C   C641      1.0  0.53527  0.21700  0.47592  1.0000
  H   H1017     1.0  0.58398  0.00760  0.04171  1.0000
  H   H1018     1.0  0.64685  0.20288  0.22174  1.0000
  S   S249      1.0  0.59211  0.20675  0.47088  1.0000
  H   H1019     1.0  0.63966  0.99732  0.27102  1.0000
  C   C642      1.0  0.53244  0.05069  0.99573  1.0000
  H   H1020     1.0  0.60884  0.00262  0.03247  1.0000
  C   C643      1.0  0.54590  0.07821  0.99049  1.0000
  C   C644      1.0  0.63764  0.15359  0.36962  1.0000
  C   C645      1.0  0.65168  0.09951  0.07302  1.0000
  C   C646      1.0  0.63741  0.01577  0.99070  1.0000
  S   S250      1.0  0.55754  0.09203  0.99769  1.0000
  H   H1021     1.0  0.64121  0.20831  0.35292  1.0000
  S   S251      1.0  0.64620  0.15364  0.12362  1.0000
  Fe  Fe121     1.0  0.63456  0.20503  0.40477  1.0000
  S   S252      1.0  0.60446  0.20190  0.41507  1.0000
  H   H1022     1.0  0.62035  0.06877  0.11720  1.0000
  C   C647      1.0  0.54252  0.06081  0.00148  1.0000
  H   H1023     1.0  0.63704  0.98585  0.11064  1.0000
  C   C648      1.0  0.63717  0.20516  0.34098  1.0000
  H   H1024     1.0  0.63297  0.11959  0.14075  1.0000
  S   S253      1.0  0.63472  0.21507  0.43049  1.0000
  H   H1025     1.0  0.63800  0.00439  0.24674  1.0000
  H   H1026     1.0  0.64810  0.09774  0.23556  1.0000
  H   H1027     1.0  0.64547  0.21209  0.32761  1.0000
  H   H1028     1.0  0.59181  0.05494  0.12884  1.0000
  H   H1029     1.0  0.64803  0.08243  0.28170  1.0000
  C   C649      1.0  0.60636  0.20261  0.36008  1.0000
  C   C650      1.0  0.62353  0.09252  0.18472  1.0000
  C   C651      1.0  0.63972  0.16523  0.38054  1.0000
  H   H1030     1.0  0.59370  0.10338  0.13036  1.0000
  C   C652      1.0  0.62924  0.07439  0.16061  1.0000
  C   C653      1.0  0.63138  0.09049  0.14658  1.0000
  C   C654      1.0  0.63038  0.10741  0.15166  1.0000
  H   H1031     1.0  0.61004  0.20601  0.37206  1.0000
  H   H1032     1.0  0.60669  0.99109  0.99682  1.0000
  C   C655      1.0  0.62720  0.10825  0.17070  1.0000
  H   H1033     1.0  0.63522  0.08966  0.13185  1.0000
  H   H1034     1.0  0.61578  0.19043  0.32760  1.0000
  C   C656      1.0  0.62733  0.03088  0.99928  1.0000
  H   H1035     1.0  0.62277  0.06314  0.19057  1.0000
  N   N65       1.0  0.59224  0.08372  0.11478  1.0000
  C   C657      1.0  0.62466  0.07554  0.17966  1.0000
  S   S254      1.0  0.63125  0.12762  0.17664  1.0000
  H   H1036     1.0  0.64422  0.21449  0.18833  1.0000
  C   C658      1.0  0.58274  0.09843  0.10095  1.0000
  H   H1037     1.0  0.56334  0.99090  0.03431  1.0000
  H   H1038     1.0  0.62467  0.14867  0.37270  1.0000
  H   H1039     1.0  0.62845  0.16914  0.39204  1.0000
  C   C659      1.0  0.63130  0.99719  0.26086  1.0000
  Fe  Fe122     1.0  0.59810  0.23197  0.39930  1.0000
  H   H1040     1.0  0.59550  0.07950  0.14332  1.0000
  H   H1041     1.0  0.55977  0.21602  0.45313  1.0000
  H   H1042     1.0  0.57247  0.99847  0.00958  1.0000
  C   C660      1.0  0.58512  0.06630  0.11831  1.0000
  H   H1043     1.0  0.44599  0.10752  0.98740  1.0000
  H   H1044     1.0  0.62927  0.07505  0.26281  1.0000
  Fe  Fe123     1.0  0.64968  0.03472  0.17829  1.0000
  H   H1045     1.0  0.62089  0.09312  0.19944  1.0000
  H   H1046     1.0  0.59661  0.21055  0.32654  1.0000
  H   H1047     1.0  0.52961  0.03742  0.00456  1.0000
  H   H1048     1.0  0.56729  0.10196  0.10628  1.0000
  C   C661      1.0  0.61272  0.07989  0.10718  1.0000
  C   C662      1.0  0.55470  0.21478  0.46820  1.0000
  C   C663      1.0  0.65225  0.14814  0.35485  1.0000
  S   S255      1.0  0.63573  0.05229  0.15467  1.0000
  C   C664      1.0  0.56749  0.21058  0.48000  1.0000
  H   H1049     1.0  0.59307  0.01500  0.01696  1.0000
  H   H1050     1.0  0.61852  0.09275  0.10453  1.0000
  H   H1051     1.0  0.56962  0.06875  0.12372  1.0000
  H   H1052     1.0  0.63465  0.18453  0.20564  1.0000
  C   C665      1.0  0.62138  0.11508  0.06479  1.0000
  C   C666      1.0  0.62048  0.12919  0.07433  1.0000
  C   C667      1.0  0.63501  0.12844  0.08327  1.0000
  S   S256      1.0  0.64865  0.13402  0.34121  1.0000
  C   C668      1.0  0.59491  0.00339  0.02949  1.0000
  C   C669      1.0  0.63701  0.10012  0.06431  1.0000
  H   H1053     1.0  0.60851  0.14088  0.07470  1.0000
  H   H1054     1.0  0.63419  0.13950  0.09041  1.0000
  S   S257      1.0  0.63373  0.01989  0.20499  1.0000
  H   H1055     1.0  0.63796  0.08925  0.05689  1.0000
  H   H1056     1.0  0.64855  0.00563  0.99669  1.0000
  C   C670      1.0  0.59332  0.99527  0.07997  1.0000
  C   C671      1.0  0.58642  0.01466  0.07870  1.0000
  C   C672      1.0  0.57021  0.02124  0.09133  1.0000
  C   C673      1.0  0.56094  0.00835  0.10523  1.0000
  N   N66       1.0  0.61301  0.98838  0.13353  1.0000
  H   H1057     1.0  0.58508  0.09379  0.08744  1.0000
  H   H1058     1.0  0.59387  0.02450  0.06816  1.0000
  H   H1059     1.0  0.54835  0.01339  0.11497  1.0000
  H   H1060     1.0  0.58791  0.06096  0.10510  1.0000
  H   H1061     1.0  0.63581  0.20579  0.47186  1.0000
  H   H1062     1.0  0.59088  0.20761  0.36143  1.0000
  C   C674      1.0  0.65081  0.11371  0.08246  1.0000
  C   C675      1.0  0.61195  0.20601  0.32633  1.0000
  C   C676      1.0  0.45874  0.11369  0.98365  1.0000
  C   C677      1.0  0.64940  0.17711  0.20114  1.0000
  C   C678      1.0  0.61299  0.04400  0.99148  1.0000
  S   S258      1.0  0.63266  0.03354  0.01960  1.0000
  N   N67       1.0  0.61675  0.21150  0.34173  1.0000
  H   H1063     1.0  0.64612  0.08603  0.21842  1.0000
  C   C679      1.0  0.65335  0.07027  0.27522  1.0000
  H   H1064     1.0  0.48539  0.08149  0.98601  1.0000
  C   C680      1.0  0.61150  0.23221  0.33955  1.0000
  C   C681      1.0  0.64949  0.05024  0.25622  1.0000
  H   H1065     1.0  0.60607  0.99029  0.07041  1.0000
  Fe  Fe124     1.0  0.65056  0.03017  0.21944  1.0000
  Fe  Fe125     1.0  0.65254  0.13778  0.15172  1.0000
  H   H1066     1.0  0.61796  0.98890  0.20253  1.0000
  H   H1067     1.0  0.52554  0.21993  0.46667  1.0000
  H   H1068     1.0  0.46465  0.11028  0.99658  1.0000
  H   H1069     1.0  0.59521  0.01550  0.13577  1.0000
  H   H1070     1.0  0.63580  0.99602  0.14013  1.0000
  H   H1071     1.0  0.64168  0.18969  0.34184  1.0000
  C   C682      1.0  0.65151  0.09779  0.22021  1.0000
  C   C683      1.0  0.62398  0.98865  0.14712  1.0000
  H   H1072     1.0  0.60519  0.05576  0.99790  1.0000
  H   H1073     1.0  0.61503  0.99598  0.15852  1.0000
  H   H1074     1.0  0.65452  0.21845  0.46179  1.0000
  C   C684      1.0  0.57482  0.98719  0.02225  1.0000
  C   C685      1.0  0.65649  0.17145  0.37681  1.0000
  H   H1075     1.0  0.60475  0.98679  0.25012  1.0000
  H   H1076     1.0  0.48324  0.16445  0.53850  1.0000
  S   S259      1.0  0.62509  0.07541  0.72753  1.0000
  C   C686      1.0  0.58262  0.99103  0.77259  1.0000
  S   S260      1.0  0.64027  0.11782  0.73482  1.0000
  Fe  Fe126     1.0  0.62874  0.05194  0.75263  1.0000
  S   S261      1.0  0.60291  0.04325  0.77298  1.0000
  C   C687      1.0  0.48935  0.11485  0.96343  1.0000
  C   C688      1.0  0.33139  0.00312  0.85489  1.0000
  H   H1077     1.0  0.51656  0.22284  0.62151  1.0000
  H   H1078     1.0  0.36614  0.02908  0.70395  1.0000
  C   C689      1.0  0.50865  0.00889  0.85087  1.0000
  H   H1079     1.0  0.49407  0.15690  0.51662  1.0000
  Fe  Fe127     1.0  0.49940  0.05045  0.94710  1.0000
  S   S262      1.0  0.50591  0.02619  0.93258  1.0000
  C   C690      1.0  0.55049  0.04722  0.92539  1.0000
  Fe  Fe128     1.0  0.47382  0.07485  0.92057  1.0000
  S   S263      1.0  0.47903  0.05299  0.90368  1.0000
  S   S264      1.0  0.45454  0.10236  0.91115  1.0000
  Fe  Fe129     1.0  0.47545  0.03286  0.93153  1.0000
  S   S265      1.0  0.46173  0.00802  0.93718  1.0000
  Fe  Fe130     1.0  0.50897  0.04777  0.90585  1.0000
  S   S266      1.0  0.53184  0.03971  0.88162  1.0000
  S   S267      1.0  0.46817  0.05514  0.94876  1.0000
  S   S268      1.0  0.50452  0.07193  0.92008  1.0000
  H   H1080     1.0  0.57722  0.01673  0.95504  1.0000
  S   S269      1.0  0.46695  0.20276  0.54997  1.0000
  H   H1081     1.0  0.36010  0.03246  0.86830  1.0000
  N   N68       1.0  0.56351  0.02957  0.93167  1.0000
  H   H1082     1.0  0.50470  0.13853  0.55532  1.0000
  H   H1083     1.0  0.35712  0.04140  0.90640  1.0000
  S   S270      1.0  0.50176  0.21623  0.55868  1.0000
  C   C691      1.0  0.34749  0.08214  0.77292  1.0000
  Fe  Fe131     1.0  0.47888  0.20038  0.57496  1.0000
  S   S271      1.0  0.48200  0.17323  0.59661  1.0000
  H   H1084     1.0  0.57077  0.03806  0.70002  1.0000
  H   H1085     1.0  0.54724  0.04750  0.91165  1.0000
  C   C692      1.0  0.58392  0.00135  0.83415  1.0000
  Fe  Fe132     1.0  0.38955  0.11313  0.84027  1.0000
  S   S272      1.0  0.35995  0.12321  0.85519  1.0000
  S   S273      1.0  0.40935  0.09040  0.85644  1.0000
  Fe  Fe133     1.0  0.38099  0.13191  0.80110  1.0000
  S   S274      1.0  0.35084  0.14280  0.81315  1.0000
  S   S275      1.0  0.38915  0.14220  0.76961  1.0000
  Fe  Fe134     1.0  0.36155  0.15064  0.83437  1.0000
  S   S276      1.0  0.34857  0.18036  0.83819  1.0000
  Fe  Fe135     1.0  0.35198  0.11460  0.83250  1.0000
  C   C693      1.0  0.52859  0.16177  0.51463  1.0000
  S   S277      1.0  0.39209  0.14149  0.82127  1.0000
  S   S278      1.0  0.38122  0.10276  0.81865  1.0000
  Fe  Fe136     1.0  0.35883  0.11125  0.65649  1.0000
  S   S279      1.0  0.35419  0.12319  0.68223  1.0000
  C   C694      1.0  0.52576  0.05772  0.97888  1.0000
  Fe  Fe137     1.0  0.39691  0.12283  0.64081  1.0000
  S   S280      1.0  0.39528  0.13521  0.66552  1.0000
  S   S281      1.0  0.41844  0.12624  0.61337  1.0000
  Fe  Fe138     1.0  0.38413  0.10969  0.68316  1.0000
  S   S282      1.0  0.38913  0.09352  0.71208  1.0000
  Fe  Fe139     1.0  0.36545  0.14749  0.66270  1.0000
  S   S283      1.0  0.35149  0.17725  0.66499  1.0000
  S   S284      1.0  0.38832  0.09583  0.65861  1.0000
  S   S285      1.0  0.36757  0.13704  0.63686  1.0000
  H   H1086     1.0  0.58196  0.01547  0.71179  1.0000
  H   H1087     1.0  0.35722  0.06722  0.85682  1.0000
  C   C695      1.0  0.34649  0.07458  0.63290  1.0000
  C   C696      1.0  0.34404  0.06052  0.62498  1.0000
  H   H1088     1.0  0.61025  0.21583  0.49744  1.0000
  H   H1089     1.0  0.57903  0.01082  0.82149  1.0000
  C   C697      1.0  0.32718  0.17966  0.66798  1.0000
  N   N69       1.0  0.51341  0.15996  0.53168  1.0000
  H   H1090     1.0  0.65108  0.03971  0.93626  1.0000
  S   S286      1.0  0.32388  0.03716  0.61972  1.0000
  H   H1091     1.0  0.58572  0.17864  0.70064  1.0000
  H   H1092     1.0  0.60590  0.06355  0.70259  1.0000
  C   C698      1.0  0.38979  0.04888  0.88424  1.0000
  H   H1093     1.0  0.65319  0.20400  0.48507  1.0000
  H   H1094     1.0  0.58475  0.06603  0.69454  1.0000
  H   H1095     1.0  0.51242  0.18720  0.53622  1.0000
  C   C699      1.0  0.38825  0.12849  0.75417  1.0000
  C   C700      1.0  0.38622  0.13738  0.73567  1.0000
  C   C701      1.0  0.38616  0.12682  0.72276  1.0000
  C   C702      1.0  0.38865  0.10721  0.72812  1.0000
  C   C703      1.0  0.39082  0.09829  0.74658  1.0000
  C   C704      1.0  0.39029  0.10891  0.75970  1.0000
  H   H1096     1.0  0.38478  0.15249  0.73124  1.0000
  H   H1097     1.0  0.38453  0.13383  0.70857  1.0000
  H   H1098     1.0  0.37270  0.05000  0.80308  1.0000
  H   H1099     1.0  0.39219  0.10193  0.77382  1.0000
  H   H1100     1.0  0.35833  0.08341  0.75960  1.0000
  H   H1101     1.0  0.61123  0.01203  0.72224  1.0000
  C   C705      1.0  0.63323  0.01395  0.97420  1.0000
  C   C706      1.0  0.47845  0.08566  0.97369  1.0000
  H   H1102     1.0  0.53703  0.04882  0.93590  1.0000
  H   H1103     1.0  0.36015  0.07807  0.63006  1.0000
  H   H1104     1.0  0.38242  0.06416  0.84985  1.0000
  C   C707      1.0  0.46372  0.16088  0.60144  1.0000
  C   C708      1.0  0.45615  0.15290  0.62013  1.0000
  C   C709      1.0  0.44201  0.14250  0.62407  1.0000
  C   C710      1.0  0.43579  0.13955  0.60928  1.0000
  C   C711      1.0  0.44358  0.14730  0.59061  1.0000
  C   C712      1.0  0.45724  0.15819  0.58671  1.0000
  H   H1105     1.0  0.46126  0.15474  0.63159  1.0000
  H   H1106     1.0  0.43628  0.13638  0.63851  1.0000
  H   H1107     1.0  0.43893  0.14495  0.57910  1.0000
  H   H1108     1.0  0.46313  0.16402  0.57228  1.0000
  S   S287      1.0  0.51275  0.04449  0.97267  1.0000
  C   C713      1.0  0.58130  0.02805  0.91748  1.0000
  H   H1109     1.0  0.43573  0.03217  0.87981  1.0000
  H   H1110     1.0  0.46624  0.07867  0.97766  1.0000
  N   N70       1.0  0.47269  0.10632  0.96798  1.0000
  S   S288      1.0  0.61445  0.02624  0.94502  1.0000
  H   H1111     1.0  0.33663  0.20796  0.79965  1.0000
  H   H1112     1.0  0.38386  0.18512  0.77638  1.0000
  H   H1113     1.0  0.49264  0.18065  0.51818  1.0000
  Fe  Fe140     1.0  0.44824  0.22919  0.55797  1.0000
  H   H1114     1.0  0.35496  0.06647  0.89832  1.0000
  H   H1115     1.0  0.60756  0.98857  0.85770  1.0000
  H   H1116     1.0  0.58828  0.03993  0.91569  1.0000
  C   C714      1.0  0.46428  0.11099  0.95117  1.0000
  H   H1117     1.0  0.37019  0.21231  0.75333  1.0000
  H   H1118     1.0  0.47452  0.10586  0.93898  1.0000
  H   H1119     1.0  0.34109  0.05823  0.70030  1.0000
  S   S289      1.0  0.33325  0.10084  0.65607  1.0000
  C   C715      1.0  0.61904  0.02727  0.96631  1.0000
  C   C716      1.0  0.43239  0.99000  0.90954  1.0000
  C   C717      1.0  0.33983  0.05449  0.68736  1.0000
  C   C718      1.0  0.43978  0.09986  0.89748  1.0000
  C   C719      1.0  0.43258  0.11527  0.88425  1.0000
  C   C720      1.0  0.42224  0.11287  0.87217  1.0000
  C   C721      1.0  0.41912  0.09501  0.87331  1.0000
  C   C722      1.0  0.42561  0.07985  0.88710  1.0000
  C   C723      1.0  0.43578  0.08228  0.89918  1.0000
  H   H1120     1.0  0.43544  0.12897  0.88297  1.0000
  H   H1121     1.0  0.41727  0.12467  0.86159  1.0000
  H   H1122     1.0  0.42301  0.06606  0.88834  1.0000
  H   H1123     1.0  0.44043  0.07050  0.90991  1.0000
  C   C724      1.0  0.56717  0.02970  0.95004  1.0000
  C   C725      1.0  0.55502  0.01333  0.93373  1.0000
  H   H1124     1.0  0.51522  0.13051  0.53361  1.0000
  H   H1125     1.0  0.40233  0.04675  0.87264  1.0000
  H   H1126     1.0  0.37497  0.01998  0.88471  1.0000
  C   C726      1.0  0.52955  0.07488  0.96760  1.0000
  H   H1127     1.0  0.55713  0.00289  0.79026  1.0000
  H   H1128     1.0  0.48861  0.07964  0.96202  1.0000
  C   C727      1.0  0.37316  0.03224  0.87274  1.0000
  H   H1129     1.0  0.52486  0.08027  0.95441  1.0000
  H   H1130     1.0  0.32954  0.15369  0.65958  1.0000
  C   C728      1.0  0.60892  0.04226  0.97498  1.0000
  H   H1131     1.0  0.32705  0.10767  0.71396  1.0000
  S   S290      1.0  0.64820  0.06462  0.76134  1.0000
  S   S291      1.0  0.62898  0.99512  0.90858  1.0000
  C   C729      1.0  0.52601  0.01412  0.84283  1.0000
  C   C730      1.0  0.53349  0.02315  0.85248  1.0000
  C   C731      1.0  0.52386  0.02647  0.87036  1.0000
  C   C732      1.0  0.50709  0.02021  0.87871  1.0000
  C   C733      1.0  0.49918  0.01202  0.86879  1.0000
  H   H1132     1.0  0.39205  0.03689  0.89636  1.0000
  H   H1133     1.0  0.54642  0.02804  0.84590  1.0000
  H   H1134     1.0  0.50018  0.02157  0.89291  1.0000
  H   H1135     1.0  0.64942  0.22109  0.70927  1.0000
  H   H1136     1.0  0.57332  0.04194  0.94912  1.0000
  H   H1137     1.0  0.33267  0.07290  0.81013  1.0000
  C   C734      1.0  0.44700  0.02191  0.90505  1.0000
  C   C735      1.0  0.44936  0.00712  0.92058  1.0000
  H   H1138     1.0  0.61212  0.20572  0.68376  1.0000
  H   H1139     1.0  0.59136  0.01485  0.92176  1.0000
  H   H1140     1.0  0.63385  0.18862  0.68317  1.0000
  H   H1141     1.0  0.45211  0.03443  0.90342  1.0000
  H   H1142     1.0  0.61520  0.15408  0.69954  1.0000
  H   H1143     1.0  0.53605  0.21023  0.52232  1.0000
  C   C736      1.0  0.59550  0.02306  0.77250  1.0000
  C   C737      1.0  0.57752  0.02054  0.78256  1.0000
  C   C738      1.0  0.57112  0.00456  0.78266  1.0000
  H   H1144     1.0  0.61443  0.15333  0.72378  1.0000
  C   C739      1.0  0.58462  0.02901  0.70220  1.0000
  C   C740      1.0  0.60706  0.00954  0.76245  1.0000
  H   H1145     1.0  0.56845  0.03104  0.79023  1.0000
  S   S292      1.0  0.41862  0.00393  0.87681  1.0000
  H   H1146     1.0  0.36587  0.07508  0.80115  1.0000
  H   H1147     1.0  0.62102  0.01125  0.75485  1.0000
  H   H1148     1.0  0.58046  0.02924  0.73861  1.0000
  H   H1149     1.0  0.38528  0.02944  0.86092  1.0000
  H   H1150     1.0  0.34947  0.06148  0.67519  1.0000
  H   H1151     1.0  0.38939  0.22033  0.59998  1.0000
  C   C741      1.0  0.34190  0.00410  0.82122  1.0000
  C   C742      1.0  0.33132  0.02515  0.70552  1.0000
  H   H1152     1.0  0.56476  0.99975  0.93783  1.0000
  H   H1153     1.0  0.33378  0.08394  0.76901  1.0000
  H   H1154     1.0  0.57040  0.20563  0.50881  1.0000
  Fe  Fe141     1.0  0.64664  0.08665  0.73470  1.0000
  N   N71       1.0  0.39401  0.19047  0.61102  1.0000
  C   C743      1.0  0.39420  0.20974  0.61215  1.0000
  C   C744      1.0  0.40037  0.17690  0.62744  1.0000
  C   C745      1.0  0.40677  0.18590  0.59344  1.0000
  C   C746      1.0  0.37473  0.18929  0.61109  1.0000
  C   C747      1.0  0.35372  0.18245  0.76530  1.0000
  H   H1155     1.0  0.40687  0.17147  0.59206  1.0000
  H   H1156     1.0  0.38486  0.21358  0.62536  1.0000
  H   H1157     1.0  0.40053  0.16221  0.62689  1.0000
  H   H1158     1.0  0.41487  0.17739  0.62792  1.0000
  H   H1159     1.0  0.39093  0.17976  0.64099  1.0000
  H   H1160     1.0  0.42149  0.18648  0.59304  1.0000
  H   H1161     1.0  0.40258  0.19603  0.58074  1.0000
  H   H1162     1.0  0.64488  0.05835  0.96953  1.0000
  H   H1163     1.0  0.37416  0.17489  0.61024  1.0000
  C   C748      1.0  0.44202  0.99115  0.92279  1.0000
  H   H1164     1.0  0.36476  0.19248  0.62428  1.0000
  N   N72       1.0  0.47343  0.06788  0.84270  1.0000
  C   C749      1.0  0.47261  0.08304  0.85227  1.0000
  C   C750      1.0  0.46437  0.05308  0.85626  1.0000
  C   C751      1.0  0.49327  0.05965  0.83538  1.0000
  C   C752      1.0  0.46342  0.07575  0.82695  1.0000
  H   H1165     1.0  0.47946  0.09440  0.84251  1.0000
  H   H1166     1.0  0.47973  0.07759  0.86446  1.0000
  H   H1167     1.0  0.45786  0.08968  0.85781  1.0000
  H   H1168     1.0  0.46540  0.04102  0.84976  1.0000
  H   H1169     1.0  0.47101  0.04732  0.86875  1.0000
  H   H1170     1.0  0.44921  0.05869  0.86145  1.0000
  H   H1171     1.0  0.49449  0.04771  0.82863  1.0000
  H   H1172     1.0  0.50123  0.05411  0.84694  1.0000
  H   H1173     1.0  0.50048  0.07028  0.82474  1.0000
  H   H1174     1.0  0.46980  0.08702  0.81641  1.0000
  H   H1175     1.0  0.44837  0.08208  0.83211  1.0000
  H   H1176     1.0  0.46367  0.06466  0.81950  1.0000
  H   H1177     1.0  0.34429  0.04854  0.76998  1.0000
  H   H1178     1.0  0.63310  0.05989  0.94081  1.0000
  C   C753      1.0  0.35686  0.21390  0.76411  1.0000
  H   H1179     1.0  0.36946  0.07953  0.86555  1.0000
  H   H1180     1.0  0.49851  0.23126  0.59617  1.0000
  C   C754      1.0  0.61310  0.02581  0.71276  1.0000
  C   C755      1.0  0.61931  0.16073  0.70904  1.0000
  H   H1181     1.0  0.64129  0.00252  0.96739  1.0000
  H   H1182     1.0  0.53330  0.01190  0.82886  1.0000
  C   C756      1.0  0.35603  0.05315  0.89386  1.0000
  H   H1183     1.0  0.34259  0.05417  0.88969  1.0000
  H   H1184     1.0  0.45410  0.12928  0.97987  1.0000
  H   H1185     1.0  0.52682  0.17649  0.50620  1.0000
  C   C757      1.0  0.53940  0.08514  0.97348  1.0000
  N   N73       1.0  0.60389  0.99196  0.82938  1.0000
  H   H1186     1.0  0.33218  0.02871  0.71872  1.0000
  H   H1187     1.0  0.33636  0.11980  0.80164  1.0000
  Fe  Fe142     1.0  0.48823  0.22064  0.53409  1.0000
  H   H1188     1.0  0.54187  0.01371  0.94477  1.0000
  C   C758      1.0  0.61829  0.19034  0.68651  1.0000
  C   C759      1.0  0.56061  0.20894  0.49957  1.0000
  C   C760      1.0  0.43027  0.00477  0.89393  1.0000
  H   H1189     1.0  0.59795  0.05264  0.96891  1.0000
  H   H1190     1.0  0.33907  0.04797  0.81214  1.0000
  S   S293      1.0  0.41668  0.23336  0.56448  1.0000
  S   S294      1.0  0.33485  0.99448  0.87826  1.0000
  H   H1191     1.0  0.35737  0.22411  0.77228  1.0000
  H   H1192     1.0  0.63282  0.18739  0.71641  1.0000
  H   H1193     1.0  0.50278  0.17137  0.55682  1.0000
  H   H1194     1.0  0.40864  0.21113  0.61183  1.0000
  H   H1195     1.0  0.61115  0.20464  0.71779  1.0000
  N   N74       1.0  0.59486  0.03835  0.71012  1.0000
  H   H1196     1.0  0.61448  0.18431  0.67632  1.0000
  C   C761      1.0  0.58362  0.04235  0.72852  1.0000
  C   C762      1.0  0.33607  0.06160  0.80205  1.0000
  H   H1197     1.0  0.55405  0.03052  0.96111  1.0000
  H   H1198     1.0  0.36878  0.04939  0.76405  1.0000
  H   H1199     1.0  0.35589  0.05323  0.61602  1.0000
  N   N75       1.0  0.37231  0.05003  0.87818  1.0000
  H   H1200     1.0  0.56996  0.05218  0.72703  1.0000
  S   S295      1.0  0.45902  0.22577  0.58399  1.0000
  H   H1201     1.0  0.36863  0.17398  0.79615  1.0000
  H   H1202     1.0  0.48589  0.00774  0.87519  1.0000
  C   C763      1.0  0.65586  0.08290  0.93802  1.0000
  C   C764      1.0  0.51411  0.17223  0.54385  1.0000
  N   N76       1.0  0.61138  0.18121  0.70624  1.0000
  H   H1203     1.0  0.50704  0.98974  0.91186  1.0000
  H   H1204     1.0  0.54266  0.15809  0.51832  1.0000
  H   H1205     1.0  0.63908  0.15357  0.74216  1.0000
  C   C765      1.0  0.37024  0.06590  0.86186  1.0000
  C   C766      1.0  0.33651  0.19834  0.79068  1.0000
  H   H1206     1.0  0.61409  0.01572  0.83057  1.0000
  H   H1207     1.0  0.34655  0.09423  0.77927  1.0000
  C   C767      1.0  0.61725  0.18927  0.71922  1.0000
  H   H1208     1.0  0.34199  0.18795  0.75761  1.0000
  Fe  Fe143     1.0  0.64977  0.05770  0.71170  1.0000
  C   C768      1.0  0.43760  0.02067  0.89172  1.0000
  H   H1209     1.0  0.52871  0.15250  0.50521  1.0000
  C   C769      1.0  0.54114  0.21152  0.50726  1.0000
  C   C770      1.0  0.52837  0.21545  0.49545  1.0000
  H   H1210     1.0  0.60188  0.98832  0.80258  1.0000
  H   H1211     1.0  0.58495  0.17785  0.72497  1.0000
  H   H1212     1.0  0.36941  0.19937  0.59893  1.0000
  C   C771      1.0  0.51587  0.14021  0.54226  1.0000
  N   N77       1.0  0.35216  0.06395  0.78603  1.0000
  H   H1213     1.0  0.38959  0.06206  0.88853  1.0000
  C   C772      1.0  0.35639  0.04840  0.77594  1.0000
  H   H1214     1.0  0.62101  0.03229  0.71905  1.0000
  S   S296      1.0  0.32956  0.09795  0.83961  1.0000
  C   C773      1.0  0.33124  0.08395  0.64459  1.0000
  N   N78       1.0  0.35431  0.19559  0.77663  1.0000
  C   C774      1.0  0.59065  0.18453  0.71018  1.0000
  H   H1215     1.0  0.59278  0.02577  0.68833  1.0000
  H   H1216     1.0  0.35932  0.03441  0.78557  1.0000
  S   S297      1.0  0.49858  0.99842  0.83880  1.0000
  C   C775      1.0  0.36872  0.06360  0.79327  1.0000
  H   H1217     1.0  0.34510  0.22031  0.75652  1.0000
  C   C776      1.0  0.34534  0.99808  0.83958  1.0000
  H   H1218     1.0  0.39322  0.08311  0.75059  1.0000
  C   C777      1.0  0.61542  0.00641  0.82073  1.0000
  H   H1219     1.0  0.58425  0.19989  0.70812  1.0000
  H   H1220     1.0  0.50001  0.10980  0.95145  1.0000
  H   H1221     1.0  0.58154  0.01002  0.84486  1.0000
  C   C778      1.0  0.37016  0.18770  0.78648  1.0000
  H   H1222     1.0  0.59120  0.04889  0.73517  1.0000
  H   H1223     1.0  0.54208  0.09852  0.96483  1.0000
  H   H1224     1.0  0.35112  0.03587  0.65886  1.0000
  H   H1225     1.0  0.55164  0.01306  0.92021  1.0000
  H   H1226     1.0  0.52964  0.13540  0.54667  1.0000
  C   C779      1.0  0.59815  0.05620  0.69701  1.0000
  C   C780      1.0  0.49503  0.16571  0.52601  1.0000
  S   S298      1.0  0.50387  0.21709  0.50448  1.0000
  C   C781      1.0  0.32458  0.01540  0.81793  1.0000
  H   H1227     1.0  0.63058  0.99991  0.81673  1.0000
  H   H1228     1.0  0.35268  0.99986  0.80951  1.0000
  H   H1229     1.0  0.55652  0.05974  0.92360  1.0000
  H   H1230     1.0  0.57899  0.02781  0.90349  1.0000
  H   H1231     1.0  0.65325  0.03259  0.65536  1.0000
  H   H1232     1.0  0.52775  0.16832  0.54847  1.0000
  H   H1233     1.0  0.45193  0.10441  0.95388  1.0000
  H   H1234     1.0  0.38110  0.06555  0.78158  1.0000
  Fe  Fe144     1.0  0.62337  0.99742  0.93862  1.0000
  H   H1235     1.0  0.62222  0.02297  0.69908  1.0000
  H   H1236     1.0  0.60689  0.05369  0.68306  1.0000
  H   H1237     1.0  0.57471  0.99093  0.83998  1.0000
  C   C782      1.0  0.65369  0.14705  0.73801  1.0000
  H   H1238     1.0  0.61261  0.18243  0.73422  1.0000
  H   H1239     1.0  0.36758  0.01062  0.69215  1.0000
  C   C783      1.0  0.62969  0.23268  0.69094  1.0000
  H   H1240     1.0  0.36706  0.17982  0.75471  1.0000
  H   H1241     1.0  0.32418  0.20447  0.78387  1.0000
  S   S299      1.0  0.64662  0.05194  0.68496  1.0000
  H   H1242     1.0  0.35181  0.16848  0.77435  1.0000
  H   H1243     1.0  0.61106  0.01562  0.80767  1.0000
  N   N79       1.0  0.34411  0.03386  0.68891  1.0000
  H   H1244     1.0  0.63786  0.22473  0.68032  1.0000
  H   H1245     1.0  0.48552  0.13049  0.95937  1.0000
  H   H1246     1.0  0.63496  0.15766  0.70622  1.0000
  C   C784      1.0  0.36377  0.02616  0.69106  1.0000
  H   H1247     1.0  0.33410  0.18478  0.80034  1.0000
  H   H1248     1.0  0.32527  0.06094  0.68528  1.0000
  C   C785      1.0  0.32644  0.05559  0.62891  1.0000
  H   H1249     1.0  0.32319  0.06189  0.79726  1.0000
  H   H1250     1.0  0.56121  0.98937  0.87901  1.0000
  H   H1251     1.0  0.37377  0.03252  0.67876  1.0000
  S   S300      1.0  0.65185  0.03328  0.73629  1.0000
  H   H1252     1.0  0.44010  0.98724  0.82837  1.0000
  C   C786      1.0  0.60055  0.99365  0.76235  1.0000
  H   H1253     1.0  0.45947  0.12646  0.94652  1.0000
  H   H1254     1.0  0.35857  0.98908  0.84191  1.0000
  C   C787      1.0  0.61963  0.22346  0.50046  1.0000
  H   H1255     1.0  0.32697  0.03538  0.66946  1.0000
  H   H1256     1.0  0.37097  0.19715  0.79533  1.0000
  H   H1257     1.0  0.64120  0.08778  0.94551  1.0000
  C   C788      1.0  0.63637  0.23072  0.70726  1.0000
  H   H1258     1.0  0.61049  0.23540  0.50683  1.0000
  C   C789      1.0  0.64801  0.05538  0.93379  1.0000
  C   C790      1.0  0.34160  0.02963  0.67167  1.0000
  H   H1259     1.0  0.65348  0.23093  0.49796  1.0000
  H   H1260     1.0  0.34454  0.01420  0.67236  1.0000
  C   C791      1.0  0.32414  0.18642  0.83910  1.0000
  H   H1261     1.0  0.33451  0.00954  0.70746  1.0000
  H   H1262     1.0  0.62725  0.21362  0.51124  1.0000
  H   H1263     1.0  0.49635  0.11120  0.97567  1.0000
  H   H1264     1.0  0.64912  0.06082  0.91832  1.0000
  N   N80       1.0  0.63285  0.23017  0.48311  1.0000
  H   H1265     1.0  0.50670  0.35189  0.30313  1.0000
  H   H1266     1.0  0.43668  0.45888  0.38828  1.0000
  H   H1267     1.0  0.62577  0.31946  0.36475  1.0000
  H   H1268     1.0  0.45220  0.46426  0.39976  1.0000
  H   H1269     1.0  0.61858  0.47156  0.36363  1.0000
  H   H1270     1.0  0.56536  0.48215  0.28532  1.0000
  C   C792      1.0  0.54469  0.45984  0.31098  1.0000
  S   S301      1.0  0.62045  0.36600  0.35341  1.0000
  C   C793      1.0  0.54411  0.34217  0.29117  1.0000
  C   C794      1.0  0.56945  0.47746  0.29931  1.0000
  C   C795      1.0  0.58825  0.32919  0.37469  1.0000
  H   H1271     1.0  0.58805  0.29242  0.38821  1.0000
  H   H1272     1.0  0.65029  0.40979  0.36772  1.0000
  S   S302      1.0  0.32923  0.43786  0.45588  1.0000
  H   H1273     1.0  0.61261  0.33663  0.39082  1.0000
  H   H1274     1.0  0.55395  0.47973  0.46980  1.0000
  S   S303      1.0  0.49172  0.44108  0.30814  1.0000
  H   H1275     1.0  0.62918  0.38716  0.37577  1.0000
  Fe  Fe145     1.0  0.62434  0.34369  0.29372  1.0000
  S   S304      1.0  0.59499  0.34969  0.28896  1.0000
  H   H1276     1.0  0.34395  0.45152  0.48104  1.0000
  Fe  Fe146     1.0  0.61228  0.36073  0.32861  1.0000
  S   S305      1.0  0.58179  0.36787  0.32723  1.0000
  Fe  Fe147     1.0  0.58713  0.33947  0.32030  1.0000
  S   S306      1.0  0.56390  0.32341  0.33200  1.0000
  Fe  Fe148     1.0  0.59169  0.37770  0.29623  1.0000
  S   S307      1.0  0.57723  0.40473  0.27950  1.0000
  S   S308      1.0  0.61664  0.33122  0.32469  1.0000
  S   S309      1.0  0.62199  0.37281  0.29792  1.0000
  H   H1277     1.0  0.50475  0.37686  0.29455  1.0000
  C   C796      1.0  0.64972  0.31676  0.26054  1.0000
  H   H1278     1.0  0.64342  0.38125  0.31809  1.0000
  H   H1279     1.0  0.59277  0.33053  0.40867  1.0000
  C   C797      1.0  0.55894  0.47513  0.45606  1.0000
  C   C798      1.0  0.65247  0.30094  0.22955  1.0000
  S   S310      1.0  0.65100  0.32788  0.27794  1.0000
  C   C799      1.0  0.61857  0.30794  0.37361  1.0000
  H   H1280     1.0  0.54441  0.33998  0.27699  1.0000
  H   H1281     1.0  0.56590  0.44015  0.33621  1.0000
  S   S311      1.0  0.36167  0.48358  0.36779  1.0000
  Fe  Fe149     1.0  0.33609  0.46580  0.43871  1.0000
  S   S312      1.0  0.57708  0.24044  0.38073  1.0000
  H   H1282     1.0  0.40035  0.47919  0.40988  1.0000
  H   H1283     1.0  0.54083  0.44597  0.31785  1.0000
  H   H1284     1.0  0.43055  0.45760  0.41331  1.0000
  H   H1285     1.0  0.60097  0.28903  0.40615  1.0000
  C   C800      1.0  0.54142  0.37574  0.27973  1.0000
  H   H1286     1.0  0.62864  0.29772  0.38184  1.0000
  H   H1287     1.0  0.58452  0.32268  0.36482  1.0000
  H   H1288     1.0  0.54211  0.37436  0.26516  1.0000
  N   N81       1.0  0.60102  0.31540  0.38615  1.0000
  H   H1289     1.0  0.61271  0.23597  0.46555  1.0000
  H   H1290     1.0  0.57490  0.33515  0.38369  1.0000
  H   H1291     1.0  0.61585  0.30044  0.36400  1.0000
  H   H1292     1.0  0.55891  0.34032  0.29236  1.0000
  H   H1293     1.0  0.61490  0.23672  0.35102  1.0000
  C   C801      1.0  0.64882  0.40356  0.35690  1.0000
  H   H1294     1.0  0.51293  0.36129  0.27822  1.0000
  H   H1295     1.0  0.54076  0.46419  0.29691  1.0000
  N   N82       1.0  0.53301  0.36094  0.29410  1.0000
  H   H1296     1.0  0.58471  0.47712  0.29701  1.0000
  H   H1297     1.0  0.42632  0.48141  0.16433  1.0000
  C   C802      1.0  0.53302  0.36303  0.31313  1.0000
  H   H1298     1.0  0.57850  0.30488  0.40709  1.0000
  C   C803      1.0  0.56853  0.30021  0.34506  1.0000
  C   C804      1.0  0.58625  0.29144  0.34918  1.0000
  C   C805      1.0  0.58901  0.27321  0.36061  1.0000
  C   C806      1.0  0.57418  0.26357  0.36731  1.0000
  C   C807      1.0  0.55672  0.27217  0.36260  1.0000
  C   C808      1.0  0.55384  0.29050  0.35176  1.0000
  H   H1299     1.0  0.59777  0.29866  0.34349  1.0000
  H   H1300     1.0  0.60263  0.26654  0.36396  1.0000
  H   H1301     1.0  0.54528  0.26473  0.36761  1.0000
  H   H1302     1.0  0.54014  0.29715  0.34856  1.0000
  H   H1303     1.0  0.54748  0.36240  0.31464  1.0000
  C   C809      1.0  0.63463  0.38283  0.34739  1.0000
  S   S313      1.0  0.63616  0.26936  0.41465  1.0000
  H   H1304     1.0  0.57388  0.46756  0.45522  1.0000
  H   H1305     1.0  0.53316  0.39009  0.28127  1.0000
  C   C810      1.0  0.59172  0.29977  0.39739  1.0000
  H   H1306     1.0  0.52762  0.35155  0.32431  1.0000
  C   C811      1.0  0.51567  0.43148  0.30044  1.0000
  C   C812      1.0  0.52568  0.43903  0.28278  1.0000
  C   C813      1.0  0.54456  0.43072  0.27656  1.0000
  C   C814      1.0  0.55362  0.41491  0.28800  1.0000
  C   C815      1.0  0.54375  0.40759  0.30583  1.0000
  C   C816      1.0  0.52475  0.41571  0.31193  1.0000
  H   H1307     1.0  0.51872  0.45096  0.27366  1.0000
  H   H1308     1.0  0.55210  0.43647  0.26273  1.0000
  H   H1309     1.0  0.55066  0.39562  0.31488  1.0000
  H   H1310     1.0  0.51709  0.40990  0.32566  1.0000
  H   H1311     1.0  0.52415  0.37668  0.31617  1.0000
  Fe  Fe150     1.0  0.48352  0.47283  0.30016  1.0000
  H   H1312     1.0  0.53569  0.47030  0.31945  1.0000
  C   C817      1.0  0.63911  0.31745  0.23240  1.0000
  H   H1313     1.0  0.57348  0.43021  0.30582  1.0000
  H   H1314     1.0  0.55602  0.37510  0.28091  1.0000
  C   C818      1.0  0.56921  0.45403  0.32829  1.0000
  C   C819      1.0  0.63678  0.39083  0.36141  1.0000
  H   H1315     1.0  0.59479  0.34119  0.36602  1.0000
  H   H1316     1.0  0.58436  0.45321  0.32751  1.0000
  H   H1317     1.0  0.64781  0.45803  0.37587  1.0000
  C   C820      1.0  0.63767  0.32532  0.24794  1.0000
  H   H1318     1.0  0.56091  0.46476  0.33676  1.0000
  C   C821      1.0  0.51348  0.36281  0.29242  1.0000
  H   H1319     1.0  0.53838  0.33065  0.30199  1.0000
  H   H1320     1.0  0.62785  0.33842  0.24969  1.0000
  H   H1321     1.0  0.63032  0.32449  0.22225  1.0000
  C   C822      1.0  0.60561  0.32472  0.39893  1.0000
  H   H1322     1.0  0.55063  0.46481  0.45627  1.0000
  H   H1323     1.0  0.59158  0.44354  0.29661  1.0000
  C   C823      1.0  0.62057  0.47627  0.37529  1.0000
  H   H1324     1.0  0.61532  0.31465  0.40771  1.0000
  N   N83       1.0  0.56490  0.45894  0.30926  1.0000
  C   C824      1.0  0.57625  0.44444  0.29850  1.0000
  H   H1325     1.0  0.65514  0.24546  0.47479  1.0000
  C   C825      1.0  0.56374  0.48475  0.42210  1.0000
  S   S314      1.0  0.36451  0.46964  0.42154  1.0000
  H   H1326     1.0  0.65028  0.29070  0.43239  1.0000
  C   C826      1.0  0.63712  0.46859  0.38222  1.0000
  H   H1327     1.0  0.39539  0.47369  0.34042  1.0000
  H   H1328     1.0  0.57305  0.44743  0.28421  1.0000
  C   C827      1.0  0.63989  0.47482  0.39709  1.0000
  C   C828      1.0  0.64450  0.38769  0.32888  1.0000
  C   C829      1.0  0.43717  0.46571  0.39960  1.0000
  H   H1329     1.0  0.63163  0.24817  0.45583  1.0000
  H   H1330     1.0  0.61901  0.23948  0.32586  1.0000
  H   H1331     1.0  0.40625  0.48076  0.38477  1.0000
  C   C830      1.0  0.62212  0.24307  0.46920  1.0000
  S   S315      1.0  0.59502  0.24464  0.42413  1.0000
  Fe  Fe151     1.0  0.62585  0.24406  0.41390  1.0000
  H   H1332     1.0  0.55560  0.47472  0.42127  1.0000
  H   H1333     1.0  0.57883  0.47752  0.42023  1.0000
  C   C831      1.0  0.33458  0.42778  0.47845  1.0000
  H   H1334     1.0  0.32614  0.40200  0.48026  1.0000
  H   H1335     1.0  0.61324  0.25567  0.47459  1.0000
  H   H1336     1.0  0.59613  0.23749  0.34023  1.0000
  H   H1337     1.0  0.43998  0.48434  0.17935  1.0000
  S   S316      1.0  0.65617  0.29281  0.20860  1.0000
  C   C832      1.0  0.65570  0.26354  0.42527  1.0000
  C   C833      1.0  0.65633  0.40053  0.32434  1.0000
  C   C834      1.0  0.50283  0.24215  0.60000  1.0000
  H   H1338     1.0  0.49263  0.30305  0.67754  1.0000
  H   H1339     1.0  0.58824  0.28240  0.55627  1.0000
  H   H1340     1.0  0.36350  0.38972  0.58246  1.0000
  S   S317      1.0  0.34489  0.40181  0.53844  1.0000
  H   H1341     1.0  0.64405  0.28520  0.66744  1.0000
  S   S318      1.0  0.41084  0.45228  0.57944  1.0000
  H   H1342     1.0  0.54694  0.29863  0.55587  1.0000
  H   H1343     1.0  0.63670  0.25267  0.49364  1.0000
  S   S319      1.0  0.36640  0.47543  0.73311  1.0000
  H   H1344     1.0  0.56008  0.24643  0.56270  1.0000
  H   H1345     1.0  0.47190  0.39657  0.67064  1.0000
  H   H1346     1.0  0.48940  0.41471  0.68084  1.0000
  H   H1347     1.0  0.53835  0.29070  0.58064  1.0000
  Fe  Fe152     1.0  0.48030  0.24203  0.56518  1.0000
  Fe  Fe153     1.0  0.40465  0.40512  0.63915  1.0000
  S   S320      1.0  0.42346  0.40349  0.61085  1.0000
  S   S321      1.0  0.38034  0.39048  0.64828  1.0000
  Fe  Fe154     1.0  0.42361  0.43263  0.64631  1.0000
  S   S322      1.0  0.44373  0.43326  0.61825  1.0000
  S   S323      1.0  0.42800  0.45164  0.66294  1.0000
  Fe  Fe155     1.0  0.41880  0.43481  0.60664  1.0000
  H   H1348     1.0  0.33139  0.45694  0.73858  1.0000
  Fe  Fe156     1.0  0.44662  0.40189  0.62523  1.0000
  S   S324      1.0  0.47561  0.38438  0.61649  1.0000
  S   S325      1.0  0.39834  0.43670  0.63406  1.0000
  S   S326      1.0  0.42813  0.40095  0.65418  1.0000
  Fe  Fe157     1.0  0.35736  0.32988  0.54706  1.0000
  S   S327      1.0  0.35179  0.31822  0.57816  1.0000
  S   S328      1.0  0.36985  0.31039  0.52674  1.0000
  C   C835      1.0  0.33129  0.40971  0.48745  1.0000
  C   C836      1.0  0.36497  0.42576  0.56482  1.0000
  N   N84       1.0  0.48559  0.41859  0.65257  1.0000
  H   H1349     1.0  0.47399  0.43639  0.67278  1.0000
  S   S329      1.0  0.37304  0.35076  0.54852  1.0000
  C   C837      1.0  0.40983  0.45859  0.68161  1.0000
  Fe  Fe158     1.0  0.57985  0.26656  0.65726  1.0000
  S   S330      1.0  0.57725  0.29782  0.64583  1.0000
  C   C838      1.0  0.57989  0.27359  0.55347  1.0000
  Fe  Fe159     1.0  0.54760  0.26510  0.64009  1.0000
  S   S331      1.0  0.54285  0.29578  0.62699  1.0000
  H   H1350     1.0  0.33218  0.38752  0.51245  1.0000
  Fe  Fe160     1.0  0.57426  0.29159  0.61921  1.0000
  S   S332      1.0  0.58731  0.30564  0.59003  1.0000
  Fe  Fe161     1.0  0.54595  0.29938  0.65464  1.0000
  S   S333      1.0  0.52360  0.32060  0.66929  1.0000
  S   S334      1.0  0.57868  0.26042  0.62993  1.0000
  S   S335      1.0  0.54877  0.26855  0.66848  1.0000
  H   H1351     1.0  0.63787  0.26955  0.68945  1.0000
  H   H1352     1.0  0.46201  0.29182  0.64265  1.0000
  C   C839      1.0  0.33471  0.40147  0.50569  1.0000
  C   C840      1.0  0.49814  0.26092  0.59077  1.0000
  H   H1353     1.0  0.49362  0.44241  0.63167  1.0000
  C   C841      1.0  0.50368  0.27495  0.59593  1.0000
  C   C842      1.0  0.51416  0.27013  0.61008  1.0000
  H   H1354     1.0  0.50001  0.28950  0.58883  1.0000
  H   H1355     1.0  0.51842  0.28096  0.61396  1.0000
  C   C843      1.0  0.38291  0.28891  0.53701  1.0000
  C   C844      1.0  0.40097  0.28163  0.52751  1.0000
  C   C845      1.0  0.41167  0.26472  0.53595  1.0000
  C   C846      1.0  0.40401  0.25474  0.55360  1.0000
  C   C847      1.0  0.38584  0.26184  0.56291  1.0000
  C   C848      1.0  0.37542  0.27901  0.55477  1.0000
  H   H1356     1.0  0.40679  0.28922  0.51373  1.0000
  H   H1357     1.0  0.42565  0.25919  0.52863  1.0000
  H   H1358     1.0  0.37987  0.25417  0.57656  1.0000
  H   H1359     1.0  0.36149  0.28440  0.56216  1.0000
  C   C849      1.0  0.48844  0.36675  0.63168  1.0000
  C   C850      1.0  0.48149  0.36208  0.65115  1.0000
  C   C851      1.0  0.49261  0.34830  0.66271  1.0000
  C   C852      1.0  0.51047  0.33880  0.65480  1.0000
  C   C853      1.0  0.51731  0.34344  0.63536  1.0000
  C   C854      1.0  0.50637  0.35740  0.62389  1.0000
  H   H1360     1.0  0.46758  0.36901  0.65727  1.0000
  H   H1361     1.0  0.48725  0.34476  0.67777  1.0000
  H   H1362     1.0  0.53115  0.33644  0.62915  1.0000
  H   H1363     1.0  0.51186  0.36101  0.60885  1.0000
  C   C855      1.0  0.38261  0.37441  0.63417  1.0000
  C   C856      1.0  0.40039  0.36491  0.62637  1.0000
  C   C857      1.0  0.40212  0.35255  0.61461  1.0000
  C   C858      1.0  0.38611  0.34989  0.61037  1.0000
  C   C859      1.0  0.36831  0.35935  0.61818  1.0000
  C   C860      1.0  0.36656  0.37147  0.63023  1.0000
  H   H1364     1.0  0.41280  0.36691  0.62960  1.0000
  H   H1365     1.0  0.41591  0.34524  0.60861  1.0000
  H   H1366     1.0  0.35589  0.35715  0.61519  1.0000
  H   H1367     1.0  0.35279  0.37875  0.63631  1.0000
  C   C861      1.0  0.63840  0.27028  0.55790  1.0000
  C   C862      1.0  0.62998  0.26269  0.57632  1.0000
  C   C863      1.0  0.61486  0.27375  0.58657  1.0000
  C   C864      1.0  0.60775  0.29234  0.57829  1.0000
  C   C865      1.0  0.61633  0.30003  0.55991  1.0000
  C   C866      1.0  0.63174  0.28905  0.54974  1.0000
  H   H1368     1.0  0.50362  0.30933  0.64268  1.0000
  H   H1369     1.0  0.60871  0.26782  0.60083  1.0000
  H   H1370     1.0  0.61094  0.31444  0.55344  1.0000
  H   H1371     1.0  0.63823  0.29501  0.53551  1.0000
  H   H1372     1.0  0.45629  0.41844  0.66368  1.0000
  H   H1373     1.0  0.35062  0.42391  0.57272  1.0000
  C   C867      1.0  0.33427  0.47969  0.70464  1.0000
  H   H1374     1.0  0.40036  0.41228  0.54748  1.0000
  C   C868      1.0  0.37729  0.39241  0.57365  1.0000
  H   H1375     1.0  0.57642  0.28019  0.53937  1.0000
  H   H1376     1.0  0.50592  0.39291  0.65865  1.0000
  S   S336      1.0  0.33808  0.36239  0.58296  1.0000
  C   C869      1.0  0.38436  0.45199  0.70830  1.0000
  C   C870      1.0  0.39758  0.44679  0.69244  1.0000
  S   S337      1.0  0.32988  0.35080  0.54696  1.0000
  H   H1377     1.0  0.50624  0.27675  0.66045  1.0000
  Fe  Fe162     1.0  0.34513  0.37087  0.55127  1.0000
  C   C871      1.0  0.48711  0.42615  0.66829  1.0000
  H   H1378     1.0  0.39874  0.43340  0.68896  1.0000
  N   N85       1.0  0.48017  0.29665  0.65791  1.0000
  C   C872      1.0  0.49160  0.27726  0.65946  1.0000
  H   H1379     1.0  0.36600  0.42477  0.55001  1.0000
  H   H1380     1.0  0.48554  0.26751  0.67217  1.0000
  S   S338      1.0  0.63460  0.23933  0.74119  1.0000
  H   H1381     1.0  0.36618  0.44027  0.56459  1.0000
  H   H1382     1.0  0.38017  0.42735  0.59320  1.0000
  H   H1383     1.0  0.36385  0.41176  0.60180  1.0000
  C   C873      1.0  0.60201  0.25499  0.70206  1.0000
  H   H1384     1.0  0.34942  0.43726  0.51348  1.0000
  C   C874      1.0  0.51888  0.25133  0.61929  1.0000
  H   H1385     1.0  0.37535  0.44255  0.71699  1.0000
  H   H1386     1.0  0.58867  0.26425  0.70018  1.0000
  S   S339      1.0  0.46798  0.24760  0.53957  1.0000
  H   H1387     1.0  0.43351  0.46959  0.59303  1.0000
  C   C875      1.0  0.48932  0.30917  0.64137  1.0000
  H   H1388     1.0  0.47135  0.29456  0.68796  1.0000
  H   H1389     1.0  0.45228  0.31126  0.65442  1.0000
  C   C876      1.0  0.50310  0.40508  0.64684  1.0000
  Fe  Fe163     1.0  0.36509  0.34099  0.57978  1.0000
  H   H1390     1.0  0.58923  0.25953  0.55267  1.0000
  C   C877      1.0  0.55172  0.26080  0.56393  1.0000
  C   C878      1.0  0.46124  0.29680  0.65562  1.0000
  H   H1391     1.0  0.40393  0.48261  0.54798  1.0000
  H   H1392     1.0  0.34329  0.29509  0.51467  1.0000
  H   H1393     1.0  0.45392  0.28747  0.66783  1.0000
  C   C879      1.0  0.34117  0.41139  0.51520  1.0000
  C   C880      1.0  0.47854  0.30341  0.67519  1.0000
  H   H1394     1.0  0.33080  0.29971  0.55559  1.0000
  S   S340      1.0  0.60455  0.24574  0.66795  1.0000
  H   H1395     1.0  0.48125  0.32401  0.63985  1.0000
  H   H1396     1.0  0.60067  0.26104  0.72904  1.0000
  H   H1397     1.0  0.53897  0.25901  0.57517  1.0000
  C   C881      1.0  0.46970  0.40885  0.65879  1.0000
  C   C882      1.0  0.61247  0.24474  0.68831  1.0000
  H   H1398     1.0  0.49261  0.27140  0.64700  1.0000
  C   C883      1.0  0.37792  0.41336  0.59291  1.0000
  N   N86       1.0  0.42868  0.29425  0.56939  1.0000
  C   C884      1.0  0.40894  0.30161  0.56745  1.0000
  C   C885      1.0  0.44111  0.29562  0.55045  1.0000
  C   C886      1.0  0.43102  0.27433  0.57944  1.0000
  C   C887      1.0  0.43364  0.30540  0.58022  1.0000
  H   H1399     1.0  0.39908  0.30032  0.58143  1.0000
  H   H1400     1.0  0.40491  0.29384  0.55898  1.0000
  H   H1401     1.0  0.40648  0.31677  0.56037  1.0000
  H   H1402     1.0  0.45614  0.29007  0.55139  1.0000
  H   H1403     1.0  0.43769  0.28735  0.54192  1.0000
  H   H1404     1.0  0.43969  0.31047  0.54247  1.0000
  H   H1405     1.0  0.44568  0.26846  0.58149  1.0000
  H   H1406     1.0  0.42784  0.26543  0.57143  1.0000
  H   H1407     1.0  0.42152  0.27268  0.59360  1.0000
  H   H1408     1.0  0.44853  0.30027  0.58181  1.0000
  H   H1409     1.0  0.42449  0.30463  0.59459  1.0000
  H   H1410     1.0  0.43174  0.32058  0.57318  1.0000
  H   H1411     1.0  0.51546  0.41188  0.64202  1.0000
  H   H1412     1.0  0.57689  0.24851  0.58648  1.0000
  H   H1413     1.0  0.38845  0.38122  0.57950  1.0000
  H   H1414     1.0  0.50220  0.39918  0.63499  1.0000
  H   H1415     1.0  0.48166  0.42895  0.62404  1.0000
  H   H1416     1.0  0.46868  0.44427  0.63997  1.0000
  N   N87       1.0  0.37963  0.41140  0.57340  1.0000
  H   H1417     1.0  0.40040  0.42848  0.56129  1.0000
  C   C888      1.0  0.39473  0.48132  0.70183  1.0000
  H   H1418     1.0  0.37786  0.39067  0.55921  1.0000
  H   H1419     1.0  0.40980  0.40389  0.56860  1.0000
  H   H1420     1.0  0.63879  0.29309  0.68929  1.0000
  Fe  Fe164     1.0  0.32524  0.34039  0.57848  1.0000
  C   C889      1.0  0.39838  0.41409  0.56217  1.0000
  C   C890      1.0  0.42937  0.47897  0.58055  1.0000
  H   H1421     1.0  0.63520  0.24821  0.58272  1.0000
  H   H1422     1.0  0.32650  0.48056  0.74182  1.0000
  N   N88       1.0  0.56273  0.27212  0.56836  1.0000
  H   H1423     1.0  0.47050  0.31822  0.67430  1.0000
  H   H1424     1.0  0.49079  0.30456  0.62804  1.0000
  C   C891      1.0  0.48227  0.43426  0.63636  1.0000
  C   C892      1.0  0.38291  0.46927  0.71303  1.0000
  S   S341      1.0  0.48571  0.26708  0.57256  1.0000
  S   S342      1.0  0.53164  0.24486  0.63732  1.0000
  C   C893      1.0  0.56811  0.26290  0.58669  1.0000
  H   H1425     1.0  0.38850  0.40245  0.59990  1.0000
  C   C894      1.0  0.34439  0.42951  0.50623  1.0000
  C   C895      1.0  0.40836  0.47584  0.68637  1.0000
  H   H1426     1.0  0.57636  0.27116  0.59040  1.0000
  S   S343      1.0  0.38878  0.33497  0.59495  1.0000
  H   H1427     1.0  0.46777  0.40359  0.64706  1.0000
  H   H1428     1.0  0.49898  0.43361  0.66416  1.0000
  C   C896      1.0  0.60878  0.25308  0.71841  1.0000
  H   H1429     1.0  0.34704  0.27700  0.53497  1.0000
  C   C897      1.0  0.64578  0.28092  0.68235  1.0000
  C   C898      1.0  0.41811  0.47397  0.57129  1.0000
  H   H1430     1.0  0.55557  0.26156  0.59834  1.0000
  H   H1431     1.0  0.34472  0.46610  0.70502  1.0000
  H   H1432     1.0  0.54692  0.26757  0.55045  1.0000
  C   C899      1.0  0.55129  0.29121  0.56944  1.0000
  C   C900      1.0  0.62601  0.24099  0.72101  1.0000
  H   H1433     1.0  0.55925  0.30008  0.57279  1.0000
  C   C901      1.0  0.34127  0.43763  0.48785  1.0000
  H   H1434     1.0  0.33548  0.27349  0.51842  1.0000
  H   H1435     1.0  0.32728  0.31770  0.53516  1.0000
  C   C902      1.0  0.51306  0.23740  0.61433  1.0000
  C   C903      1.0  0.64502  0.24023  0.48761  1.0000
  C   C904      1.0  0.33682  0.28409  0.52564  1.0000
  H   H1436     1.0  0.33181  0.48491  0.69001  1.0000
  H   H1437     1.0  0.41784  0.48499  0.67811  1.0000
  S   S344      1.0  0.62024  0.65109  0.13900  1.0000
  C   C905      1.0  0.62594  0.48846  0.40524  1.0000
  Fe  Fe165     1.0  0.63707  0.66714  0.14700  1.0000
  S   S345      1.0  0.62744  0.67447  0.17569  1.0000
  Fe  Fe166     1.0  0.62125  0.67288  0.11202  1.0000
  S   S346      1.0  0.59339  0.68684  0.10361  1.0000
  H   H1438     1.0  0.56723  0.51692  0.42839  1.0000
  H   H1439     1.0  0.56178  0.48855  0.30751  1.0000
  H   H1440     1.0  0.33250  0.55608  0.23904  1.0000
  H   H1441     1.0  0.34002  0.50509  0.33815  1.0000
  H   H1442     1.0  0.36805  0.73543  0.15619  1.0000
  H   H1443     1.0  0.62620  0.51899  0.35849  1.0000
  Fe  Fe167     1.0  0.35733  0.49711  0.43105  1.0000
  Fe  Fe168     1.0  0.64005  0.66523  0.29300  1.0000
  S   S347      1.0  0.61165  0.65734  0.30311  1.0000
  S   S348      1.0  0.44957  0.58213  0.45732  1.0000
  Fe  Fe169     1.0  0.51108  0.73028  0.03181  1.0000
  C   C906      1.0  0.41168  0.49472  0.33626  1.0000
  S   S349      1.0  0.51772  0.70390  0.02039  1.0000
  H   H1444     1.0  0.37680  0.54269  0.10084  1.0000
  C   C907      1.0  0.62802  0.53155  0.36250  1.0000
  H   H1445     1.0  0.33079  0.64722  0.22198  1.0000
  H   H1446     1.0  0.62806  0.49325  0.41678  1.0000
  H   H1447     1.0  0.33198  0.55646  0.14710  1.0000
  Fe  Fe170     1.0  0.54750  0.70317  0.02186  1.0000
  S   S350      1.0  0.56966  0.67842  0.03175  1.0000
  H   H1448     1.0  0.60993  0.59684  0.10805  1.0000
  H   H1449     1.0  0.40178  0.53876  0.47293  1.0000
  S   S351      1.0  0.48245  0.48784  0.32272  1.0000
  C   C908      1.0  0.38158  0.51114  0.36180  1.0000
  C   C909      1.0  0.40113  0.70990  0.01280  1.0000
  S   S352      1.0  0.38191  0.50530  0.43635  1.0000
  H   H1450     1.0  0.43345  0.52730  0.16798  1.0000
  C   C910      1.0  0.42811  0.49424  0.41180  1.0000
  H   H1451     1.0  0.38728  0.70566  0.01725  1.0000
  H   H1452     1.0  0.41242  0.53194  0.18538  1.0000
  Fe  Fe171     1.0  0.57320  0.53008  0.37769  1.0000
  S   S353      1.0  0.57346  0.55464  0.35321  1.0000
  S   S354      1.0  0.58695  0.50076  0.37323  1.0000
  Fe  Fe172     1.0  0.54961  0.55406  0.40605  1.0000
  S   S355      1.0  0.54806  0.58101  0.38410  1.0000
  S   S356      1.0  0.53688  0.54820  0.43724  1.0000
  Fe  Fe173     1.0  0.54300  0.56353  0.36636  1.0000
  S   S357      1.0  0.51933  0.57185  0.35082  1.0000
  Fe  Fe174     1.0  0.57877  0.56983  0.37271  1.0000
  S   S358      1.0  0.60495  0.58197  0.36463  1.0000
  S   S359      1.0  0.54234  0.53755  0.38912  1.0000
  S   S360      1.0  0.58064  0.54444  0.39639  1.0000
  H   H1453     1.0  0.56539  0.63255  0.10691  1.0000
  Fe  Fe175     1.0  0.45710  0.50741  0.31320  1.0000
  S   S361      1.0  0.47379  0.52717  0.29190  1.0000
  S   S362      1.0  0.43226  0.52141  0.33261  1.0000
  Fe  Fe176     1.0  0.47443  0.50941  0.27182  1.0000
  S   S363      1.0  0.46943  0.52550  0.24290  1.0000
  Fe  Fe177     1.0  0.49910  0.50609  0.29954  1.0000
  S   S364      1.0  0.52562  0.51019  0.30478  1.0000
  S   S365      1.0  0.64758  0.65644  0.09667  1.0000
  C   C911      1.0  0.42593  0.71892  0.98686  1.0000
  S   S366      1.0  0.38879  0.71068  0.22992  1.0000
  H   H1454     1.0  0.40985  0.53502  0.30198  1.0000
  H   H1455     1.0  0.35608  0.73464  0.06797  1.0000
  S   S367      1.0  0.36523  0.71413  0.19779  1.0000
  S   S368      1.0  0.34273  0.71410  0.24179  1.0000
  Fe  Fe178     1.0  0.36768  0.69618  0.22630  1.0000
  S   S369      1.0  0.37030  0.66448  0.23342  1.0000
  H   H1456     1.0  0.49470  0.69894  0.98709  1.0000
  H   H1457     1.0  0.44281  0.49389  0.41229  1.0000
  H   H1458     1.0  0.41419  0.52346  0.14738  1.0000
  H   H1459     1.0  0.64208  0.54941  0.38007  1.0000
  Fe  Fe179     1.0  0.36352  0.59211  0.18184  1.0000
  S   S370      1.0  0.36390  0.62300  0.17262  1.0000
  H   H1460     1.0  0.58869  0.63649  0.13322  1.0000
  H   H1461     1.0  0.43695  0.70756  0.99273  1.0000
  H   H1462     1.0  0.47367  0.55037  0.47732  1.0000
  H   H1463     1.0  0.60985  0.64721  0.10299  1.0000
  C   C912      1.0  0.53700  0.50104  0.44171  1.0000
  C   C913      1.0  0.39723  0.51948  0.35378  1.0000
  C   C914      1.0  0.36855  0.65319  0.21632  1.0000
  C   C915      1.0  0.36322  0.66347  0.19944  1.0000
  C   C916      1.0  0.36184  0.65407  0.18612  1.0000
  C   C917      1.0  0.36562  0.63434  0.18967  1.0000
  C   C918      1.0  0.37062  0.62402  0.20669  1.0000
  C   C919      1.0  0.37209  0.63343  0.21997  1.0000
  H   H1464     1.0  0.36006  0.67864  0.19669  1.0000
  H   H1465     1.0  0.35777  0.66211  0.17307  1.0000
  H   H1466     1.0  0.37370  0.60880  0.20948  1.0000
  H   H1467     1.0  0.37617  0.62542  0.23303  1.0000
  C   C920      1.0  0.44806  0.52628  0.23703  1.0000
  C   C921      1.0  0.44168  0.54069  0.22252  1.0000
  H   H1468     1.0  0.45011  0.55103  0.21486  1.0000
  H   H1469     1.0  0.32892  0.56185  0.27090  1.0000
  C   C922      1.0  0.35600  0.54965  0.12515  1.0000
  H   H1470     1.0  0.58508  0.60039  0.10951  1.0000
  S   S371      1.0  0.32981  0.49211  0.45010  1.0000
  H   H1471     1.0  0.60356  0.61342  0.13465  1.0000
  H   H1472     1.0  0.32806  0.51935  0.36635  1.0000
  H   H1473     1.0  0.59892  0.50687  0.40438  1.0000
  C   C923      1.0  0.52059  0.55451  0.33843  1.0000
  C   C924      1.0  0.53589  0.53925  0.33788  1.0000
  C   C925      1.0  0.53724  0.52573  0.32755  1.0000
  C   C926      1.0  0.52304  0.52707  0.31812  1.0000
  C   C927      1.0  0.50741  0.54201  0.31909  1.0000
  C   C928      1.0  0.50631  0.55586  0.32905  1.0000
  H   H1474     1.0  0.54687  0.53794  0.34519  1.0000
  H   H1475     1.0  0.54933  0.51422  0.32691  1.0000
  H   H1476     1.0  0.49649  0.54320  0.31170  1.0000
  H   H1477     1.0  0.49454  0.56772  0.32922  1.0000
  H   H1478     1.0  0.34191  0.70757  0.17245  1.0000
  C   C929      1.0  0.35669  0.53520  0.47747  1.0000
  H   H1479     1.0  0.57178  0.73013  0.06611  1.0000
  C   C930      1.0  0.41240  0.51118  0.34120  1.0000
  H   H1480     1.0  0.36706  0.60442  0.13865  1.0000
  H   H1481     1.0  0.34776  0.52055  0.46124  1.0000
  C   C931      1.0  0.34897  0.54387  0.09759  1.0000
  C   C932      1.0  0.47401  0.57317  0.45299  1.0000
  C   C933      1.0  0.40963  0.69584  0.98544  1.0000
  C   C934      1.0  0.50168  0.54970  0.46002  1.0000
  C   C935      1.0  0.51279  0.55810  0.44341  1.0000
  C   C936      1.0  0.50456  0.57427  0.43186  1.0000
  C   C937      1.0  0.48530  0.58193  0.43680  1.0000
  H   H1482     1.0  0.41134  0.69856  0.01994  1.0000
  C   C938      1.0  0.64993  0.73113  0.22686  1.0000
  H   H1483     1.0  0.51313  0.58110  0.41930  1.0000
  H   H1484     1.0  0.47916  0.59475  0.42809  1.0000
  H   H1485     1.0  0.64491  0.67591  0.23305  1.0000
  H   H1486     1.0  0.36587  0.70221  0.16013  1.0000
  H   H1487     1.0  0.53501  0.51309  0.42959  1.0000
  C   C939      1.0  0.37766  0.51883  0.45351  1.0000
  H   H1488     1.0  0.37046  0.63933  0.10747  1.0000
  S   S372      1.0  0.34233  0.58397  0.17110  1.0000
  C   C940      1.0  0.48762  0.56663  0.39545  1.0000
  H   H1489     1.0  0.64330  0.56195  0.35616  1.0000
  H   H1490     1.0  0.32519  0.50856  0.32172  1.0000
  H   H1491     1.0  0.39108  0.50873  0.19709  1.0000
  H   H1492     1.0  0.32470  0.72276  0.13749  1.0000
  C   C941      1.0  0.32976  0.54684  0.10569  1.0000
  H   H1493     1.0  0.39799  0.48706  0.18904  1.0000
  C   C942      1.0  0.33675  0.55294  0.13331  1.0000
  H   H1494     1.0  0.60267  0.63492  0.23737  1.0000
  C   C943      1.0  0.32518  0.50715  0.33685  1.0000
  C   C944      1.0  0.40531  0.51653  0.16031  1.0000
  C   C945      1.0  0.59126  0.62275  0.12896  1.0000
  H   H1495     1.0  0.61541  0.67148  0.07053  1.0000
  H   H1496     1.0  0.44207  0.50167  0.25785  1.0000
  H   H1497     1.0  0.37463  0.60436  0.11395  1.0000
  H   H1498     1.0  0.60558  0.66776  0.04272  1.0000
  Fe  Fe180     1.0  0.36334  0.73020  0.24299  1.0000
  H   H1499     1.0  0.49566  0.55567  0.38719  1.0000
  H   H1500     1.0  0.33502  0.53974  0.33474  1.0000
  C   C946      1.0  0.60645  0.60295  0.34750  1.0000
  C   C947      1.0  0.59111  0.61352  0.33957  1.0000
  C   C948      1.0  0.59277  0.63033  0.32613  1.0000
  C   C949      1.0  0.60981  0.63655  0.32044  1.0000
  C   C950      1.0  0.62521  0.62583  0.32818  1.0000
  C   C951      1.0  0.62350  0.60913  0.34174  1.0000
  H   H1501     1.0  0.57790  0.60888  0.34398  1.0000
  H   H1502     1.0  0.58079  0.63858  0.32021  1.0000
  H   H1503     1.0  0.63838  0.63052  0.32392  1.0000
  H   H1504     1.0  0.63539  0.60108  0.34790  1.0000
  H   H1505     1.0  0.62428  0.62391  0.10471  1.0000
  C   C952      1.0  0.41998  0.51405  0.24227  1.0000
  C   C953      1.0  0.35955  0.52447  0.46379  1.0000
  C   C954      1.0  0.58754  0.68445  0.08326  1.0000
  C   C955      1.0  0.56877  0.69071  0.08139  1.0000
  C   C956      1.0  0.56332  0.68903  0.06554  1.0000
  C   C957      1.0  0.57655  0.68079  0.05154  1.0000
  C   C958      1.0  0.59529  0.67412  0.05357  1.0000
  C   C959      1.0  0.60085  0.67616  0.06931  1.0000
  H   H1506     1.0  0.55831  0.69675  0.09233  1.0000
  H   H1507     1.0  0.54875  0.69371  0.06436  1.0000
  N   N89       1.0  0.34854  0.72636  0.14578  1.0000
  C   C960      1.0  0.63757  0.67562  0.20743  1.0000
  H   H1508     1.0  0.39345  0.52775  0.16513  1.0000
  C   C961      1.0  0.33206  0.62479  0.13709  1.0000
  S   S373      1.0  0.39154  0.52943  0.22337  1.0000
  C   C962      1.0  0.42430  0.54196  0.21810  1.0000
  H   H1509     1.0  0.62311  0.68268  0.21152  1.0000
  H   H1510     1.0  0.56320  0.51042  0.45349  1.0000
  H   H1511     1.0  0.34808  0.65345  0.11604  1.0000
  H   H1512     1.0  0.35385  0.54034  0.08380  1.0000
  H   H1513     1.0  0.39767  0.53225  0.35759  1.0000
  C   C963      1.0  0.34264  0.62510  0.10378  1.0000
  H   H1514     1.0  0.56243  0.49671  0.40978  1.0000
  H   H1515     1.0  0.41075  0.49157  0.20408  1.0000
  H   H1516     1.0  0.48617  0.55989  0.41071  1.0000
  S   S374      1.0  0.55423  0.71997  0.99235  1.0000
  H   H1517     1.0  0.32650  0.70565  0.21371  1.0000
  H   H1518     1.0  0.35484  0.62354  0.09178  1.0000
  C   C964      1.0  0.59757  0.60691  0.10311  1.0000
  C   C965      1.0  0.64376  0.67023  0.18997  1.0000
  H   H1519     1.0  0.61061  0.66213  0.24379  1.0000
  H   H1520     1.0  0.42041  0.68421  0.99142  1.0000
  S   S375      1.0  0.65559  0.60465  0.12842  1.0000
  H   H1521     1.0  0.40688  0.51974  0.44895  1.0000
  N   N90       1.0  0.59470  0.62530  0.10821  1.0000
  Fe  Fe181     1.0  0.34988  0.48622  0.39809  1.0000
  N   N91       1.0  0.64808  0.53184  0.35986  1.0000
  H   H1522     1.0  0.64780  0.72353  0.24187  1.0000
  Fe  Fe182     1.0  0.37687  0.55193  0.20235  1.0000
  S   S376      1.0  0.35531  0.57652  0.21148  1.0000
  C   C966      1.0  0.60690  0.49036  0.38301  1.0000
  S   S377      1.0  0.63625  0.69010  0.12105  1.0000
  H   H1523     1.0  0.59911  0.65653  0.26821  1.0000
  H   H1524     1.0  0.61485  0.63530  0.08390  1.0000
  S   S378      1.0  0.37325  0.55081  0.13660  1.0000
  H   H1525     1.0  0.33320  0.63894  0.09974  1.0000
  H   H1526     1.0  0.33155  0.63430  0.24559  1.0000
  C   C967      1.0  0.48226  0.55712  0.46473  1.0000
  H   H1527     1.0  0.64108  0.72662  0.21980  1.0000
  H   H1528     1.0  0.37604  0.72133  0.12801  1.0000
  N   N92       1.0  0.40758  0.71328  0.99207  1.0000
  C   C968      1.0  0.39285  0.52404  0.45686  1.0000
  C   C969      1.0  0.61169  0.63324  0.09956  1.0000
  S   S379      1.0  0.54021  0.72812  0.03538  1.0000
  S   S380      1.0  0.35693  0.54073  0.19263  1.0000
  N   N93       1.0  0.34865  0.62380  0.12139  1.0000
  H   H1529     1.0  0.44143  0.49809  0.15567  1.0000
  H   H1530     1.0  0.50802  0.53732  0.46915  1.0000
  H   H1531     1.0  0.32713  0.72822  0.27807  1.0000
  H   H1532     1.0  0.43169  0.51376  0.19180  1.0000
  N   N94       1.0  0.41263  0.55843  0.27849  1.0000
  C   C970      1.0  0.40800  0.57925  0.27486  1.0000
  C   C971      1.0  0.40297  0.55179  0.26748  1.0000
  C   C972      1.0  0.40648  0.55072  0.29881  1.0000
  C   C973      1.0  0.43316  0.55190  0.27279  1.0000
  H   H1533     1.0  0.41512  0.58471  0.28293  1.0000
  H   H1534     1.0  0.39261  0.58472  0.27898  1.0000
  H   H1535     1.0  0.41254  0.58546  0.25962  1.0000
  H   H1536     1.0  0.40605  0.53613  0.27006  1.0000
  H   H1537     1.0  0.38746  0.55662  0.27120  1.0000
  H   H1538     1.0  0.40756  0.55705  0.25204  1.0000
  H   H1539     1.0  0.41369  0.55523  0.30756  1.0000
  H   H1540     1.0  0.39108  0.55534  0.30373  1.0000
  H   H1541     1.0  0.43720  0.53623  0.27538  1.0000
  H   H1542     1.0  0.44093  0.55667  0.28079  1.0000
  H   H1543     1.0  0.43841  0.55728  0.25750  1.0000
  Fe  Fe183     1.0  0.36514  0.55943  0.16463  1.0000
  H   H1544     1.0  0.45647  0.58413  0.41679  1.0000
  N   N95       1.0  0.55698  0.49137  0.44007  1.0000
  H   H1545     1.0  0.62307  0.65876  0.26221  1.0000
  C   C974      1.0  0.39585  0.48652  0.34411  1.0000
  C   C975      1.0  0.57836  0.63835  0.10123  1.0000
  H   H1546     1.0  0.41933  0.55326  0.20711  1.0000
  H   H1547     1.0  0.57542  0.65212  0.10552  1.0000
  Fe  Fe184     1.0  0.34203  0.73316  0.21346  1.0000
  C   C976      1.0  0.60951  0.49628  0.39814  1.0000
  H   H1548     1.0  0.39950  0.50172  0.39434  1.0000
  N   N96       1.0  0.41606  0.50677  0.17524  1.0000
  C   C977      1.0  0.43649  0.49593  0.37814  1.0000
  Fe  Fe185     1.0  0.64792  0.63616  0.12453  1.0000
  Fe  Fe186     1.0  0.38421  0.73027  0.20243  1.0000
  H   H1549     1.0  0.39949  0.72286  0.01817  1.0000
  Fe  Fe187     1.0  0.33610  0.56628  0.19996  1.0000
  Fe  Fe188     1.0  0.52376  0.72321  0.99191  1.0000
  H   H1550     1.0  0.59069  0.62940  0.26158  1.0000
  H   H1551     1.0  0.33207  0.60477  0.23645  1.0000
  H   H1552     1.0  0.32465  0.61316  0.13921  1.0000
  H   H1553     1.0  0.41165  0.50363  0.24993  1.0000
  C   C978      1.0  0.43716  0.51297  0.24686  1.0000
  S   S381      1.0  0.38714  0.56851  0.17345  1.0000
  H   H1554     1.0  0.45140  0.49566  0.37777  1.0000
  H   H1555     1.0  0.37002  0.51766  0.37152  1.0000
  H   H1556     1.0  0.57874  0.61644  0.13605  1.0000
  C   C979      1.0  0.40347  0.49808  0.19207  1.0000
  H   H1557     1.0  0.65073  0.51398  0.38701  1.0000
  H   H1558     1.0  0.42506  0.73173  0.99210  1.0000
  H   H1559     1.0  0.58080  0.64139  0.08552  1.0000
  C   C980      1.0  0.36198  0.54520  0.10727  1.0000
  H   H1560     1.0  0.42141  0.48672  0.42584  1.0000
  H   H1561     1.0  0.60012  0.60843  0.08753  1.0000
  S   S382      1.0  0.34440  0.51388  0.40647  1.0000
  C   C981      1.0  0.41341  0.52863  0.22805  1.0000
  N   N97       1.0  0.61882  0.63326  0.25772  1.0000
  C   C982      1.0  0.62091  0.62251  0.27686  1.0000
  C   C983      1.0  0.61263  0.65356  0.25791  1.0000
  C   C984      1.0  0.60462  0.62704  0.25176  1.0000
  C   C985      1.0  0.63706  0.62995  0.24437  1.0000
  H   H1562     1.0  0.62554  0.60711  0.27737  1.0000
  H   H1563     1.0  0.60741  0.62478  0.28731  1.0000
  H   H1564     1.0  0.63139  0.62698  0.28189  1.0000
  H   H1565     1.0  0.65059  0.54487  0.33046  1.0000
  C   C986      1.0  0.42380  0.52051  0.18027  1.0000
  H   H1566     1.0  0.39615  0.69098  0.98922  1.0000
  H   H1567     1.0  0.60878  0.61176  0.25149  1.0000
  C   C987      1.0  0.56825  0.50463  0.44039  1.0000
  C   C988      1.0  0.35110  0.70744  0.15819  1.0000
  H   H1568     1.0  0.63590  0.63755  0.22970  1.0000
  H   H1569     1.0  0.64236  0.61473  0.24415  1.0000
  H   H1570     1.0  0.64797  0.63493  0.24823  1.0000
  N   N98       1.0  0.46909  0.57531  0.39044  1.0000
  C   C989      1.0  0.45783  0.56071  0.39495  1.0000
  C   C990      1.0  0.47178  0.58376  0.37004  1.0000
  C   C991      1.0  0.45914  0.59010  0.40132  1.0000
  H   H1571     1.0  0.45548  0.55417  0.41030  1.0000
  H   H1572     1.0  0.46499  0.54929  0.38702  1.0000
  H   H1573     1.0  0.44377  0.56677  0.39129  1.0000
  H   H1574     1.0  0.47892  0.57290  0.36143  1.0000
  H   H1575     1.0  0.45818  0.59086  0.36574  1.0000
  H   H1576     1.0  0.48081  0.59438  0.36606  1.0000
  H   H1577     1.0  0.49648  0.57727  0.39239  1.0000
  H   H1578     1.0  0.44525  0.59719  0.39767  1.0000
  H   H1579     1.0  0.46744  0.60115  0.39863  1.0000
  C   C992      1.0  0.37192  0.54032  0.48089  1.0000
  S   S383      1.0  0.50167  0.49006  0.27737  1.0000
  C   C993      1.0  0.40753  0.48687  0.39627  1.0000
  H   H1580     1.0  0.57210  0.72492  0.09081  1.0000
  H   H1581     1.0  0.53161  0.50698  0.45471  1.0000
  H   H1582     1.0  0.34750  0.69697  0.15236  1.0000
  H   H1583     1.0  0.64694  0.72557  0.06207  1.0000
  C   C994      1.0  0.38999  0.53478  0.47048  1.0000
  S   S384      1.0  0.33072  0.71690  0.09864  1.0000
  H   H1584     1.0  0.62066  0.53121  0.37746  1.0000
  H   H1585     1.0  0.36244  0.63903  0.13229  1.0000
  H   H1586     1.0  0.58338  0.49782  0.43942  1.0000
  H   H1587     1.0  0.33469  0.61401  0.10538  1.0000
  S   S385      1.0  0.65342  0.67903  0.30776  1.0000
  S   S386      1.0  0.64447  0.68624  0.26564  1.0000
  H   H1588     1.0  0.33190  0.61763  0.21262  1.0000
  C   C995      1.0  0.36096  0.72556  0.12703  1.0000
  C   C996      1.0  0.64965  0.54883  0.36528  1.0000
  C   C997      1.0  0.35785  0.63960  0.11915  1.0000
  C   C998      1.0  0.43165  0.49198  0.16834  1.0000
  H   H1589     1.0  0.42336  0.48819  0.32659  1.0000
  C   C999      1.0  0.39368  0.72847  0.98318  1.0000
  H   H1590     1.0  0.35546  0.59347  0.12761  1.0000
  H   H1591     1.0  0.62054  0.54433  0.35388  1.0000
  C   C1000     1.0  0.36203  0.60573  0.12559  1.0000
  C   C1001     1.0  0.38092  0.49453  0.35716  1.0000
  C   C1002     1.0  0.32876  0.73263  0.14373  1.0000
  C   C1003     1.0  0.64993  0.67183  0.21963  1.0000
  H   H1592     1.0  0.42911  0.51097  0.37506  1.0000
  H   H1593     1.0  0.33601  0.62410  0.15058  1.0000
  S   S387      1.0  0.45620  0.49073  0.29279  1.0000
  H   H1594     1.0  0.43640  0.48963  0.36630  1.0000
  H   H1595     1.0  0.52794  0.49137  0.44206  1.0000
  H   H1596     1.0  0.42031  0.50918  0.41012  1.0000
  C   C1004     1.0  0.32363  0.55150  0.12357  1.0000
  H   H1597     1.0  0.37984  0.72446  0.98621  1.0000
  H   H1598     1.0  0.63895  0.73221  0.10213  1.0000
  H   H1599     1.0  0.53710  0.73105  0.09727  1.0000
  H   H1600     1.0  0.39912  0.50672  0.15614  1.0000
  H   H1601     1.0  0.35804  0.71521  0.12050  1.0000
  H   H1602     1.0  0.65439  0.70894  0.08211  1.0000
  H   H1603     1.0  0.65637  0.50171  0.36809  1.0000
  H   H1604     1.0  0.65640  0.51954  0.33537  1.0000
  N   N99       1.0  0.42735  0.48570  0.39645  1.0000
  H   H1605     1.0  0.43098  0.68957  0.85570  1.0000
  S   S388      1.0  0.34986  0.66080  0.63600  1.0000
  S   S389      1.0  0.36809  0.55369  0.49814  1.0000
  H   H1606     1.0  0.40443  0.69532  0.81813  1.0000
  C   C1005     1.0  0.39656  0.56569  0.81959  1.0000
  H   H1607     1.0  0.34269  0.53948  0.48546  1.0000
  H   H1608     1.0  0.41900  0.54938  0.58228  1.0000
  S   S390      1.0  0.34647  0.61994  0.61209  1.0000
  S   S391      1.0  0.40096  0.58770  0.48900  1.0000
  H   H1609     1.0  0.34049  0.72766  0.79937  1.0000
  S   S392      1.0  0.32942  0.51824  0.74892  1.0000
  C   C1006     1.0  0.33383  0.62343  0.52664  1.0000
  S   S393      1.0  0.39327  0.71080  0.72336  1.0000
  Fe  Fe189     1.0  0.35736  0.66910  0.81913  1.0000
  S   S394      1.0  0.37717  0.64145  0.82340  1.0000
  S   S395      1.0  0.36839  0.69556  0.81069  1.0000
  C   C1007     1.0  0.47699  0.71830  0.94005  1.0000
  S   S396      1.0  0.34027  0.62228  0.84076  1.0000
  H   H1610     1.0  0.45188  0.55166  0.57046  1.0000
  Fe  Fe190     1.0  0.35782  0.63579  0.85148  1.0000
  S   S397      1.0  0.37419  0.62503  0.87481  1.0000
  Fe  Fe191     1.0  0.35810  0.63067  0.81213  1.0000
  S   S398      1.0  0.37132  0.61211  0.79073  1.0000
  S   S399      1.0  0.33872  0.66418  0.84758  1.0000
  S   S400      1.0  0.34019  0.65942  0.80465  1.0000
  Fe  Fe192     1.0  0.36551  0.54518  0.71341  1.0000
  S   S401      1.0  0.37259  0.52556  0.73998  1.0000
  S   S402      1.0  0.38404  0.56232  0.69102  1.0000
  C   C1008     1.0  0.35541  0.58028  0.64748  1.0000
  H   H1611     1.0  0.37610  0.70128  0.84381  1.0000
  Fe  Fe193     1.0  0.34352  0.53916  0.75352  1.0000
  H   H1612     1.0  0.34613  0.62731  0.52920  1.0000
  N   N100      1.0  0.40484  0.69658  0.84631  1.0000
  S   S403      1.0  0.35313  0.52535  0.70514  1.0000
  Fe  Fe194     1.0  0.40467  0.70284  0.90955  1.0000
  H   H1613     1.0  0.40808  0.58926  0.83394  1.0000
  S   S404      1.0  0.37975  0.69013  0.91179  1.0000
  Fe  Fe195     1.0  0.43792  0.70618  0.92453  1.0000
  S   S405      1.0  0.45251  0.71971  0.85261  1.0000
  S   S406      1.0  0.45256  0.69373  0.94940  1.0000
  H   H1614     1.0  0.34661  0.61381  0.72184  1.0000
  H   H1615     1.0  0.44098  0.58395  0.59207  1.0000
  S   S407      1.0  0.51564  0.72768  0.96368  1.0000
  H   H1616     1.0  0.41676  0.58235  0.60084  1.0000
  S   S408      1.0  0.40657  0.71596  0.93251  1.0000
  S   S409      1.0  0.43564  0.69062  0.90339  1.0000
  Fe  Fe196     1.0  0.40275  0.58952  0.51777  1.0000
  S   S410      1.0  0.43367  0.57709  0.51324  1.0000
  S   S411      1.0  0.38956  0.61691  0.52772  1.0000
  H   H1617     1.0  0.40948  0.55639  0.85166  1.0000
  C   C1009     1.0  0.48973  0.70448  0.97405  1.0000
  Fe  Fe197     1.0  0.42471  0.54933  0.52534  1.0000
  S   S412      1.0  0.43795  0.52976  0.54883  1.0000
  H   H1618     1.0  0.35316  0.57723  0.52645  1.0000
  S   S413      1.0  0.39401  0.56217  0.53190  1.0000
  C   C1010     1.0  0.43006  0.50844  0.55740  1.0000
  C   C1011     1.0  0.41854  0.50362  0.54830  1.0000
  S   S414      1.0  0.33360  0.55007  0.78061  1.0000
  C   C1012     1.0  0.37362  0.68127  0.70855  1.0000
  H   H1619     1.0  0.39024  0.69436  0.67270  1.0000
  H   H1620     1.0  0.41431  0.51307  0.53585  1.0000
  H   H1621     1.0  0.38112  0.72701  0.78439  1.0000
  H   H1622     1.0  0.42100  0.59510  0.54896  1.0000
  N   N101      1.0  0.38754  0.57280  0.83712  1.0000
  C   C1013     1.0  0.46963  0.70380  0.95342  1.0000
  H   H1623     1.0  0.41728  0.67163  0.86419  1.0000
  H   H1624     1.0  0.36915  0.71076  0.67965  1.0000
  H   H1625     1.0  0.32730  0.58856  0.50935  1.0000
  N   N102      1.0  0.36774  0.68164  0.69113  1.0000
  H   H1626     1.0  0.42750  0.68958  0.82338  1.0000
  H   H1627     1.0  0.37093  0.65154  0.69688  1.0000
  H   H1628     1.0  0.36921  0.66967  0.72023  1.0000
  Fe  Fe198     1.0  0.33406  0.64619  0.62450  1.0000
  H   H1629     1.0  0.41030  0.69235  0.87401  1.0000
  C   C1014     1.0  0.49093  0.72556  0.94350  1.0000
  C   C1015     1.0  0.36693  0.57568  0.83993  1.0000
  H   H1630     1.0  0.40074  0.57030  0.58319  1.0000
  C   C1016     1.0  0.39268  0.59091  0.83556  1.0000
  H   H1631     1.0  0.45836  0.57432  0.56199  1.0000
  S   S415      1.0  0.42447  0.54377  0.49735  1.0000
  C   C1017     1.0  0.37606  0.64307  0.88499  1.0000
  C   C1018     1.0  0.39302  0.64284  0.88969  1.0000
  C   C1019     1.0  0.39455  0.65725  0.89773  1.0000
  C   C1020     1.0  0.37899  0.67176  0.90148  1.0000
  C   C1021     1.0  0.36199  0.67170  0.89714  1.0000
  C   C1022     1.0  0.36060  0.65763  0.88871  1.0000
  H   H1632     1.0  0.40499  0.63152  0.88708  1.0000
  H   H1633     1.0  0.40761  0.65693  0.90138  1.0000
  H   H1634     1.0  0.34981  0.68270  0.90024  1.0000
  H   H1635     1.0  0.34735  0.65776  0.88560  1.0000
  C   C1023     1.0  0.35976  0.59602  0.78728  1.0000
  C   C1024     1.0  0.34277  0.59244  0.79908  1.0000
  C   C1025     1.0  0.33490  0.57827  0.79696  1.0000
  C   C1026     1.0  0.34369  0.56794  0.78275  1.0000
  C   C1027     1.0  0.36028  0.57202  0.77052  1.0000
  C   C1028     1.0  0.36838  0.58586  0.77292  1.0000
  H   H1636     1.0  0.33583  0.60037  0.81001  1.0000
  H   H1637     1.0  0.36708  0.57196  0.65469  1.0000
  H   H1638     1.0  0.36711  0.56422  0.75945  1.0000
  H   H1639     1.0  0.38147  0.58862  0.76366  1.0000
  C   C1029     1.0  0.49742  0.71867  0.96046  1.0000
  H   H1640     1.0  0.41296  0.56408  0.56096  1.0000
  H   H1641     1.0  0.35533  0.59545  0.64585  1.0000
  H   H1642     1.0  0.41213  0.56349  0.81688  1.0000
  H   H1643     1.0  0.44429  0.49979  0.58066  1.0000
  C   C1030     1.0  0.42297  0.59487  0.56323  1.0000
  H   H1644     1.0  0.38751  0.56416  0.86676  1.0000
  H   H1645     1.0  0.34395  0.57300  0.68509  1.0000
  C   C1031     1.0  0.39119  0.70488  0.74772  1.0000
  C   C1032     1.0  0.38799  0.68712  0.75769  1.0000
  C   C1033     1.0  0.38182  0.68389  0.77732  1.0000
  C   C1034     1.0  0.37909  0.69838  0.78687  1.0000
  C   C1035     1.0  0.38338  0.71576  0.77703  1.0000
  C   C1036     1.0  0.38934  0.71903  0.75741  1.0000
  H   H1646     1.0  0.38918  0.67625  0.75017  1.0000
  H   H1647     1.0  0.37858  0.67040  0.78493  1.0000
  H   H1648     1.0  0.43477  0.56125  0.60088  1.0000
  C   C1037     1.0  0.40501  0.71691  0.84117  1.0000
  C   C1038     1.0  0.35812  0.61961  0.58848  1.0000
  C   C1039     1.0  0.36452  0.60220  0.58288  1.0000
  C   C1040     1.0  0.37408  0.60119  0.56428  1.0000
  C   C1041     1.0  0.37738  0.61761  0.55114  1.0000
  C   C1042     1.0  0.37088  0.63503  0.55669  1.0000
  C   C1043     1.0  0.36128  0.63605  0.57532  1.0000
  H   H1649     1.0  0.36202  0.58944  0.59299  1.0000
  H   H1650     1.0  0.37892  0.58773  0.56014  1.0000
  H   H1651     1.0  0.37337  0.64781  0.54658  1.0000
  H   H1652     1.0  0.35639  0.64953  0.57950  1.0000
  C   C1044     1.0  0.35212  0.62234  0.69152  1.0000
  C   C1045     1.0  0.35404  0.60973  0.70862  1.0000
  C   C1046     1.0  0.36495  0.59150  0.70859  1.0000
  C   C1047     1.0  0.37423  0.58605  0.69150  1.0000
  C   C1048     1.0  0.37360  0.59920  0.67452  1.0000
  C   C1049     1.0  0.36220  0.61719  0.67449  1.0000
  H   H1653     1.0  0.36736  0.69467  0.71357  1.0000
  H   H1654     1.0  0.36602  0.58157  0.72181  1.0000
  H   H1655     1.0  0.38121  0.59519  0.66133  1.0000
  H   H1656     1.0  0.36102  0.62692  0.66126  1.0000
  H   H1657     1.0  0.47226  0.72364  0.92688  1.0000
  H   H1658     1.0  0.48529  0.72948  0.82660  1.0000
  H   H1659     1.0  0.32488  0.55136  0.66990  1.0000
  C   C1050     1.0  0.33700  0.73054  0.63004  1.0000
  H   H1660     1.0  0.33232  0.59622  0.67542  1.0000
  C   C1051     1.0  0.47603  0.69698  0.97045  1.0000
  Fe  Fe199     1.0  0.39430  0.55937  0.50277  1.0000
  H   H1661     1.0  0.38858  0.60140  0.82304  1.0000
  Fe  Fe200     1.0  0.43119  0.57261  0.48564  1.0000
  S   S416      1.0  0.33296  0.71625  0.61676  1.0000
  N   N103      1.0  0.42884  0.57539  0.57359  1.0000
  H   H1662     1.0  0.39193  0.57583  0.80707  1.0000
  C   C1052     1.0  0.37463  0.69671  0.67582  1.0000
  H   H1663     1.0  0.35834  0.59678  0.49435  1.0000
  H   H1664     1.0  0.40939  0.60217  0.57086  1.0000
  Fe  Fe201     1.0  0.43726  0.71824  0.88278  1.0000
  C   C1053     1.0  0.41263  0.68829  0.82936  1.0000
  H   H1665     1.0  0.37019  0.69755  0.66253  1.0000
  H   H1666     1.0  0.43357  0.60347  0.56123  1.0000
  C   C1054     1.0  0.34700  0.68529  0.69464  1.0000
  C   C1055     1.0  0.44724  0.56655  0.56330  1.0000
  H   H1667     1.0  0.34133  0.67442  0.70643  1.0000
  N   N104      1.0  0.33968  0.60628  0.51864  1.0000
  H   H1668     1.0  0.32706  0.63571  0.51695  1.0000
  C   C1056     1.0  0.33294  0.58094  0.67692  1.0000
  C   C1057     1.0  0.35327  0.60963  0.50055  1.0000
  C   C1058     1.0  0.41637  0.68712  0.86065  1.0000
  H   H1669     1.0  0.36168  0.58635  0.82809  1.0000
  C   C1059     1.0  0.33500  0.72559  0.64974  1.0000
  H   H1670     1.0  0.34033  0.70332  0.78323  1.0000
  S   S417      1.0  0.44247  0.73262  0.90309  1.0000
  H   H1671     1.0  0.37909  0.69978  0.86713  1.0000
  H   H1672     1.0  0.36249  0.56247  0.84062  1.0000
  H   H1673     1.0  0.39133  0.66011  0.68257  1.0000
  H   H1674     1.0  0.36132  0.59356  0.53443  1.0000
  C   C1060     1.0  0.39395  0.55900  0.85339  1.0000
  C   C1061     1.0  0.34864  0.59047  0.53197  1.0000
  C   C1062     1.0  0.41472  0.56435  0.57514  1.0000
  C   C1063     1.0  0.43542  0.49611  0.57355  1.0000
  H   H1675     1.0  0.37120  0.66283  0.67268  1.0000
  Fe  Fe202     1.0  0.32786  0.68682  0.62916  1.0000
  H   H1676     1.0  0.34984  0.54695  0.66805  1.0000
  H   H1677     1.0  0.39289  0.55211  0.82018  1.0000
  S   S418      1.0  0.40630  0.72951  0.88769  1.0000
  H   H1678     1.0  0.44656  0.56613  0.54880  1.0000
  H   H1679     1.0  0.34208  0.68496  0.68201  1.0000
  H   H1680     1.0  0.38916  0.67933  0.70629  1.0000
  H   H1681     1.0  0.39008  0.54524  0.85514  1.0000
  C   C1064     1.0  0.37570  0.66325  0.68554  1.0000
  Fe  Fe203     1.0  0.35794  0.50663  0.73271  1.0000
  H   H1682     1.0  0.33894  0.58764  0.54590  1.0000
  C   C1065     1.0  0.43042  0.57575  0.59270  1.0000
  H   H1683     1.0  0.38459  0.67886  0.85774  1.0000
  H   H1684     1.0  0.39165  0.73284  0.74963  1.0000
  H   H1685     1.0  0.38556  0.59711  0.84823  1.0000
  H   H1686     1.0  0.35962  0.58079  0.85317  1.0000
  H   H1687     1.0  0.34051  0.69928  0.69837  1.0000
  Fe  Fe204     1.0  0.32889  0.65497  0.66302  1.0000
  C   C1066     1.0  0.38531  0.69403  0.85408  1.0000
  N   N105      1.0  0.33716  0.57579  0.65833  1.0000
  S   S419      1.0  0.33762  0.56005  0.72734  1.0000
  H   H1688     1.0  0.39869  0.72362  0.85359  1.0000
  H   H1689     1.0  0.39680  0.72438  0.83005  1.0000
  H   H1690     1.0  0.39378  0.49462  0.70541  1.0000
  S   S420      1.0  0.33645  0.64411  0.69142  1.0000
  H   H1691     1.0  0.34695  0.62125  0.48998  1.0000
  H   H1692     1.0  0.41217  0.67306  0.83268  1.0000
  H   H1693     1.0  0.33073  0.71256  0.65738  1.0000
  H   H1694     1.0  0.35875  0.57740  0.63304  1.0000
  H   H1695     1.0  0.36580  0.61358  0.50246  1.0000
  H   H1696     1.0  0.41962  0.71934  0.83592  1.0000
  Fe  Fe205     1.0  0.32577  0.53837  0.72171  1.0000
  H   H1697     1.0  0.32890  0.69879  0.81810  1.0000
  C   C1067     1.0  0.32561  0.71022  0.78187  1.0000
  H   H1698     1.0  0.33631  0.73405  0.67467  1.0000
  H   H1699     1.0  0.32628  0.72024  0.76798  1.0000
  C   C1068     1.0  0.33814  0.55541  0.66099  1.0000
  C   C1069     1.0  0.41267  0.48637  0.55518  1.0000
  H   H1700     1.0  0.32369  0.62139  0.54040  1.0000
  H   H1701     1.0  0.34103  0.48983  0.70752  1.0000
  H   H1702     1.0  0.34063  0.55119  0.64725  1.0000
  H   H1703     1.0  0.47054  0.68566  0.98082  1.0000
  H   H1704     1.0  0.43097  0.72207  0.97126  1.0000
  C   C1070     1.0  0.32578  0.73419  0.79778  1.0000
  H   H1705     1.0  0.32503  0.58313  0.63375  1.0000
  H   H1706     1.0  0.55752  0.73075  0.95110  1.0000
  H   H1707     1.0  0.39846  0.73194  0.96756  1.0000
  H   H1708     1.0  0.41433  0.69804  0.96983  1.0000
  S   S421      1.0  0.34744  0.73492  0.70724  1.0000
  Fe  Fe206     1.0  0.59767  0.90021  0.14511  1.0000
  S   S422      1.0  0.57648  0.90498  0.17163  1.0000
  S   S423      1.0  0.61694  0.87180  0.14363  1.0000
  Fe  Fe207     1.0  0.58475  0.93943  0.12347  1.0000
  S   S424      1.0  0.56208  0.94733  0.14788  1.0000
  Fe  Fe208     1.0  0.58414  0.93330  0.16518  1.0000
  S   S425      1.0  0.58441  0.94984  0.18641  1.0000
  Fe  Fe209     1.0  0.55620  0.91849  0.15228  1.0000
  S   S426      1.0  0.52737  0.91110  0.16235  1.0000
  S   S427      1.0  0.60726  0.92723  0.14038  1.0000
  S   S428      1.0  0.57692  0.91187  0.12619  1.0000
  Fe  Fe210     1.0  0.61285  0.82459  0.06806  1.0000
  C   C1071     1.0  0.61935  0.97852  0.24680  1.0000
  S   S429      1.0  0.59026  0.83664  0.09031  1.0000
  N   N106      1.0  0.38435  0.89109  0.01165  1.0000
  Fe  Fe211     1.0  0.39135  0.82612  0.02520  1.0000
  S   S430      1.0  0.38659  0.79675  0.03694  1.0000
  S   S431      1.0  0.41577  0.83578  0.02865  1.0000
  H   H1709     1.0  0.39700  0.84830  0.14512  1.0000
  Fe  Fe212     1.0  0.35601  0.80987  0.03791  1.0000
  C   C1072     1.0  0.62858  0.91226  0.98677  1.0000
  S   S432      1.0  0.36071  0.83964  0.02884  1.0000
  S   S433      1.0  0.55899  0.76960  0.99660  1.0000
  H   H1710     1.0  0.60454  0.81981  0.12420  1.0000
  Fe  Fe213     1.0  0.48081  0.84877  0.12187  1.0000
  S   S434      1.0  0.47357  0.84681  0.09531  1.0000
  S   S435      1.0  0.49902  0.87053  0.11401  1.0000
  Fe  Fe214     1.0  0.46435  0.81409  0.14419  1.0000
  S   S436      1.0  0.45703  0.80947  0.11893  1.0000
  S   S437      1.0  0.45564  0.79612  0.17305  1.0000
  Fe  Fe215     1.0  0.48506  0.81595  0.10350  1.0000
  S   S438      1.0  0.50663  0.80248  0.08123  1.0000
  Fe  Fe216     1.0  0.44627  0.84064  0.11336  1.0000
  S   S439      1.0  0.41726  0.85069  0.10708  1.0000
  S   S440      1.0  0.49367  0.81791  0.12920  1.0000
  S   S441      1.0  0.45215  0.84531  0.13939  1.0000
  H   H1711     1.0  0.41366  0.87765  0.00677  1.0000
  S   S442      1.0  0.61485  0.76515  0.04847  1.0000
  C   C1073     1.0  0.60043  0.76645  0.03289  1.0000
  C   C1074     1.0  0.44336  0.77852  0.17449  1.0000
  H   H1712     1.0  0.59729  0.79636  0.02211  1.0000
  S   S443      1.0  0.62763  0.79461  0.07560  1.0000
  C   C1075     1.0  0.43155  0.77207  0.19157  1.0000
  C   C1076     1.0  0.48499  0.77698  0.08448  1.0000
  C   C1077     1.0  0.49909  0.78640  0.07319  1.0000
  C   C1078     1.0  0.50849  0.78186  0.05574  1.0000
  C   C1079     1.0  0.50442  0.76743  0.04994  1.0000
  H   H1713     1.0  0.51916  0.78932  0.04675  1.0000
  H   H1714     1.0  0.51200  0.76391  0.03658  1.0000
  C   C1080     1.0  0.41587  0.83879  0.05099  1.0000
  C   C1081     1.0  0.39938  0.84078  0.06485  1.0000
  C   C1082     1.0  0.39979  0.84456  0.08210  1.0000
  C   C1083     1.0  0.41677  0.84573  0.08566  1.0000
  C   C1084     1.0  0.43328  0.84316  0.07197  1.0000
  C   C1085     1.0  0.43277  0.84000  0.05456  1.0000
  H   H1715     1.0  0.38630  0.83974  0.06220  1.0000
  H   H1716     1.0  0.38700  0.84645  0.09273  1.0000
  H   H1717     1.0  0.44640  0.84405  0.07462  1.0000
  H   H1718     1.0  0.44555  0.83852  0.04386  1.0000
  H   H1719     1.0  0.47783  0.78022  0.09809  1.0000
  C   C1086     1.0  0.55362  0.82159  0.07595  1.0000
  C   C1087     1.0  0.59531  0.75004  0.03223  1.0000
  C   C1088     1.0  0.58265  0.75090  0.02108  1.0000
  C   C1089     1.0  0.57526  0.76816  0.01028  1.0000
  C   C1090     1.0  0.58077  0.78450  0.01055  1.0000
  C   C1091     1.0  0.53735  0.74298  0.08483  1.0000
  H   H1720     1.0  0.35463  0.90031  0.01238  1.0000
  S   S444      1.0  0.39449  0.82493  0.99506  1.0000
  H   H1721     1.0  0.40901  0.79603  0.15176  1.0000
  H   H1722     1.0  0.62256  0.97905  0.01234  1.0000
  C   C1092     1.0  0.60489  0.95474  0.18961  1.0000
  C   C1093     1.0  0.62210  0.94188  0.18789  1.0000
  H   H1723     1.0  0.65474  0.84777  0.12366  1.0000
  C   C1094     1.0  0.55395  0.85460  0.06325  1.0000
  C   C1095     1.0  0.64949  0.96666  0.25564  1.0000
  H   H1724     1.0  0.62321  0.92869  0.18401  1.0000
  H   H1725     1.0  0.44190  0.79000  0.99577  1.0000
  C   C1096     1.0  0.51862  0.90092  0.14858  1.0000
  C   C1097     1.0  0.50349  0.89179  0.15702  1.0000
  C   C1098     1.0  0.49720  0.88231  0.14671  1.0000
  C   C1099     1.0  0.50590  0.88220  0.12782  1.0000
  C   C1100     1.0  0.52076  0.89164  0.11934  1.0000
  C   C1101     1.0  0.52715  0.90090  0.12967  1.0000
  H   H1726     1.0  0.49675  0.89185  0.17163  1.0000
  H   H1727     1.0  0.48562  0.87523  0.15331  1.0000
  H   H1728     1.0  0.52743  0.89175  0.10469  1.0000
  H   H1729     1.0  0.53864  0.90807  0.12296  1.0000
  C   C1102     1.0  0.59947  0.84595  0.10411  1.0000
  C   C1103     1.0  0.60039  0.86500  0.09924  1.0000
  C   C1104     1.0  0.60648  0.87282  0.11101  1.0000
  C   C1105     1.0  0.61153  0.86165  0.12773  1.0000
  C   C1106     1.0  0.61139  0.84240  0.13220  1.0000
  C   C1107     1.0  0.60519  0.83457  0.12047  1.0000
  H   H1730     1.0  0.59604  0.87381  0.08656  1.0000
  H   H1731     1.0  0.60717  0.88755  0.10717  1.0000
  H   H1732     1.0  0.61543  0.83370  0.14506  1.0000
  H   H1733     1.0  0.64642  0.82293  0.11294  1.0000
  H   H1734     1.0  0.64859  0.86505  0.10358  1.0000
  H   H1735     1.0  0.52916  0.84594  0.09552  1.0000
  C   C1108     1.0  0.63625  0.96253  0.19778  1.0000
  S   S445      1.0  0.59342  0.95820  0.09529  1.0000
  Fe  Fe217     1.0  0.63345  0.82987  0.02736  1.0000
  H   H1736     1.0  0.62898  0.96817  0.29059  1.0000
  H   H1737     1.0  0.47828  0.77004  0.02496  1.0000
  H   H1738     1.0  0.65424  0.76593  0.28109  1.0000
  H   H1739     1.0  0.51686  0.85910  0.07715  1.0000
  H   H1740     1.0  0.65358  0.78619  0.10149  1.0000
  S   S446      1.0  0.62651  0.93683  0.98266  1.0000
  H   H1741     1.0  0.57877  0.73815  0.02070  1.0000
  H   H1742     1.0  0.37963  0.86666  0.03322  1.0000
  C   C1109     1.0  0.32574  0.73854  0.28627  1.0000
  H   H1743     1.0  0.52855  0.85237  0.04490  1.0000
  H   H1744     1.0  0.51646  0.83465  0.08630  1.0000
  H   H1745     1.0  0.56602  0.76506  0.09546  1.0000
  H   H1746     1.0  0.64927  0.95200  0.25529  1.0000
  C   C1110     1.0  0.39841  0.84048  0.15965  1.0000
  Fe  Fe218     1.0  0.38759  0.79650  0.00690  1.0000
  C   C1111     1.0  0.43296  0.75926  0.15944  1.0000
  S   S447      1.0  0.40772  0.77286  0.99447  1.0000
  C   C1112     1.0  0.48070  0.76266  0.07852  1.0000
  S   S448      1.0  0.35652  0.80722  0.00861  1.0000
  H   H1747     1.0  0.47376  0.77385  0.00182  1.0000
  H   H1748     1.0  0.35713  0.76819  0.05366  1.0000
  H   H1749     1.0  0.45395  0.77584  0.14558  1.0000
  H   H1750     1.0  0.61856  0.96416  0.24604  1.0000
  H   H1751     1.0  0.38789  0.84847  0.16974  1.0000
  C   C1113     1.0  0.42001  0.75971  0.19242  1.0000
  H   H1752     1.0  0.56661  0.81719  0.06561  1.0000
  H   H1753     1.0  0.54973  0.83500  0.03991  1.0000
  C   C1114     1.0  0.39779  0.81117  0.18244  1.0000
  H   H1754     1.0  0.35893  0.73947  0.11709  1.0000
  H   H1755     1.0  0.62003  0.95430  0.28011  1.0000
  N   N107      1.0  0.54259  0.84003  0.06810  1.0000
  H   H1756     1.0  0.36888  0.88866  0.04042  1.0000
  H   H1757     1.0  0.45174  0.75361  0.03820  1.0000
  H   H1758     1.0  0.43091  0.77705  0.20405  1.0000
  H   H1759     1.0  0.55327  0.76173  0.05186  1.0000
  C   C1115     1.0  0.49070  0.75763  0.06141  1.0000
  H   H1760     1.0  0.36573  0.82865  0.17044  1.0000
  C   C1116     1.0  0.55408  0.76662  0.06435  1.0000
  H   H1761     1.0  0.36908  0.90060  0.98918  1.0000
  S   S449      1.0  0.65016  0.80003  0.03150  1.0000
  C   C1117     1.0  0.60357  0.97170  0.19486  1.0000
  H   H1762     1.0  0.38717  0.81831  0.19313  1.0000
  S   S450      1.0  0.60586  0.82140  0.04199  1.0000
  H   H1763     1.0  0.52858  0.82787  0.05421  1.0000
  C   C1118     1.0  0.59326  0.78367  0.02190  1.0000
  C   C1119     1.0  0.33924  0.75993  0.29518  1.0000
  H   H1764     1.0  0.56703  0.77241  0.06063  1.0000
  N   N108      1.0  0.39584  0.82096  0.16301  1.0000
  S   S451      1.0  0.51479  0.74952  0.00351  1.0000
  H   H1765     1.0  0.41063  0.75514  0.20552  1.0000
  N   N109      1.0  0.55605  0.85201  0.16452  1.0000
  C   C1120     1.0  0.54281  0.84710  0.15606  1.0000
  C   C1121     1.0  0.54573  0.85931  0.18168  1.0000
  C   C1122     1.0  0.56526  0.86661  0.15078  1.0000
  C   C1123     1.0  0.57048  0.83507  0.16951  1.0000
  H   H1766     1.0  0.55015  0.84142  0.14314  1.0000
  H   H1767     1.0  0.53206  0.85968  0.15174  1.0000
  H   H1768     1.0  0.53522  0.83644  0.16614  1.0000
  H   H1769     1.0  0.53906  0.84852  0.19267  1.0000
  H   H1770     1.0  0.55515  0.86403  0.18789  1.0000
  H   H1771     1.0  0.53429  0.87171  0.17850  1.0000
  H   H1772     1.0  0.57631  0.86976  0.15612  1.0000
  H   H1773     1.0  0.55506  0.88006  0.14783  1.0000
  H   H1774     1.0  0.57184  0.86231  0.13706  1.0000
  H   H1775     1.0  0.58093  0.83842  0.17557  1.0000
  H   H1776     1.0  0.57832  0.82915  0.15687  1.0000
  H   H1777     1.0  0.56406  0.82384  0.18007  1.0000
  H   H1778     1.0  0.65069  0.93526  0.19178  1.0000
  H   H1779     1.0  0.63145  0.87362  0.02291  1.0000
  C   C1124     1.0  0.38150  0.88120  0.03167  1.0000
  N   N110      1.0  0.59350  0.98530  0.02624  1.0000
  H   H1780     1.0  0.43007  0.79242  0.04644  1.0000
  H   H1781     1.0  0.52410  0.75362  0.08758  1.0000
  S   S452      1.0  0.65541  0.96612  0.20492  1.0000
  H   H1782     1.0  0.54525  0.81042  0.07997  1.0000
  C   C1125     1.0  0.44437  0.77166  0.15858  1.0000
  Fe  Fe219     1.0  0.62297  0.79210  0.04814  1.0000
  H   H1783     1.0  0.56744  0.85081  0.05325  1.0000
  H   H1784     1.0  0.39602  0.79635  0.18543  1.0000
  H   H1785     1.0  0.40919  0.81775  0.13460  1.0000
  H   H1786     1.0  0.55802  0.82215  0.08882  1.0000
  C   C1126     1.0  0.60828  0.98026  0.00995  1.0000
  H   H1787     1.0  0.42465  0.81075  0.15085  1.0000
  C   C1127     1.0  0.43922  0.79548  0.00886  1.0000
  H   H1788     1.0  0.37516  0.91861  0.01830  1.0000
  S   S453      1.0  0.36232  0.74180  0.26806  1.0000
  H   H1789     1.0  0.41264  0.84070  0.16122  1.0000
  H   H1790     1.0  0.41196  0.81067  0.18474  1.0000
  C   C1128     1.0  0.62891  0.90150  0.00509  1.0000
  C   C1129     1.0  0.33245  0.77890  0.07299  1.0000
  H   H1791     1.0  0.37474  0.80661  0.16285  1.0000
  C   C1130     1.0  0.37700  0.82120  0.16044  1.0000
  H   H1792     1.0  0.43366  0.75425  0.14696  1.0000
  H   H1793     1.0  0.37521  0.82844  0.14584  1.0000
  C   C1131     1.0  0.41028  0.81093  0.14945  1.0000
  N   N111      1.0  0.55407  0.75120  0.08125  1.0000
  C   C1132     1.0  0.34546  0.74563  0.07374  1.0000
  H   H1794     1.0  0.42870  0.76538  0.03385  1.0000
  H   H1795     1.0  0.47008  0.75509  0.08746  1.0000
  C   C1133     1.0  0.44402  0.76394  0.02771  1.0000
  H   H1796     1.0  0.44696  0.75776  0.01502  1.0000
  H   H1797     1.0  0.63932  0.84079  0.09342  1.0000
  C   C1134     1.0  0.40099  0.88031  0.00069  1.0000
  S   S454      1.0  0.33268  0.80280  0.06291  1.0000
  H   H1798     1.0  0.47473  0.79342  0.01094  1.0000
  N   N112      1.0  0.44965  0.78232  0.02286  1.0000
  C   C1135     1.0  0.47000  0.77983  0.01473  1.0000
  H   H1799     1.0  0.60336  0.96348  0.14990  1.0000
  H   H1800     1.0  0.62746  0.90842  0.01651  1.0000
  H   H1801     1.0  0.64479  0.75502  0.09578  1.0000
  Fe  Fe220     1.0  0.54469  0.74495  0.00591  1.0000
  C   C1136     1.0  0.55360  0.75873  0.09772  1.0000
  C   C1137     1.0  0.34610  0.76460  0.06563  1.0000
  C   C1138     1.0  0.53716  0.83877  0.05099  1.0000
  H   H1802     1.0  0.54193  0.77846  0.06667  1.0000
  H   H1803     1.0  0.60653  0.97702  0.28399  1.0000
  C   C1139     1.0  0.42050  0.75351  0.17624  1.0000
  H   H1804     1.0  0.54069  0.76982  0.10049  1.0000
  S   S455      1.0  0.36054  0.75093  0.21571  1.0000
  C   C1140     1.0  0.52554  0.84515  0.08234  1.0000
  H   H1805     1.0  0.44957  0.80384  0.03698  1.0000
  C   C1141     1.0  0.38741  0.91012  0.01011  1.0000
  C   C1142     1.0  0.44539  0.79003  0.04008  1.0000
  H   H1806     1.0  0.42385  0.79773  0.01455  1.0000
  S   S456      1.0  0.63699  0.84799  0.99786  1.0000
  H   H1807     1.0  0.39871  0.86630  0.00056  1.0000
  H   H1808     1.0  0.35089  0.76650  0.29360  1.0000
  H   H1809     1.0  0.57522  0.79786  0.00211  1.0000
  H   H1810     1.0  0.35164  0.75420  0.14507  1.0000
  Fe  Fe221     1.0  0.36353  0.83607  0.99939  1.0000
  H   H1811     1.0  0.39384  0.87984  0.03784  1.0000
  C   C1143     1.0  0.63117  0.88180  0.00876  1.0000
  Fe  Fe222     1.0  0.65342  0.80499  0.05859  1.0000
  C   C1144     1.0  0.63763  0.94562  0.19233  1.0000
  C   C1145     1.0  0.63328  0.87273  0.99406  1.0000
  N   N113      1.0  0.63030  0.97782  0.26077  1.0000
  H   H1812     1.0  0.40006  0.90938  0.01551  1.0000
  C   C1146     1.0  0.36758  0.89275  0.00412  1.0000
  H   H1813     1.0  0.55749  0.85649  0.07605  1.0000
  H   H1814     1.0  0.45294  0.78032  0.05100  1.0000
  S   S457      1.0  0.63902  0.83559  0.05312  1.0000
  H   H1815     1.0  0.54623  0.86854  0.05673  1.0000
  H   H1816     1.0  0.63167  0.96379  0.12473  1.0000
  C   C1147     1.0  0.62105  0.96892  0.27972  1.0000
  C   C1148     1.0  0.33104  0.74084  0.08906  1.0000
  C   C1149     1.0  0.64323  0.74347  0.08997  1.0000
  H   H1817     1.0  0.44302  0.80955  0.00490  1.0000
  H   H1818     1.0  0.32628  0.74684  0.13443  1.0000
  S   S458      1.0  0.40538  0.73919  0.17612  1.0000
  C   C1150     1.0  0.61927  0.97578  0.19851  1.0000
  H   H1819     1.0  0.59515  0.95646  0.04127  1.0000
  H   H1820     1.0  0.38953  0.91798  0.99514  1.0000
  H   H1821     1.0  0.36514  0.87866  0.00444  1.0000
  H   H1822     1.0  0.40434  0.88793  0.98579  1.0000
  H   H1823     1.0  0.61743  0.97787  0.10834  1.0000
  C   C1151     1.0  0.65145  0.83029  0.09825  1.0000
  H   H1824     1.0  0.55363  0.74743  0.11073  1.0000
  H   H1825     1.0  0.39136  0.74166  0.98834  1.0000
  H   H1826     1.0  0.60106  0.73662  0.04044  1.0000
  H   H1827     1.0  0.57330  0.97382  0.01960  1.0000
  C   C1152     1.0  0.62538  0.97858  0.11865  1.0000
  H   H1828     1.0  0.63148  0.74909  0.08227  1.0000
  H   H1829     1.0  0.64446  0.74637  0.22693  1.0000
  H   H1830     1.0  0.58421  0.74229  0.07481  1.0000
  H   H1831     1.0  0.65584  0.81968  0.08924  1.0000
  H   H1832     1.0  0.58902  0.97779  0.13377  1.0000
  S   S459      1.0  0.48650  0.73887  0.05442  1.0000
  H   H1833     1.0  0.60784  0.96653  0.00721  1.0000
  H   H1834     1.0  0.58810  0.98495  0.15508  1.0000
  H   H1835     1.0  0.65473  0.75687  0.05278  1.0000
  H   H1836     1.0  0.34397  0.74096  0.16822  1.0000
  C   C1153     1.0  0.59591  0.97038  0.04326  1.0000
  C   C1154     1.0  0.35327  0.73982  0.15416  1.0000
  H   H1837     1.0  0.53697  0.73752  0.07254  1.0000
  C   C1155     1.0  0.34086  0.74712  0.28401  1.0000
  C   C1156     1.0  0.59768  0.97828  0.14348  1.0000
  H   H1838     1.0  0.56030  0.97906  0.11684  1.0000
  H   H1839     1.0  0.60970  0.96877  0.04695  1.0000
  H   H1840     1.0  0.62599  0.98519  0.23241  1.0000
  H   H1841     1.0  0.63004  0.97411  0.15410  1.0000
  H   H1842     1.0  0.58482  0.97360  0.05579  1.0000
  H   H1843     1.0  0.59026  0.98168  0.19625  1.0000
  C   C1157     1.0  0.57128  0.73650  0.07811  1.0000
  C   C1158     1.0  0.58403  0.98236  0.09381  1.0000
  H   H1844     1.0  0.47487  0.97921  0.81748  1.0000
  H   H1845     1.0  0.37332  0.93867  0.82624  1.0000
  H   H1846     1.0  0.34934  0.77286  0.62227  1.0000
  H   H1847     1.0  0.42823  0.97007  0.84509  1.0000
  S   S460      1.0  0.37492  0.76474  0.70242  1.0000
  Fe  Fe223     1.0  0.35375  0.77593  0.72649  1.0000
  S   S461      1.0  0.35412  0.79707  0.74339  1.0000
  Fe  Fe224     1.0  0.34996  0.76396  0.69146  1.0000
  S   S462      1.0  0.34743  0.77116  0.66088  1.0000
  H   H1848     1.0  0.57529  0.77135  0.95420  1.0000
  C   C1159     1.0  0.56409  0.96292  0.87132  1.0000
  Fe  Fe225     1.0  0.41743  0.85091  0.81327  1.0000
  S   S463      1.0  0.42016  0.86646  0.78292  1.0000
  S   S464      1.0  0.39630  0.86118  0.83762  1.0000
  Fe  Fe226     1.0  0.45298  0.82195  0.80540  1.0000
  S   S465      1.0  0.45843  0.83545  0.77482  1.0000
  S   S466      1.0  0.47594  0.79789  0.81408  1.0000
  Fe  Fe227     1.0  0.45050  0.86295  0.78435  1.0000
  S   S467      1.0  0.46943  0.88439  0.77205  1.0000
  Fe  Fe228     1.0  0.42773  0.83722  0.77660  1.0000
  S   S468      1.0  0.42317  0.82597  0.75293  1.0000
  S   S469      1.0  0.44711  0.84903  0.81487  1.0000
  S   S470      1.0  0.42287  0.82197  0.80704  1.0000
  Fe  Fe229     1.0  0.39771  0.95103  0.86593  1.0000
  S   S471      1.0  0.41392  0.95043  0.88712  1.0000
  S   S472      1.0  0.41174  0.93901  0.84023  1.0000
  H   H1849     1.0  0.46607  0.77650  0.77642  1.0000
  H   H1850     1.0  0.42270  0.79085  0.89087  1.0000
  H   H1851     1.0  0.43785  0.96680  0.82145  1.0000
  H   H1852     1.0  0.52097  0.81089  0.80431  1.0000
  Fe  Fe230     1.0  0.38701  0.94692  0.90820  1.0000
  S   S473      1.0  0.39284  0.92558  0.93461  1.0000
  C   C1160     1.0  0.56811  0.97463  0.88087  1.0000
  S   S474      1.0  0.37155  0.94523  0.88693  1.0000
  C   C1161     1.0  0.61004  0.98019  0.84670  1.0000
  C   C1162     1.0  0.57498  0.75794  0.95067  1.0000
  S   S475      1.0  0.56725  0.92881  0.86256  1.0000
  Fe  Fe231     1.0  0.52372  0.93730  0.81768  1.0000
  S   S476      1.0  0.50384  0.91730  0.82275  1.0000
  S   S477      1.0  0.51990  0.94640  0.84499  1.0000
  N   N114      1.0  0.51262  0.83960  0.79027  1.0000
  C   C1163     1.0  0.38166  0.87496  0.96370  1.0000
  S   S478      1.0  0.52192  0.96693  0.80026  1.0000
  H   H1853     1.0  0.39543  0.80925  0.91057  1.0000
  C   C1164     1.0  0.33124  0.95527  0.85320  1.0000
  C   C1165     1.0  0.41915  0.83809  0.87497  1.0000
  C   C1166     1.0  0.58114  0.96741  0.89264  1.0000
  H   H1854     1.0  0.40755  0.85079  0.87467  1.0000
  H   H1855     1.0  0.45082  0.78540  0.79630  1.0000
  H   H1856     1.0  0.58857  0.75342  0.94116  1.0000
  C   C1167     1.0  0.58559  0.93656  0.88579  1.0000
  C   C1168     1.0  0.38137  0.90649  0.94408  1.0000
  C   C1169     1.0  0.34855  0.92315  0.85473  1.0000
  C   C1170     1.0  0.38946  0.78509  0.96489  1.0000
  C   C1171     1.0  0.36255  0.87708  0.96427  1.0000
  H   H1857     1.0  0.40615  0.81796  0.85837  1.0000
  C   C1172     1.0  0.36246  0.90834  0.94391  1.0000
  C   C1173     1.0  0.49659  0.84377  0.80586  1.0000
  C   C1174     1.0  0.58996  0.94837  0.89505  1.0000
  C   C1175     1.0  0.46898  0.77645  0.82524  1.0000
  C   C1176     1.0  0.48113  0.75971  0.82141  1.0000
  C   C1177     1.0  0.50184  0.94573  0.91355  1.0000
  H   H1858     1.0  0.53212  0.82729  0.80869  1.0000
  C   C1178     1.0  0.44651  0.75838  0.84649  1.0000
  C   C1179     1.0  0.45148  0.77586  0.83753  1.0000
  H   H1859     1.0  0.49461  0.76012  0.81186  1.0000
  H   H1860     1.0  0.57171  0.73686  0.92804  1.0000
  H   H1861     1.0  0.44199  0.78879  0.84041  1.0000
  C   C1180     1.0  0.47762  0.89500  0.78611  1.0000
  C   C1181     1.0  0.49119  0.90612  0.77746  1.0000
  C   C1182     1.0  0.49917  0.91342  0.78834  1.0000
  C   C1183     1.0  0.49365  0.90962  0.80803  1.0000
  C   C1184     1.0  0.47981  0.89885  0.81662  1.0000
  C   C1185     1.0  0.47175  0.89170  0.80576  1.0000
  H   H1862     1.0  0.49577  0.90887  0.76226  1.0000
  H   H1863     1.0  0.50978  0.92172  0.78152  1.0000
  H   H1864     1.0  0.47529  0.89596  0.83182  1.0000
  H   H1865     1.0  0.46105  0.88354  0.81265  1.0000
  C   C1186     1.0  0.40082  0.88255  0.83890  1.0000
  C   C1187     1.0  0.41260  0.89191  0.82378  1.0000
  C   C1188     1.0  0.41609  0.90905  0.82451  1.0000
  C   C1189     1.0  0.40796  0.91691  0.84044  1.0000
  C   C1190     1.0  0.39650  0.90740  0.85584  1.0000
  C   C1191     1.0  0.39282  0.89026  0.85502  1.0000
  H   H1866     1.0  0.41890  0.88613  0.81131  1.0000
  H   H1867     1.0  0.42507  0.91627  0.81260  1.0000
  H   H1868     1.0  0.39046  0.91322  0.86833  1.0000
  H   H1869     1.0  0.38382  0.88301  0.86684  1.0000
  C   C1192     1.0  0.37374  0.80426  0.74626  1.0000
  C   C1193     1.0  0.37142  0.81362  0.76096  1.0000
  C   C1194     1.0  0.38638  0.82022  0.76334  1.0000
  C   C1195     1.0  0.40376  0.81788  0.75077  1.0000
  C   C1196     1.0  0.40609  0.80848  0.73610  1.0000
  C   C1197     1.0  0.39127  0.80152  0.73398  1.0000
  H   H1870     1.0  0.35789  0.81595  0.77045  1.0000
  H   H1871     1.0  0.38430  0.82749  0.77463  1.0000
  H   H1872     1.0  0.41941  0.80671  0.72619  1.0000
  H   H1873     1.0  0.39323  0.79453  0.72250  1.0000
  H   H1874     1.0  0.32654  0.74503  0.78441  1.0000
  H   H1875     1.0  0.59999  0.94271  0.90417  1.0000
  H   H1876     1.0  0.52517  0.86148  0.79228  1.0000
  H   H1877     1.0  0.45782  0.74552  0.78833  1.0000
  Fe  Fe232     1.0  0.62774  0.95519  0.95335  1.0000
  C   C1198     1.0  0.41945  0.76343  0.95990  1.0000
  H   H1878     1.0  0.44587  0.93835  0.85670  1.0000
  C   C1199     1.0  0.34368  0.75481  0.64964  1.0000
  H   H1879     1.0  0.36888  0.95013  0.84552  1.0000
  H   H1880     1.0  0.40812  0.77279  0.79173  1.0000
  N   N115      1.0  0.51188  0.96144  0.90778  1.0000
  H   H1881     1.0  0.44323  0.75322  0.80904  1.0000
  C   C1200     1.0  0.54117  0.76613  0.95527  1.0000
  H   H1882     1.0  0.56024  0.78839  0.92697  1.0000
  C   C1201     1.0  0.63041  0.90324  0.97211  1.0000
  H   H1883     1.0  0.35476  0.92365  0.86647  1.0000
  H   H1884     1.0  0.53975  0.75552  0.96866  1.0000
  H   H1885     1.0  0.55419  0.96864  0.86214  1.0000
  C   C1202     1.0  0.36260  0.94864  0.83426  1.0000
  C   C1203     1.0  0.47393  0.96411  0.82238  1.0000
  H   H1886     1.0  0.54078  0.77966  0.95897  1.0000
  C   C1204     1.0  0.55869  0.74191  0.93801  1.0000
  S   S479      1.0  0.32907  0.77838  0.71349  1.0000
  H   H1887     1.0  0.45627  0.93529  0.83310  1.0000
  H   H1888     1.0  0.41460  0.79525  0.78392  1.0000
  C   C1205     1.0  0.51669  0.96660  0.88697  1.0000
  H   H1889     1.0  0.41798  0.78129  0.80653  1.0000
  H   H1890     1.0  0.38978  0.83438  0.90378  1.0000
  C   C1206     1.0  0.40024  0.77245  0.93635  1.0000
  H   H1891     1.0  0.49807  0.94137  0.92919  1.0000
  Fe  Fe233     1.0  0.41110  0.74139  0.90995  1.0000
  H   H1892     1.0  0.47417  0.96073  0.85878  1.0000
  C   C1207     1.0  0.45872  0.74164  0.84251  1.0000
  C   C1208     1.0  0.49969  0.97785  0.91530  1.0000
  H   H1893     1.0  0.59736  0.96903  0.82181  1.0000
  C   C1209     1.0  0.60615  0.97989  0.81590  1.0000
  H   H1894     1.0  0.57430  0.74727  0.96415  1.0000
  Fe  Fe234     1.0  0.52025  0.97524  0.82732  1.0000
  H   H1895     1.0  0.37414  0.79220  0.94255  1.0000
  S   S480      1.0  0.39622  0.77015  0.91517  1.0000
  H   H1896     1.0  0.35858  0.91268  0.84683  1.0000
  H   H1897     1.0  0.45224  0.76326  0.75665  1.0000
  H   H1898     1.0  0.34682  0.93052  0.81815  1.0000
  N   N116      1.0  0.55878  0.76011  0.94206  1.0000
  Fe  Fe235     1.0  0.32783  0.74905  0.72976  1.0000
  H   H1899     1.0  0.38919  0.86215  0.97119  1.0000
  H   H1900     1.0  0.50393  0.97093  0.88075  1.0000
  C   C1210     1.0  0.39896  0.81867  0.87323  1.0000
  Fe  Fe236     1.0  0.55106  0.94262  0.83939  1.0000
  C   C1211     1.0  0.41882  0.78057  0.79170  1.0000
  S   S481      1.0  0.57487  0.97087  0.77256  1.0000
  H   H1901     1.0  0.49533  0.84616  0.76980  1.0000
  C   C1212     1.0  0.41665  0.76223  0.94256  1.0000
  S   S482      1.0  0.55537  0.93108  0.81348  1.0000
  C   C1213     1.0  0.39100  0.88963  0.95368  1.0000
  H   H1902     1.0  0.39324  0.80564  0.87971  1.0000
  H   H1903     1.0  0.40573  0.88802  0.95348  1.0000
  H   H1904     1.0  0.53921  0.82018  0.78634  1.0000
  H   H1905     1.0  0.51770  0.83090  0.76393  1.0000
  C   C1214     1.0  0.40160  0.82187  0.90353  1.0000
  H   H1906     1.0  0.41096  0.82283  0.91235  1.0000
  H   H1907     1.0  0.49033  0.83120  0.81303  1.0000
  S   S483      1.0  0.63371  0.94919  0.92411  1.0000
  H   H1908     1.0  0.43755  0.80505  0.89279  1.0000
  H   H1909     1.0  0.38682  0.83088  0.87265  1.0000
  H   H1910     1.0  0.42654  0.83796  0.86005  1.0000
  H   H1911     1.0  0.43590  0.80310  0.86991  1.0000
  H   H1912     1.0  0.53907  0.94346  0.90948  1.0000
  H   H1913     1.0  0.43317  0.75785  0.85629  1.0000
  H   H1914     1.0  0.54815  0.77646  0.91754  1.0000
  H   H1915     1.0  0.53709  0.96722  0.91131  1.0000
  N   N117      1.0  0.45819  0.96133  0.83865  1.0000
  H   H1916     1.0  0.49509  0.97434  0.93094  1.0000
  H   H1917     1.0  0.46103  0.98360  0.85016  1.0000
  H   H1918     1.0  0.43228  0.75568  0.96450  1.0000
  H   H1919     1.0  0.57336  0.77041  0.91403  1.0000
  C   C1215     1.0  0.52690  0.82379  0.79772  1.0000
  H   H1920     1.0  0.49930  0.82192  0.78197  1.0000
  C   C1216     1.0  0.52084  0.85649  0.78165  1.0000
  N   N118      1.0  0.43792  0.77164  0.78293  1.0000
  C   C1217     1.0  0.45783  0.94104  0.84474  1.0000
  H   H1921     1.0  0.52611  0.95459  0.88084  1.0000
  Fe  Fe237     1.0  0.65194  0.97082  0.91617  1.0000
  H   H1922     1.0  0.33830  0.89535  0.95433  1.0000
  C   C1218     1.0  0.52932  0.95556  0.91522  1.0000
  H   H1923     1.0  0.62101  0.97242  0.81210  1.0000
  C   C1219     1.0  0.35308  0.89365  0.95402  1.0000
  H   H1924     1.0  0.47102  0.93263  0.84926  1.0000
  H   H1925     1.0  0.51052  0.86839  0.77529  1.0000
  H   H1926     1.0  0.36042  0.96260  0.82449  1.0000
  C   C1220     1.0  0.57271  0.94383  0.87384  1.0000
  C   C1221     1.0  0.43814  0.77025  0.76358  1.0000
  S   S484      1.0  0.38816  0.98232  0.86048  1.0000
  Fe  Fe238     1.0  0.55323  0.96154  0.79827  1.0000
  H   H1927     1.0  0.35489  0.92134  0.93665  1.0000
  H   H1928     1.0  0.62982  0.91145  0.95803  1.0000
  C   C1222     1.0  0.34204  0.74770  0.62036  1.0000
  C   C1223     1.0  0.46073  0.96830  0.85432  1.0000
  C   C1224     1.0  0.42772  0.80424  0.88440  1.0000
  H   H1929     1.0  0.63432  0.87656  0.96436  1.0000
  H   H1930     1.0  0.44816  0.79739  0.77293  1.0000
  C   C1225     1.0  0.44033  0.97189  0.83308  1.0000
  H   H1931     1.0  0.62528  0.97365  0.84379  1.0000
  H   H1932     1.0  0.49680  0.73648  0.93288  1.0000
  H   H1933     1.0  0.42722  0.75335  0.93403  1.0000
  S   S485      1.0  0.55117  0.97236  0.82399  1.0000
  S   S486      1.0  0.37617  0.97821  0.90639  1.0000
  H   H1934     1.0  0.33713  0.95758  0.86439  1.0000
  H   H1935     1.0  0.42913  0.83997  0.88259  1.0000
  C   C1226     1.0  0.38685  0.78425  0.94731  1.0000
  N   N119      1.0  0.34482  0.94191  0.84224  1.0000
  C   C1227     1.0  0.44336  0.75260  0.79435  1.0000
  C   C1228     1.0  0.40557  0.77431  0.97139  1.0000
  H   H1936     1.0  0.42773  0.76217  0.76349  1.0000
  H   H1937     1.0  0.33396  0.95445  0.81698  1.0000
  H   H1938     1.0  0.32723  0.96928  0.84401  1.0000
  S   S487      1.0  0.35068  0.74742  0.74448  1.0000
  S   S488      1.0  0.58591  0.98274  0.90398  1.0000
  H   H1939     1.0  0.52857  0.76772  0.94942  1.0000
  Fe  Fe239     1.0  0.37051  0.73653  0.71981  1.0000
  H   H1940     1.0  0.44906  0.96651  0.86686  1.0000
  C   C1229     1.0  0.33692  0.94051  0.82671  1.0000
  H   H1941     1.0  0.43457  0.78446  0.75454  1.0000
  H   H1942     1.0  0.33546  0.91765  0.86115  1.0000
  H   H1943     1.0  0.34355  0.75170  0.60519  1.0000
  H   H1944     1.0  0.47255  0.95893  0.81030  1.0000
  H   H1945     1.0  0.52629  0.95129  0.93089  1.0000
  S   S489      1.0  0.60282  0.97851  0.94878  1.0000
  C   C1230     1.0  0.50598  0.83437  0.77585  1.0000
  C   C1231     1.0  0.34534  0.75971  0.63006  1.0000
  S   S490      1.0  0.64784  0.97472  0.94563  1.0000
  H   H1946     1.0  0.48530  0.85510  0.80054  1.0000
  Fe  Fe240     1.0  0.61010  0.97439  0.91900  1.0000
  C   C1232     1.0  0.45136  0.78319  0.78210  1.0000
  H   H1947     1.0  0.51060  0.93317  0.90792  1.0000
  N   N120      1.0  0.41187  0.82071  0.88403  1.0000
  H   H1948     1.0  0.59228  0.92177  0.88781  1.0000
  H   H1949     1.0  0.53334  0.85372  0.77020  1.0000
  H   H1950     1.0  0.50078  0.84860  0.81667  1.0000
  H   H1951     1.0  0.48752  0.95613  0.82615  1.0000
  H   H1952     1.0  0.44365  0.97971  0.93486  1.0000
  H   H1953     1.0  0.32349  0.93547  0.83219  1.0000
  C   C1233     1.0  0.56021  0.77449  0.92434  1.0000
  Fe  Fe241     1.0  0.40197  0.98129  0.88375  1.0000
  H   H1954     1.0  0.60231  0.96853  0.85298  1.0000
  C   C1234     1.0  0.63287  0.88352  0.97574  1.0000
  Fe  Fe242     1.0  0.36317  0.97685  0.88304  1.0000
  H   H1955     1.0  0.43361  0.74346  0.79514  1.0000
  C   C1235     1.0  0.33828  0.73775  0.65953  1.0000
  S   S491      1.0  0.34998  0.85973  0.97834  1.0000
  H   H1956     1.0  0.48853  0.94983  0.90825  1.0000
  H   H1957     1.0  0.54642  0.74297  0.93183  1.0000
  H   H1958     1.0  0.52407  0.97858  0.88214  1.0000
  H   H1959     1.0  0.42664  0.97771  0.91141  1.0000
  H   H1960     1.0  0.37873  0.79365  0.97362  1.0000
  C   C1236     1.0  0.47586  0.74239  0.82973  1.0000
  H   H1961     1.0  0.60954  0.98316  0.75461  1.0000
  H   H1962     1.0  0.48673  0.98318  0.90939  1.0000
  C   C1237     1.0  0.74046  0.03346  0.22887  1.0000
  H   H1963     1.0  0.71562  0.18581  0.15022  1.0000
  S   S492      1.0  0.91401  0.21546  0.06643  1.0000
  H   H1964     1.0  0.72050  0.20101  0.21788  1.0000
  Fe  Fe243     1.0  0.94942  0.05384  0.46037  1.0000
  C   C1238     1.0  0.95527  0.10485  0.43802  1.0000
  H   H1965     1.0  0.88692  0.03375  0.44066  1.0000
  Fe  Fe244     1.0  0.93261  0.06945  0.42494  1.0000
  S   S493      1.0  0.92089  0.04406  0.42850  1.0000
  S   S494      1.0  0.92825  0.09384  0.40048  1.0000
  Fe  Fe245     1.0  0.91233  0.04521  0.45900  1.0000
  H   H1966     1.0  0.85955  0.99673  0.25293  1.0000
  Fe  Fe246     1.0  0.94852  0.02782  0.43532  1.0000
  H   H1967     1.0  0.96911  0.12230  0.45698  1.0000
  S   S495      1.0  0.92162  0.07212  0.45506  1.0000
  S   S496      1.0  0.96134  0.05326  0.42955  1.0000
  Fe  Fe247     1.0  0.81742  0.14076  0.32229  1.0000
  S   S497      1.0  0.83854  0.14953  0.29608  1.0000
  S   S498      1.0  0.78614  0.15081  0.32313  1.0000
  Fe  Fe248     1.0  0.84811  0.11908  0.34487  1.0000
  S   S499      1.0  0.87129  0.12580  0.32040  1.0000
  S   S500      1.0  0.85349  0.10081  0.37289  1.0000
  Fe  Fe249     1.0  0.85344  0.15504  0.31575  1.0000
  S   S501      1.0  0.86665  0.17891  0.31529  1.0000
  Fe  Fe250     1.0  0.85416  0.11953  0.30340  1.0000
  S   S502      1.0  0.86643  0.09867  0.28463  1.0000
  S   S503      1.0  0.83109  0.14862  0.34158  1.0000
  S   S504      1.0  0.83217  0.11048  0.32829  1.0000
  S   S505      1.0  0.79236  0.05884  0.22159  1.0000
  S   S506      1.0  0.83163  0.03297  0.18726  1.0000
  Fe  Fe251     1.0  0.80517  0.06139  0.24430  1.0000
  S   S507      1.0  0.80243  0.09010  0.24962  1.0000
  Fe  Fe252     1.0  0.82669  0.17988  0.13054  1.0000
  S   S508      1.0  0.84960  0.15674  0.14078  1.0000
  S   S509      1.0  0.83105  0.20595  0.10810  1.0000
  Fe  Fe253     1.0  0.79556  0.16291  0.16010  1.0000
  S   S510      1.0  0.81596  0.13883  0.17303  1.0000
  S   S511      1.0  0.76474  0.16575  0.17348  1.0000
  Fe  Fe254     1.0  0.83303  0.16024  0.16957  1.0000
  S   S512      1.0  0.84650  0.16217  0.19208  1.0000
  Fe  Fe255     1.0  0.83039  0.13756  0.14310  1.0000
  S   S513      1.0  0.84131  0.11081  0.13224  1.0000
  S   S514      1.0  0.81131  0.18466  0.15940  1.0000
  S   S515      1.0  0.80872  0.16043  0.13014  1.0000
  H   H1968     1.0  0.97208  0.09764  0.46713  1.0000
  C   C1239     1.0  0.74651  0.13215  0.30977  1.0000
  H   H1969     1.0  0.67472  0.05264  0.15242  1.0000
  S   S516      1.0  0.67318  0.15394  0.15248  1.0000
  C   C1240     1.0  0.74323  0.12912  0.36172  1.0000
  H   H1970     1.0  0.86613  0.04125  0.34782  1.0000
  H   H1971     1.0  0.80044  0.05084  0.16093  1.0000
  C   C1241     1.0  0.68460  0.22777  0.14447  1.0000
  H   H1972     1.0  0.70539  0.13673  0.36895  1.0000
  C   C1242     1.0  0.66102  0.19430  0.21717  1.0000
  H   H1973     1.0  0.75475  0.02263  0.18525  1.0000
  C   C1243     1.0  0.85647  0.18218  0.18390  1.0000
  C   C1244     1.0  0.85616  0.19262  0.16555  1.0000
  C   C1245     1.0  0.86325  0.20912  0.15918  1.0000
  C   C1246     1.0  0.87047  0.21539  0.17123  1.0000
  C   C1247     1.0  0.87096  0.20491  0.18956  1.0000
  C   C1248     1.0  0.86400  0.18826  0.19589  1.0000
  H   H1974     1.0  0.85040  0.18811  0.15617  1.0000
  C   C1249     1.0  0.75178  0.04321  0.31330  1.0000
  H   H1975     1.0  0.87682  0.20956  0.19883  1.0000
  H   H1976     1.0  0.86430  0.18021  0.21010  1.0000
  C   C1250     1.0  0.75305  0.15282  0.16555  1.0000
  C   C1251     1.0  0.73362  0.15415  0.17201  1.0000
  C   C1252     1.0  0.72411  0.14404  0.16561  1.0000
  C   C1253     1.0  0.73408  0.13231  0.15297  1.0000
  C   C1254     1.0  0.75351  0.13097  0.14660  1.0000
  C   C1255     1.0  0.76296  0.14120  0.15284  1.0000
  H   H1977     1.0  0.72591  0.16321  0.18178  1.0000
  H   H1978     1.0  0.67157  0.20268  0.21620  1.0000
  S   S517      1.0  0.79031  0.04099  0.26645  1.0000
  H   H1979     1.0  0.77794  0.14001  0.14783  1.0000
  C   C1256     1.0  0.83511  0.05460  0.17252  1.0000
  C   C1257     1.0  0.84163  0.05561  0.15314  1.0000
  C   C1258     1.0  0.84368  0.07292  0.14097  1.0000
  C   C1259     1.0  0.83913  0.08933  0.14810  1.0000
  C   C1260     1.0  0.83273  0.08832  0.16754  1.0000
  C   C1261     1.0  0.83081  0.07094  0.17978  1.0000
  H   H1980     1.0  0.84504  0.04299  0.14749  1.0000
  H   H1981     1.0  0.84870  0.07361  0.12596  1.0000
  H   H1982     1.0  0.82920  0.10086  0.17312  1.0000
  H   H1983     1.0  0.82592  0.07020  0.19478  1.0000
  Fe  Fe256     1.0  0.77969  0.03638  0.24311  1.0000
  C   C1262     1.0  0.81924  0.09122  0.26145  1.0000
  C   C1263     1.0  0.83516  0.07676  0.26295  1.0000
  C   C1264     1.0  0.84973  0.07904  0.27003  1.0000
  C   C1265     1.0  0.84809  0.09552  0.27623  1.0000
  C   C1266     1.0  0.83183  0.10961  0.27544  1.0000
  C   C1267     1.0  0.81755  0.10758  0.26784  1.0000
  H   H1984     1.0  0.83649  0.06399  0.25832  1.0000
  H   H1985     1.0  0.86220  0.06799  0.27084  1.0000
  H   H1986     1.0  0.83038  0.12232  0.28029  1.0000
  H   H1987     1.0  0.80530  0.11880  0.26685  1.0000
  C   C1268     1.0  0.87226  0.19699  0.29572  1.0000
  C   C1269     1.0  0.88357  0.20828  0.29742  1.0000
  C   C1270     1.0  0.74899  0.23440  0.12602  1.0000
  H   H1988     1.0  0.67675  0.06549  0.21923  1.0000
  C   C1271     1.0  0.87025  0.21586  0.26420  1.0000
  C   C1272     1.0  0.86561  0.20071  0.27904  1.0000
  H   H1989     1.0  0.88875  0.20551  0.31022  1.0000
  H   H1990     1.0  0.86389  0.07562  0.34384  1.0000
  C   C1273     1.0  0.67110  0.16608  0.36198  1.0000
  H   H1991     1.0  0.85681  0.19207  0.27766  1.0000
  C   C1274     1.0  0.77509  0.13686  0.31572  1.0000
  C   C1275     1.0  0.75655  0.14384  0.31314  1.0000
  S   S518      1.0  0.66511  0.19990  0.11647  1.0000
  C   C1276     1.0  0.72594  0.02794  0.20017  1.0000
  C   C1277     1.0  0.77399  0.10684  0.31011  1.0000
  C   C1278     1.0  0.78391  0.11845  0.31377  1.0000
  H   H1992     1.0  0.74988  0.15828  0.31396  1.0000
  H   H1993     1.0  0.84832  0.15091  0.39498  1.0000
  H   H1994     1.0  0.78089  0.09254  0.30878  1.0000
  H   H1995     1.0  0.79827  0.11299  0.31540  1.0000
  C   C1279     1.0  0.90784  0.09510  0.39245  1.0000
  C   C1280     1.0  0.90616  0.10445  0.37397  1.0000
  C   C1281     1.0  0.88973  0.10594  0.36762  1.0000
  C   C1282     1.0  0.87478  0.09833  0.37983  1.0000
  C   C1283     1.0  0.87659  0.08879  0.39820  1.0000
  C   C1284     1.0  0.89303  0.08717  0.40449  1.0000
  H   H1996     1.0  0.91765  0.11043  0.36453  1.0000
  H   H1997     1.0  0.88861  0.11309  0.35336  1.0000
  H   H1998     1.0  0.86511  0.08282  0.40773  1.0000
  H   H1999     1.0  0.89404  0.08012  0.41884  1.0000
  C   C1285     1.0  0.93434  0.99774  0.37753  1.0000
  C   C1286     1.0  0.94280  0.01601  0.39526  1.0000
  C   C1287     1.0  0.93430  0.01514  0.38107  1.0000
  C   C1288     1.0  0.75262  0.02904  0.21229  1.0000
  C   C1289     1.0  0.71201  0.14075  0.37856  1.0000
  H   H2000     1.0  0.94321  0.02954  0.39735  1.0000
  H   H2001     1.0  0.92789  0.02806  0.37270  1.0000
  S   S519      1.0  0.83170  0.04006  0.23761  1.0000
  H   H2002     1.0  0.88876  0.02545  0.34633  1.0000
  S   S520      1.0  0.80384  0.01256  0.23690  1.0000
  Fe  Fe257     1.0  0.81587  0.01912  0.25835  1.0000
  N   N121      1.0  0.92033  0.22805  0.11735  1.0000
  H   H2003     1.0  0.74787  0.05730  0.27731  1.0000
  C   C1290     1.0  0.72110  0.03520  0.23098  1.0000
  C   C1291     1.0  0.86918  0.01413  0.44519  1.0000
  H   H2004     1.0  0.69817  0.17915  0.13013  1.0000
  H   H2005     1.0  0.69890  0.03348  0.21868  1.0000
  H   H2006     1.0  0.87208  0.05434  0.37272  1.0000
  Fe  Fe258     1.0  0.65852  0.99594  0.20189  1.0000
  C   C1292     1.0  0.89109  0.21305  0.07893  1.0000
  C   C1293     1.0  0.88754  0.19505  0.08766  1.0000
  C   C1294     1.0  0.86927  0.19273  0.09717  1.0000
  C   C1295     1.0  0.85441  0.20841  0.09782  1.0000
  H   H2007     1.0  0.67628  0.11013  0.23177  1.0000
  H   H2008     1.0  0.66998  0.08652  0.18835  1.0000
  H   H2009     1.0  0.89890  0.18281  0.08693  1.0000
  H   H2010     1.0  0.86663  0.17875  0.10353  1.0000
  H   H2011     1.0  0.66052  0.20305  0.17053  1.0000
  H   H2012     1.0  0.69091  0.09522  0.18544  1.0000
  H   H2013     1.0  0.75923  0.02284  0.28657  1.0000
  Fe  Fe259     1.0  0.81745  0.03553  0.21689  1.0000
  N   N122      1.0  0.75349  0.13422  0.24693  1.0000
  C   C1296     1.0  0.75225  0.14579  0.22786  1.0000
  C   C1297     1.0  0.73647  0.14066  0.26062  1.0000
  C   C1298     1.0  0.77022  0.13616  0.25242  1.0000
  C   C1299     1.0  0.75495  0.11422  0.24696  1.0000
  H   H2014     1.0  0.76491  0.14144  0.21710  1.0000
  H   H2015     1.0  0.75092  0.16100  0.22739  1.0000
  H   H2016     1.0  0.73977  0.14456  0.22330  1.0000
  H   H2017     1.0  0.73700  0.13230  0.27512  1.0000
  H   H2018     1.0  0.73470  0.15578  0.26089  1.0000
  H   H2019     1.0  0.72364  0.13906  0.25710  1.0000
  H   H2020     1.0  0.78337  0.13137  0.24242  1.0000
  H   H2021     1.0  0.77156  0.12739  0.26670  1.0000
  H   H2022     1.0  0.76954  0.15101  0.25285  1.0000
  H   H2023     1.0  0.76752  0.10894  0.23661  1.0000
  H   H2024     1.0  0.74235  0.11209  0.24336  1.0000
  H   H2025     1.0  0.75636  0.10508  0.26108  1.0000
  S   S521      1.0  0.69454  0.13731  0.30013  1.0000
  H   H2026     1.0  0.76126  0.12222  0.13657  1.0000
  S   S522      1.0  0.67417  0.00469  0.21901  1.0000
  H   H2027     1.0  0.93920  0.21588  0.13646  1.0000
  N   N123      1.0  0.85876  0.10406  0.20657  1.0000
  C   C1300     1.0  0.86623  0.11042  0.18622  1.0000
  C   C1301     1.0  0.86243  0.08325  0.21142  1.0000
  C   C1302     1.0  0.83830  0.11160  0.21095  1.0000
  C   C1303     1.0  0.86797  0.11101  0.21777  1.0000
  H   H2028     1.0  0.85943  0.10560  0.17735  1.0000
  H   H2029     1.0  0.88163  0.10493  0.18240  1.0000
  H   H2030     1.0  0.86378  0.12607  0.18209  1.0000
  H   H2031     1.0  0.87775  0.07704  0.20853  1.0000
  H   H2032     1.0  0.85675  0.07801  0.22662  1.0000
  H   H2033     1.0  0.85573  0.07754  0.20316  1.0000
  H   H2034     1.0  0.83493  0.12721  0.20672  1.0000
  H   H2035     1.0  0.83248  0.10804  0.22630  1.0000
  H   H2036     1.0  0.83062  0.10580  0.20378  1.0000
  H   H2037     1.0  0.86264  0.10645  0.23322  1.0000
  H   H2038     1.0  0.86528  0.12671  0.21457  1.0000
  H   H2039     1.0  0.88345  0.10573  0.21485  1.0000
  N   N124      1.0  0.73041  0.14558  0.36870  1.0000
  C   C1304     1.0  0.73863  0.15092  0.38189  1.0000
  H   H2040     1.0  0.71355  0.05200  0.32260  1.0000
  H   H2041     1.0  0.71341  0.12870  0.39077  1.0000
  H   H2042     1.0  0.72933  0.16333  0.38740  1.0000
  H   H2043     1.0  0.75253  0.15467  0.37480  1.0000
  H   H2044     1.0  0.74085  0.13917  0.39421  1.0000
  S   S523      1.0  0.71617  0.22058  0.24747  1.0000
  H   H2045     1.0  0.74969  0.08870  0.17980  1.0000
  H   H2046     1.0  0.76121  0.08944  0.14579  1.0000
  N   N125      1.0  0.69455  0.06055  0.12716  1.0000
  N   N126      1.0  0.86841  0.16194  0.37117  1.0000
  C   C1305     1.0  0.85394  0.17745  0.36357  1.0000
  C   C1306     1.0  0.87746  0.16884  0.38253  1.0000
  C   C1307     1.0  0.88275  0.15520  0.35540  1.0000
  C   C1308     1.0  0.85954  0.14628  0.38317  1.0000
  H   H2047     1.0  0.84681  0.17269  0.35498  1.0000
  H   H2048     1.0  0.86021  0.18933  0.35404  1.0000
  H   H2049     1.0  0.84293  0.18307  0.37500  1.0000
  H   H2050     1.0  0.88845  0.15743  0.38849  1.0000
  H   H2051     1.0  0.88436  0.18061  0.37382  1.0000
  H   H2052     1.0  0.86704  0.17407  0.39455  1.0000
  H   H2053     1.0  0.89436  0.14412  0.36051  1.0000
  H   H2054     1.0  0.88905  0.16686  0.34544  1.0000
  H   H2055     1.0  0.87654  0.14916  0.34699  1.0000
  H   H2056     1.0  0.87000  0.13448  0.38944  1.0000
  H   H2057     1.0  0.85298  0.14040  0.37491  1.0000
  H   H2058     1.0  0.83390  0.22229  0.20353  1.0000
  Fe  Fe260     1.0  0.66984  0.13179  0.11180  1.0000
  C   C1309     1.0  0.70865  0.20050  0.24743  1.0000
  H   H2059     1.0  0.91489  0.21587  0.14702  1.0000
  S   S524      1.0  0.70669  0.10322  0.27676  1.0000
  H   H2060     1.0  0.76179  0.07129  0.19660  1.0000
  N   N127      1.0  0.80538  0.21939  0.20831  1.0000
  H   H2061     1.0  0.82310  0.19224  0.21574  1.0000
  S   S525      1.0  0.69228  0.14805  0.10848  1.0000
  S   S526      1.0  0.68734  0.14935  0.24698  1.0000
  C   C1310     1.0  0.74534  0.02633  0.19794  1.0000
  C   C1311     1.0  0.67447  0.22385  0.13311  1.0000
  H   H2062     1.0  0.81492  0.19592  0.19447  1.0000
  H   H2063     1.0  0.75733  0.13223  0.35444  1.0000
  C   C1312     1.0  0.75517  0.11351  0.30851  1.0000
  S   S527      1.0  0.93908  0.02699  0.46648  1.0000
  H   H2064     1.0  0.76761  0.02744  0.21067  1.0000
  S   S528      1.0  0.74885  0.03687  0.24731  1.0000
  H   H2065     1.0  0.70197  0.15286  0.38407  1.0000
  H   H2066     1.0  0.79123  0.04975  0.18558  1.0000
  S   S529      1.0  0.65975  0.18574  0.39046  1.0000
  H   H2067     1.0  0.66325  0.18159  0.22858  1.0000
  C   C1313     1.0  0.87348  0.02699  0.46993  1.0000
  H   H2068     1.0  0.86263  0.21723  0.14506  1.0000
  H   H2069     1.0  0.71815  0.17424  0.35734  1.0000
  C   C1314     1.0  0.88715  0.05178  0.36544  1.0000
  H   H2070     1.0  0.76766  0.22874  0.15367  1.0000
  C   C1315     1.0  0.67868  0.11086  0.21631  1.0000
  H   H2071     1.0  0.73207  0.13751  0.30835  1.0000
  S   S530      1.0  0.72291  0.11807  0.14614  1.0000
  H   H2072     1.0  0.72933  0.06940  0.29305  1.0000
  C   C1316     1.0  0.72029  0.03851  0.31784  1.0000
  N   N128      1.0  0.73817  0.03995  0.30406  1.0000
  S   S531      1.0  0.71694  0.02482  0.18201  1.0000
  C   C1317     1.0  0.70574  0.17834  0.23049  1.0000
  H   H2073     1.0  0.70914  0.14508  0.17065  1.0000
  H   H2074     1.0  0.84853  0.21745  0.01791  1.0000
  S   S532      1.0  0.74287  0.09809  0.30519  1.0000
  H   H2075     1.0  0.98152  0.07440  0.44576  1.0000
  C   C1318     1.0  0.88838  0.22309  0.28263  1.0000
  H   H2076     1.0  0.94622  0.11888  0.43956  1.0000
  H   H2077     1.0  0.87263  0.01292  0.43056  1.0000
  H   H2078     1.0  0.78865  0.21606  0.23657  1.0000
  H   H2079     1.0  0.76255  0.06471  0.14901  1.0000
  S   S533      1.0  0.84818  0.98744  0.45176  1.0000
  H   H2080     1.0  0.94882  0.22699  0.10170  1.0000
  H   H2081     1.0  0.70027  0.03048  0.13712  1.0000
  C   C1319     1.0  0.85599  0.98908  0.30031  1.0000
  H   H2082     1.0  0.79106  0.08371  0.18041  1.0000
  H   H2083     1.0  0.88473  0.08444  0.34002  1.0000
  H   H2084     1.0  0.78152  0.21878  0.10529  1.0000
  C   C1320     1.0  0.90245  0.22545  0.11481  1.0000
  C   C1321     1.0  0.67903  0.20609  0.12836  1.0000
  C   C1322     1.0  0.74572  0.02231  0.29696  1.0000
  C   C1323     1.0  0.68254  0.06409  0.14539  1.0000
  S   S534      1.0  0.82615  0.99806  0.28307  1.0000
  C   C1324     1.0  0.68219  0.17867  0.19303  1.0000
  C   C1325     1.0  0.71385  0.03232  0.21676  1.0000
  C   C1326     1.0  0.71234  0.19404  0.23067  1.0000
  N   N129      1.0  0.77566  0.07205  0.16752  1.0000
  C   C1327     1.0  0.87242  0.20733  0.04176  1.0000
  C   C1328     1.0  0.97727  0.10816  0.45465  1.0000
  C   C1329     1.0  0.78668  0.08592  0.16681  1.0000
  H   H2085     1.0  0.74630  0.05636  0.31896  1.0000
  C   C1330     1.0  0.69924  0.21386  0.15095  1.0000
  S   S535      1.0  0.67354  0.01029  0.17405  1.0000
  C   C1331     1.0  0.85801  0.22641  0.08924  1.0000
  H   H2086     1.0  0.87134  0.19531  0.03635  1.0000
  S   S536      1.0  0.69014  0.09406  0.32232  1.0000
  H   H2087     1.0  0.72434  0.05413  0.28095  1.0000
  H   H2088     1.0  0.77943  0.04190  0.17218  1.0000
  H   H2089     1.0  0.78307  0.07445  0.13743  1.0000
  C   C1332     1.0  0.87915  0.07336  0.33723  1.0000
  C   C1333     1.0  0.69802  0.19152  0.26387  1.0000
  H   H2090     1.0  0.73589  0.01983  0.28949  1.0000
  C   C1334     1.0  0.86386  0.99323  0.26631  1.0000
  H   H2091     1.0  0.74825  0.00990  0.30857  1.0000
  C   C1335     1.0  0.73477  0.05590  0.28814  1.0000
  H   H2092     1.0  0.68980  0.03256  0.27293  1.0000
  H   H2093     1.0  0.66868  0.11124  0.18461  1.0000
  C   C1336     1.0  0.93506  0.22523  0.10034  1.0000
  H   H2094     1.0  0.88038  0.07583  0.32168  1.0000
  H   H2095     1.0  0.74953  0.06425  0.18298  1.0000
  H   H2096     1.0  0.71391  0.07690  0.12771  1.0000
  H   H2097     1.0  0.68577  0.16558  0.20365  1.0000
  C   C1337     1.0  0.81082  0.19892  0.20891  1.0000
  H   H2098     1.0  0.71720  0.03905  0.11700  1.0000
  H   H2099     1.0  0.72179  0.15803  0.34225  1.0000
  H   H2100     1.0  0.74147  0.16565  0.34496  1.0000
  N   N130      1.0  0.66284  0.18911  0.19899  1.0000
  H   H2101     1.0  0.84554  0.98966  0.31326  1.0000
  C   C1338     1.0  0.85216  0.00575  0.47717  1.0000
  C   C1339     1.0  0.72782  0.16158  0.35261  1.0000
  H   H2102     1.0  0.73769  0.12489  0.35142  1.0000
  C   C1340     1.0  0.80053  0.22268  0.22775  1.0000
  H   H2103     1.0  0.88673  0.20428  0.04485  1.0000
  H   H2104     1.0  0.67221  0.07370  0.11215  1.0000
  H   H2105     1.0  0.74538  0.11669  0.37343  1.0000
  C   C1341     1.0  0.66674  0.03846  0.25883  1.0000
  H   H2106     1.0  0.70924  0.17299  0.21770  1.0000
  Fe  Fe261     1.0  0.71261  0.10827  0.30247  1.0000
  H   H2107     1.0  0.68414  0.17469  0.17926  1.0000
  C   C1342     1.0  0.69495  0.16946  0.24691  1.0000
  C   C1343     1.0  0.88311  0.22470  0.01037  1.0000
  C   C1344     1.0  0.87751  0.02574  0.45096  1.0000
  H   H2108     1.0  0.79969  0.08488  0.15556  1.0000
  H   H2109     1.0  0.69557  0.08964  0.11531  1.0000
  H   H2110     1.0  0.67199  0.02614  0.25262  1.0000
  C   C1345     1.0  0.88170  0.22705  0.26601  1.0000
  H   H2111     1.0  0.69037  0.22646  0.43800  1.0000
  H   H2112     1.0  0.91144  0.05387  0.32012  1.0000
  C   C1346     1.0  0.98173  0.11907  0.42082  1.0000
  H   H2113     1.0  0.69479  0.19678  0.27670  1.0000
  C   C1347     1.0  0.90938  0.05196  0.33569  1.0000
  H   H2114     1.0  0.71003  0.03518  0.31153  1.0000
  C   C1348     1.0  0.78714  0.05281  0.17171  1.0000
  H   H2115     1.0  0.94987  0.09434  0.45040  1.0000
  H   H2116     1.0  0.71687  0.04208  0.14011  1.0000
  H   H2117     1.0  0.89393  0.03726  0.37176  1.0000
  H   H2118     1.0  0.82527  0.22633  0.18245  1.0000
  H   H2119     1.0  0.75485  0.20118  0.11685  1.0000
  Fe  Fe262     1.0  0.68298  0.09085  0.29625  1.0000
  C   C1349     1.0  0.70783  0.04224  0.13043  1.0000
  H   H2120     1.0  0.79200  0.20525  0.12476  1.0000
  H   H2121     1.0  0.91590  0.06237  0.33847  1.0000
  H   H2122     1.0  0.67181  0.07738  0.14347  1.0000
  H   H2123     1.0  0.69101  0.05778  0.10054  1.0000
  C   C1350     1.0  0.66902  0.15444  0.35103  1.0000
  H   H2124     1.0  0.81271  0.21691  0.23483  1.0000
  C   C1351     1.0  0.68255  0.06012  0.11460  1.0000
  N   N131      1.0  0.67193  0.09576  0.21243  1.0000
  C   C1352     1.0  0.88128  0.04003  0.34097  1.0000
  H   H2125     1.0  0.68177  0.17005  0.27594  1.0000
  C   C1353     1.0  0.85027  0.99370  0.28304  1.0000
  H   H2126     1.0  0.67971  0.07583  0.23692  1.0000
  N   N132      1.0  0.88923  0.05429  0.34484  1.0000
  C   C1354     1.0  0.69086  0.17625  0.26349  1.0000
  H   H2127     1.0  0.89370  0.06182  0.36884  1.0000
  H   H2128     1.0  0.79205  0.22493  0.18479  1.0000
  H   H2129     1.0  0.91736  0.03762  0.34099  1.0000
  C   C1355     1.0  0.75842  0.07417  0.18240  1.0000
  H   H2130     1.0  0.71457  0.07338  0.10467  1.0000
  H   H2131     1.0  0.88247  0.04164  0.32555  1.0000
  Fe  Fe263     1.0  0.67126  0.12282  0.31786  1.0000
  C   C1356     1.0  0.82125  0.22837  0.19726  1.0000
  C   C1357     1.0  0.67686  0.04216  0.27026  1.0000
  Fe  Fe264     1.0  0.68653  0.13087  0.27595  1.0000
  N   N133      1.0  0.97523  0.10448  0.43694  1.0000
  H   H2132     1.0  0.90128  0.99415  0.47898  1.0000
  H   H2133     1.0  0.77324  0.20339  0.15754  1.0000
  H   H2134     1.0  0.71169  0.03867  0.24372  1.0000
  H   H2135     1.0  0.98019  0.11675  0.40728  1.0000
  H   H2136     1.0  0.77848  0.10060  0.16387  1.0000
  S   S537      1.0  0.68315  0.06174  0.29313  1.0000
  C   C1358     1.0  0.84992  0.22877  0.02417  1.0000
  N   N134      1.0  0.76262  0.21728  0.13243  1.0000
  S   S538      1.0  0.66428  0.04734  0.19290  1.0000
  Fe  Fe265     1.0  0.68683  0.02140  0.19126  1.0000
  C   C1359     1.0  0.69419  0.19266  0.13420  1.0000
  C   C1360     1.0  0.85688  0.00369  0.45844  1.0000
  H   H2137     1.0  0.76526  0.04488  0.30318  1.0000
  H   H2138     1.0  0.83884  0.22942  0.03727  1.0000
  H   H2139     1.0  0.86218  0.20761  0.05548  1.0000
  C   C1361     1.0  0.68189  0.07720  0.22140  1.0000
  H   H2140     1.0  0.86509  0.21875  0.25138  1.0000
  C   C1362     1.0  0.92586  0.21420  0.13399  1.0000
  C   C1363     1.0  0.77043  0.07530  0.14910  1.0000
  Fe  Fe266     1.0  0.69505  0.13285  0.13798  1.0000
  N   N135      1.0  0.86887  0.22538  0.02811  1.0000
  C   C1364     1.0  0.67560  0.09720  0.19181  1.0000
  H   H2141     1.0  0.75503  0.03133  0.32518  1.0000
  C   C1365     1.0  0.70517  0.07572  0.11836  1.0000
  H   H2142     1.0  0.76722  0.18732  0.13502  1.0000
  C   C1366     1.0  0.70423  0.19654  0.14543  1.0000
  C   C1367     1.0  0.78144  0.21802  0.12031  1.0000
  H   H2143     1.0  0.69269  0.18737  0.19119  1.0000
  H   H2144     1.0  0.74322  0.19868  0.14126  1.0000
  H   H2145     1.0  0.88287  0.21300  0.00399  1.0000
  H   H2146     1.0  0.92786  0.19950  0.13225  1.0000
  S   S539      1.0  0.96055  0.00055  0.42513  1.0000
  S   S540      1.0  0.67476  0.11511  0.14022  1.0000
  H   H2147     1.0  0.69730  0.07491  0.21562  1.0000
  H   H2148     1.0  0.90368  0.21098  0.11283  1.0000
  S   S541      1.0  0.66201  0.11829  0.29333  1.0000
  H   H2149     1.0  0.68027  0.15048  0.33955  1.0000
  H   H2150     1.0  0.95322  0.10149  0.42516  1.0000
  C   C1368     1.0  0.98666  0.08576  0.43429  1.0000
  C   C1369     1.0  0.75673  0.20041  0.13126  1.0000
  C   C1370     1.0  0.67031  0.05814  0.27833  1.0000
  H   H2151     1.0  0.91023  0.99527  0.44430  1.0000
  C   C1371     1.0  0.87630  0.22875  0.08004  1.0000
  H   H2152     1.0  0.89754  0.22266  0.01280  1.0000
  H   H2153     1.0  0.93700  0.21097  0.09746  1.0000
  H   H2154     1.0  0.72242  0.02724  0.33051  1.0000
  H   H2155     1.0  0.79913  0.19168  0.21693  1.0000
  H   H2156     1.0  0.98604  0.08279  0.42071  1.0000
  H   H2157     1.0  0.69095  0.06498  0.15519  1.0000
  H   H2158     1.0  0.69401  0.10985  0.21046  1.0000
  H   H2159     1.0  0.97350  0.13341  0.42241  1.0000
  S   S542      1.0  0.92268  0.99755  0.36007  1.0000
  C   C1372     1.0  0.95114  0.99948  0.40632  1.0000
  H   H2160     1.0  0.68391  0.17123  0.35874  1.0000
  H   H2161     1.0  0.67128  0.12505  0.20991  1.0000
  H   H2162     1.0  0.93472  0.99042  0.46200  1.0000
  H   H2163     1.0  0.89092  0.22780  0.12718  1.0000
  H   H2164     1.0  0.67429  0.04886  0.12086  1.0000
  H   H2165     1.0  0.77648  0.22165  0.20759  1.0000
  H   H2166     1.0  0.89727  0.23157  0.28413  1.0000
  S   S543      1.0  0.71119  0.21654  0.16691  1.0000
  H   H2167     1.0  0.66850  0.21592  0.18294  1.0000
  Fe  Fe267     1.0  0.66892  0.16830  0.12312  1.0000
  C   C1373     1.0  0.78897  0.22758  0.19931  1.0000
  C   C1374     1.0  0.88305  0.98745  0.26697  1.0000
  H   H2168     1.0  0.78653  0.23042  0.12094  1.0000
  S   S544      1.0  0.88505  0.03976  0.47805  1.0000
  C   C1375     1.0  0.76333  0.21624  0.15217  1.0000
  H   H2169     1.0  0.74941  0.21545  0.16174  1.0000
  S   S545      1.0  0.66985  0.11252  0.09279  1.0000
  C   C1376     1.0  0.65882  0.20640  0.18457  1.0000
  H   H2170     1.0  0.66389  0.08812  0.07221  1.0000
  H   H2171     1.0  0.73460  0.23412  0.13476  1.0000
  H   H2172     1.0  0.66277  0.23432  0.12849  1.0000
  H   H2173     1.0  0.89348  0.98663  0.25404  1.0000
  H   H2174     1.0  0.66500  0.23544  0.41993  1.0000
  C   C1377     1.0  0.77563  0.14354  0.68256  1.0000
  S   S546      1.0  0.69704  0.03102  0.75297  1.0000
  C   C1378     1.0  0.76897  0.15279  0.86572  1.0000
  C   C1379     1.0  0.80829  0.11132  0.84473  1.0000
  S   S547      1.0  0.82443  0.20316  0.63498  1.0000
  S   S548      1.0  0.70447  0.16062  0.72889  1.0000
  Fe  Fe268     1.0  0.73037  0.07607  0.81541  1.0000
  S   S549      1.0  0.71237  0.08785  0.84018  1.0000
  S   S550      1.0  0.72298  0.08571  0.78695  1.0000
  Fe  Fe269     1.0  0.76386  0.06061  0.83394  1.0000
  S   S551      1.0  0.74882  0.07131  0.86041  1.0000
  S   S552      1.0  0.79441  0.04634  0.82979  1.0000
  Fe  Fe270     1.0  0.72477  0.06030  0.85748  1.0000
  S   S553      1.0  0.70491  0.04809  0.88340  1.0000
  Fe  Fe271     1.0  0.73764  0.09774  0.84099  1.0000
  S   S554      1.0  0.73656  0.12869  0.83738  1.0000
  S   S555      1.0  0.74084  0.04755  0.83234  1.0000
  S   S556      1.0  0.75470  0.08783  0.81502  1.0000
  Fe  Fe272     1.0  0.84897  0.08936  0.68404  1.0000
  S   S557      1.0  0.83539  0.06821  0.70704  1.0000
  S   S558      1.0  0.86868  0.08442  0.65641  1.0000
  Fe  Fe273     1.0  0.82664  0.12244  0.70292  1.0000
  S   S559      1.0  0.81143  0.10415  0.72742  1.0000
  S   S560      1.0  0.81802  0.15396  0.69924  1.0000
  Fe  Fe274     1.0  0.83941  0.08426  0.72664  1.0000
  S   S561      1.0  0.85066  0.06892  0.75268  1.0000
  Fe  Fe275     1.0  0.80869  0.08996  0.70589  1.0000
  S   S562      1.0  0.78021  0.08601  0.70628  1.0000
  S   S563      1.0  0.85521  0.10387  0.70366  1.0000
  S   S564      1.0  0.82169  0.10981  0.68125  1.0000
  Fe  Fe276     1.0  0.77546  0.05986  0.60709  1.0000
  S   S565      1.0  0.75421  0.05389  0.63396  1.0000
  S   S566      1.0  0.78392  0.08768  0.59267  1.0000
  Fe  Fe277     1.0  0.78694  0.01865  0.60277  1.0000
  S   S567      1.0  0.76688  0.00914  0.62938  1.0000
  S   S568      1.0  0.81020  0.99958  0.58644  1.0000
  Fe  Fe278     1.0  0.74658  0.03542  0.61927  1.0000
  S   S569      1.0  0.71724  0.03311  0.62017  1.0000
  Fe  Fe279     1.0  0.77620  0.02828  0.64178  1.0000
  S   S570      1.0  0.78501  0.01810  0.66973  1.0000
  S   S571      1.0  0.76602  0.04349  0.59143  1.0000
  S   S572      1.0  0.79806  0.03565  0.61614  1.0000
  C   C1380     1.0  0.69148  0.13003  0.72805  1.0000
  S   S573      1.0  0.75874  0.20165  0.60167  1.0000
  H   H2175     1.0  0.75176  0.12045  0.70179  1.0000
  H   H2176     1.0  0.93622  0.03448  0.50480  1.0000
  C   C1381     1.0  0.80347  0.06884  0.63886  1.0000
  H   H2177     1.0  0.96774  0.07353  0.51263  1.0000
  H   H2178     1.0  0.71661  0.21932  0.56341  1.0000
  H   H2179     1.0  0.83739  0.15892  0.63998  1.0000
  H   H2180     1.0  0.96170  0.10021  0.56613  1.0000
  H   H2181     1.0  0.77032  0.17448  0.84049  1.0000
  C   C1382     1.0  0.65844  0.12883  0.73432  1.0000
  C   C1383     1.0  0.65938  0.05400  0.96144  1.0000
  Fe  Fe280     1.0  0.77501  0.18048  0.62180  1.0000
  C   C1384     1.0  0.85491  0.18041  0.71985  1.0000
  H   H2182     1.0  0.93228  0.08193  0.62088  1.0000
  H   H2183     1.0  0.82438  0.19398  0.74918  1.0000
  C   C1385     1.0  0.85194  0.99187  0.60089  1.0000
  H   H2184     1.0  0.74942  0.01502  0.70785  1.0000
  N   N136      1.0  0.71523  0.14199  0.78656  1.0000
  H   H2185     1.0  0.76331  0.12543  0.71744  1.0000
  C   C1386     1.0  0.66771  0.15683  0.73649  1.0000
  H   H2186     1.0  0.73245  0.16263  0.77939  1.0000
  H   H2187     1.0  0.77580  0.99298  0.58045  1.0000
  H   H2188     1.0  0.79174  0.07090  0.85651  1.0000
  H   H2189     1.0  0.83521  0.16950  0.65946  1.0000
  H   H2190     1.0  0.70433  0.17723  0.89006  1.0000
  H   H2191     1.0  0.83538  0.06975  0.61282  1.0000
  H   H2192     1.0  0.86293  0.14309  0.67966  1.0000
  S   S574      1.0  0.88986  0.23149  0.69132  1.0000
  H   H2193     1.0  0.81328  0.02465  0.48619  1.0000
  C   C1387     1.0  0.74102  0.21274  0.81566  1.0000
  H   H2194     1.0  0.77558  0.00911  0.53832  1.0000
  C   C1388     1.0  0.75244  0.13160  0.70870  1.0000
  C   C1389     1.0  0.96345  0.08507  0.56861  1.0000
  H   H2195     1.0  0.70647  0.22682  0.84653  1.0000
  C   C1390     1.0  0.95390  0.05765  0.56587  1.0000
  H   H2196     1.0  0.76764  0.15845  0.71314  1.0000
  H   H2197     1.0  0.80207  0.04567  0.50906  1.0000
  C   C1391     1.0  0.77813  0.10605  0.60506  1.0000
  C   C1392     1.0  0.78450  0.12279  0.59624  1.0000
  C   C1393     1.0  0.76474  0.11840  0.63364  1.0000
  C   C1394     1.0  0.76807  0.10396  0.62374  1.0000
  H   H2198     1.0  0.79223  0.12453  0.58176  1.0000
  H   H2199     1.0  0.76291  0.09122  0.63059  1.0000
  C   C1395     1.0  0.87830  0.06111  0.65324  1.0000
  C   C1396     1.0  0.87802  0.04571  0.66847  1.0000
  C   C1397     1.0  0.88689  0.02744  0.66553  1.0000
  C   C1398     1.0  0.89599  0.02441  0.64736  1.0000
  C   C1399     1.0  0.89587  0.03980  0.63210  1.0000
  C   C1400     1.0  0.88706  0.05806  0.63504  1.0000
  H   H2200     1.0  0.87140  0.04788  0.68259  1.0000
  H   H2201     1.0  0.88694  0.01561  0.67743  1.0000
  C   C1401     1.0  0.78112  0.06670  0.69699  1.0000
  C   C1402     1.0  0.79508  0.05039  0.69967  1.0000
  C   C1403     1.0  0.79586  0.03521  0.69174  1.0000
  C   C1404     1.0  0.78308  0.03659  0.68063  1.0000
  C   C1405     1.0  0.76913  0.05288  0.67802  1.0000
  C   C1406     1.0  0.76794  0.06781  0.68646  1.0000
  H   H2202     1.0  0.80533  0.04942  0.70776  1.0000
  H   H2203     1.0  0.80670  0.02261  0.69374  1.0000
  H   H2204     1.0  0.75919  0.05401  0.66956  1.0000
  H   H2205     1.0  0.75714  0.08043  0.68435  1.0000
  H   H2206     1.0  0.69793  0.01680  0.71952  1.0000
  H   H2207     1.0  0.94071  0.08632  0.55556  1.0000
  C   C1407     1.0  0.84445  0.15273  0.71889  1.0000
  C   C1408     1.0  0.83210  0.16401  0.70742  1.0000
  C   C1409     1.0  0.83114  0.18349  0.70216  1.0000
  H   H2208     1.0  0.90216  0.06691  0.51401  1.0000
  H   H2209     1.0  0.83689  0.14474  0.66338  1.0000
  H   H2210     1.0  0.84520  0.13770  0.72310  1.0000
  H   H2211     1.0  0.82170  0.19218  0.69313  1.0000
  H   H2212     1.0  0.80552  0.05337  0.64458  1.0000
  C   C1410     1.0  0.69835  0.02649  0.88593  1.0000
  C   C1411     1.0  0.70903  0.01277  0.87565  1.0000
  H   H2213     1.0  0.97276  0.02070  0.54380  1.0000
  H   H2214     1.0  0.66430  0.00298  0.91310  1.0000
  H   H2215     1.0  0.79262  0.22808  0.66002  1.0000
  H   H2216     1.0  0.91925  0.05039  0.65318  1.0000
  H   H2217     1.0  0.72157  0.01545  0.86532  1.0000
  N   N137      1.0  0.94525  0.05408  0.63374  1.0000
  C   C1412     1.0  0.93249  0.05479  0.65234  1.0000
  H   H2218     1.0  0.80456  0.22309  0.75966  1.0000
  C   C1413     1.0  0.80942  0.05264  0.80789  1.0000
  C   C1414     1.0  0.82861  0.04461  0.80580  1.0000
  C   C1415     1.0  0.84112  0.04982  0.78885  1.0000
  C   C1416     1.0  0.83454  0.06302  0.77380  1.0000
  C   C1417     1.0  0.81536  0.07121  0.77590  1.0000
  C   C1418     1.0  0.80279  0.06590  0.79285  1.0000
  H   H2219     1.0  0.83387  0.03433  0.81732  1.0000
  H   H2220     1.0  0.85595  0.04346  0.78734  1.0000
  H   H2221     1.0  0.81024  0.08165  0.76450  1.0000
  H   H2222     1.0  0.78806  0.07207  0.79417  1.0000
  H   H2223     1.0  0.70610  0.12336  0.72418  1.0000
  S   S575      1.0  0.78717  0.23004  0.59917  1.0000
  C   C1419     1.0  0.75626  0.15358  0.83896  1.0000
  C   C1420     1.0  0.75001  0.13689  0.84817  1.0000
  C   C1421     1.0  0.75370  0.12780  0.86600  1.0000
  C   C1422     1.0  0.77119  0.13511  0.62481  1.0000
  H   H2224     1.0  0.75707  0.11665  0.64813  1.0000
  H   H2225     1.0  0.75367  0.16044  0.82505  1.0000
  H   H2226     1.0  0.74868  0.11503  0.87330  1.0000
  H   H2227     1.0  0.74557  0.02298  0.67438  1.0000
  H   H2228     1.0  0.73508  0.18488  0.87294  1.0000
  C   C1423     1.0  0.68315  0.05356  0.66562  1.0000
  C   C1424     1.0  0.69887  0.04953  0.65109  1.0000
  C   C1425     1.0  0.69812  0.03909  0.63840  1.0000
  C   C1426     1.0  0.68157  0.03315  0.64002  1.0000
  Fe  Fe281     1.0  0.78083  0.23016  0.87742  1.0000
  H   H2229     1.0  0.68346  0.06196  0.67516  1.0000
  H   H2230     1.0  0.71140  0.05472  0.64949  1.0000
  H   H2231     1.0  0.68084  0.02528  0.63014  1.0000
  C   C1427     1.0  0.71083  0.23150  0.79792  1.0000
  C   C1428     1.0  0.70391  0.04596  0.76304  1.0000
  C   C1429     1.0  0.70183  0.06510  0.75466  1.0000
  C   C1430     1.0  0.70744  0.07722  0.76238  1.0000
  C   C1431     1.0  0.71464  0.07036  0.77882  1.0000
  C   C1432     1.0  0.71628  0.05130  0.78758  1.0000
  C   C1433     1.0  0.71122  0.03899  0.77947  1.0000
  H   H2232     1.0  0.69609  0.07058  0.74207  1.0000
  H   H2233     1.0  0.70610  0.09198  0.75563  1.0000
  H   H2234     1.0  0.72159  0.04601  0.80044  1.0000
  H   H2235     1.0  0.71253  0.02422  0.78613  1.0000
  H   H2236     1.0  0.83895  0.00195  0.60584  1.0000
  H   H2237     1.0  0.80143  0.07149  0.62418  1.0000
  C   C1434     1.0  0.70365  0.99534  0.87910  1.0000
  C   C1435     1.0  0.83217  0.22060  0.64107  1.0000
  H   H2238     1.0  0.70118  0.22062  0.59649  1.0000
  H   H2239     1.0  0.83953  0.22447  0.77134  1.0000
  H   H2240     1.0  0.93907  0.04520  0.66398  1.0000
  C   C1436     1.0  0.84297  0.21494  0.65503  1.0000
  C   C1437     1.0  0.82593  0.18786  0.76404  1.0000
  S   S576      1.0  0.95880  0.06214  0.48310  1.0000
  Fe  Fe282     1.0  0.76009  0.22278  0.61703  1.0000
  Fe  Fe283     1.0  0.78245  0.19338  0.86556  1.0000
  H   H2241     1.0  0.90683  0.05412  0.49567  1.0000
  H   H2242     1.0  0.72097  0.15780  0.80372  1.0000
  H   H2243     1.0  0.78049  0.09285  0.86364  1.0000
  H   H2244     1.0  0.76569  0.12896  0.88876  1.0000
  H   H2245     1.0  0.84916  0.07268  0.62773  1.0000
  C   C1438     1.0  0.72251  0.23170  0.56251  1.0000
  C   C1439     1.0  0.66595  0.03728  0.65432  1.0000
  H   H2246     1.0  0.88497  0.05493  0.51245  1.0000
  H   H2247     1.0  0.76776  0.01528  0.51646  1.0000
  H   H2248     1.0  0.94531  0.06712  0.60464  1.0000
  H   H2249     1.0  0.80299  0.10421  0.64051  1.0000
  H   H2250     1.0  0.78405  0.99350  0.52206  1.0000
  H   H2251     1.0  0.83207  0.07785  0.84577  1.0000
  C   C1440     1.0  0.79035  0.03807  0.51577  1.0000
  H   H2252     1.0  0.74075  0.14092  0.79491  1.0000
  S   S577      1.0  0.94426  0.99435  0.56230  1.0000
  H   H2253     1.0  0.68881  0.14976  0.77775  1.0000
  Fe  Fe284     1.0  0.67105  0.04788  0.74270  1.0000
  H   H2254     1.0  0.72333  0.02359  0.66965  1.0000
  H   H2255     1.0  0.68467  0.04064  0.93259  1.0000
  Fe  Fe285     1.0  0.86958  0.22094  0.71728  1.0000
  C   C1441     1.0  0.70732  0.21349  0.88298  1.0000
  C   C1442     1.0  0.78015  0.00863  0.52306  1.0000
  C   C1443     1.0  0.81214  0.00871  0.52309  1.0000
  N   N138      1.0  0.79605  0.01817  0.51389  1.0000
  H   H2256     1.0  0.71178  0.04466  0.71239  1.0000
  H   H2257     1.0  0.84594  0.20033  0.66204  1.0000
  C   C1444     1.0  0.98605  0.02438  0.53469  1.0000
  H   H2258     1.0  0.76015  0.17622  0.69383  1.0000
  H   H2259     1.0  0.69102  0.16368  0.79303  1.0000
  H   H2260     1.0  0.80143  0.10709  0.81282  1.0000
  Fe  Fe286     1.0  0.69392  0.20846  0.76710  1.0000
  S   S578      1.0  0.93869  0.04791  0.55905  1.0000
  H   H2261     1.0  0.71093  0.04960  0.68784  1.0000
  H   H2262     1.0  0.79483  0.12119  0.84889  1.0000
  H   H2263     1.0  0.72821  0.15939  0.69138  1.0000
  C   C1445     1.0  0.79439  0.08400  0.85871  1.0000
  H   H2264     1.0  0.74228  0.14481  0.67515  1.0000
  S   S579      1.0  0.67116  0.07081  0.71652  1.0000
  H   H2265     1.0  0.78613  0.03919  0.53090  1.0000
  H   H2266     1.0  0.66283  0.03832  0.96428  1.0000
  Fe  Fe287     1.0  0.70481  0.22819  0.72647  1.0000
  H   H2267     1.0  0.69928  0.12042  0.80008  1.0000
  N   N139      1.0  0.75687  0.14852  0.69456  1.0000
  Fe  Fe288     1.0  0.80089  0.20642  0.61990  1.0000
  C   C1446     1.0  0.68748  0.99167  0.89265  1.0000
  H   H2268     1.0  0.90636  0.02456  0.55248  1.0000
  H   H2269     1.0  0.79457  0.20866  0.78132  1.0000
  C   C1447     1.0  0.67740  0.12025  0.72952  1.0000
  S   S580      1.0  0.75872  0.21686  0.87388  1.0000
  H   H2270     1.0  0.83120  0.08852  0.82147  1.0000
  H   H2271     1.0  0.95663  0.02439  0.64147  1.0000
  S   S581      1.0  0.67262  0.19606  0.76084  1.0000
  H   H2272     1.0  0.92300  0.06323  0.61833  1.0000
  Fe  Fe289     1.0  0.76560  0.23048  0.84310  1.0000
  H   H2273     1.0  0.97014  0.03087  0.57706  1.0000
  C   C1448     1.0  0.82314  0.08172  0.83510  1.0000
  H   H2274     1.0  0.86312  0.23252  0.84193  1.0000
  N   N140      1.0  0.82483  0.20271  0.77409  1.0000
  H   H2275     1.0  0.97279  0.05917  0.61948  1.0000
  C   C1449     1.0  0.82700  0.19406  0.79369  1.0000
  C   C1450     1.0  0.80644  0.21595  0.77424  1.0000
  C   C1451     1.0  0.84003  0.21303  0.76435  1.0000
  H   H2276     1.0  0.81657  0.11908  0.83191  1.0000
  H   H2277     1.0  0.70140  0.13419  0.81553  1.0000
  H   H2278     1.0  0.92852  0.06927  0.65519  1.0000
  S   S582      1.0  0.78013  0.16291  0.87721  1.0000
  H   H2279     1.0  0.73670  0.00181  0.68013  1.0000
  H   H2280     1.0  0.87675  0.23409  0.87600  1.0000
  C   C1452     1.0  0.68220  0.02277  0.89934  1.0000
  H   H2281     1.0  0.72570  0.21803  0.69011  1.0000
  C   C1453     1.0  0.98016  0.05374  0.58049  1.0000
  H   H2282     1.0  0.66905  0.05861  0.96743  1.0000
  Fe  Fe290     1.0  0.91666  0.98813  0.57939  1.0000
  H   H2283     1.0  0.79019  0.07562  0.64733  1.0000
  C   C1454     1.0  0.86046  0.01729  0.48295  1.0000
  H   H2284     1.0  0.84006  0.05165  0.63309  1.0000
  H   H2285     1.0  0.90289  0.03773  0.61806  1.0000
  S   S583      1.0  0.77358  0.20125  0.63910  1.0000
  N   N141      1.0  0.90884  0.03678  0.52304  1.0000
  C   C1455     1.0  0.90039  0.03751  0.54300  1.0000
  C   C1456     1.0  0.92929  0.03570  0.51957  1.0000
  C   C1457     1.0  0.90029  0.05397  0.51080  1.0000
  C   C1458     1.0  0.90542  0.01995  0.51885  1.0000
  H   H2286     1.0  0.88493  0.03855  0.54610  1.0000
  H   H2287     1.0  0.90310  0.04974  0.54689  1.0000
  S   S584      1.0  0.80314  0.18415  0.60379  1.0000
  H   H2288     1.0  0.80636  0.00236  0.49184  1.0000
  C   C1459     1.0  0.95166  0.07722  0.56259  1.0000
  H   H2289     1.0  0.93615  0.02338  0.52907  1.0000
  C   C1460     1.0  0.66672  0.04730  0.66726  1.0000
  S   S585      1.0  0.71666  0.20027  0.74296  1.0000
  H   H2290     1.0  0.96005  0.07430  0.63545  1.0000
  H   H2291     1.0  0.73683  0.22628  0.56571  1.0000
  S   S586      1.0  0.90855  0.01419  0.59126  1.0000
  H   H2292     1.0  0.74549  0.16829  0.67181  1.0000
  N   N142      1.0  0.72321  0.02092  0.69896  1.0000
  C   C1461     1.0  0.70523  0.01446  0.70510  1.0000
  C   C1462     1.0  0.73260  0.01718  0.67998  1.0000
  C   C1463     1.0  0.73557  0.01072  0.71240  1.0000
  C   C1464     1.0  0.71949  0.04134  0.69842  1.0000
  H   H2293     1.0  0.72909  0.18590  0.85098  1.0000
  C   C1465     1.0  0.72519  0.13282  0.77048  1.0000
  C   C1466     1.0  0.72794  0.19430  0.86158  1.0000
  H   H2294     1.0  0.73020  0.14321  0.75778  1.0000
  Fe  Fe291     1.0  0.78668  0.20740  0.58490  1.0000
  C   C1467     1.0  0.73452  0.23215  0.81444  1.0000
  H   H2295     1.0  0.68294  0.19239  0.88419  1.0000
  S   S587      1.0  0.78827  0.20636  0.83462  1.0000
  C   C1468     1.0  0.72972  0.23005  0.66028  1.0000
  H   H2296     1.0  0.78467  0.21260  0.69365  1.0000
  N   N143      1.0  0.77372  0.04703  0.76043  1.0000
  C   C1469     1.0  0.78900  0.05760  0.75297  1.0000
  C   C1470     1.0  0.75794  0.05655  0.75078  1.0000
  C   C1471     1.0  0.76722  0.04630  0.78094  1.0000
  C   C1472     1.0  0.78075  0.02768  0.75701  1.0000
  H   H2297     1.0  0.80132  0.05056  0.75964  1.0000
  H   H2298     1.0  0.78422  0.07222  0.75548  1.0000
  H   H2299     1.0  0.79407  0.05872  0.73752  1.0000
  H   H2300     1.0  0.74624  0.04885  0.75588  1.0000
  H   H2301     1.0  0.75216  0.07118  0.75315  1.0000
  H   H2302     1.0  0.76236  0.05752  0.73529  1.0000
  H   H2303     1.0  0.75601  0.03802  0.78716  1.0000
  H   H2304     1.0  0.76128  0.06067  0.78395  1.0000
  H   H2305     1.0  0.77890  0.03972  0.78864  1.0000
  H   H2306     1.0  0.78580  0.02778  0.74165  1.0000
  H   H2307     1.0  0.76952  0.01933  0.76245  1.0000
  H   H2308     1.0  0.79266  0.02007  0.76412  1.0000
  N   N144      1.0  0.86290  0.15379  0.65013  1.0000
  C   C1473     1.0  0.87148  0.13536  0.64478  1.0000
  C   C1474     1.0  0.86957  0.16894  0.63479  1.0000
  C   C1475     1.0  0.86828  0.15397  0.66766  1.0000
  C   C1476     1.0  0.84224  0.15682  0.65332  1.0000
  H   H2309     1.0  0.86706  0.12360  0.65626  1.0000
  H   H2310     1.0  0.88708  0.13270  0.64188  1.0000
  H   H2311     1.0  0.86724  0.13452  0.63194  1.0000
  H   H2312     1.0  0.86325  0.18304  0.63831  1.0000
  H   H2313     1.0  0.88510  0.16720  0.63201  1.0000
  H   H2314     1.0  0.86557  0.16934  0.62140  1.0000
  H   H2315     1.0  0.86231  0.16780  0.67193  1.0000
  H   H2316     1.0  0.81256  0.22705  0.68213  1.0000
  H   H2317     1.0  0.88727  0.06990  0.62317  1.0000
  H   H2318     1.0  0.82419  0.05680  0.66524  1.0000
  C   C1477     1.0  0.84263  0.19168  0.70824  1.0000
  S   S588      1.0  0.86862  0.19024  0.72881  1.0000
  H   H2319     1.0  0.97018  0.05014  0.64443  1.0000
  N   N145      1.0  0.81954  0.07628  0.63943  1.0000
  C   C1478     1.0  0.83681  0.06718  0.62773  1.0000
  H   H2320     1.0  0.77820  0.04569  0.50903  1.0000
  N   N146      1.0  0.66093  0.06212  0.94105  1.0000
  C   C1479     1.0  0.78100  0.13732  0.60605  1.0000
  C   C1480     1.0  0.82181  0.07220  0.65913  1.0000
  H   H2321     1.0  0.80917  0.07926  0.66818  1.0000
  H   H2322     1.0  0.66533  0.08848  0.94334  1.0000
  H   H2323     1.0  0.67374  0.03333  0.90709  1.0000
  H   H2324     1.0  0.68430  0.22072  0.85849  1.0000
  H   H2325     1.0  0.69843  0.17827  0.86809  1.0000
  C   C1481     1.0  0.67676  0.00553  0.90266  1.0000
  H   H2326     1.0  0.73749  0.12167  0.77400  1.0000
  H   H2327     1.0  0.84197  0.20668  0.70399  1.0000
  H   H2328     1.0  0.82783  0.10298  0.63240  1.0000
  H   H2329     1.0  0.81411  0.10043  0.61721  1.0000
  H   H2330     1.0  0.86516  0.15219  0.73423  1.0000
  C   C1482     1.0  0.85573  0.16095  0.72520  1.0000
  H   H2331     1.0  0.73090  0.21688  0.65631  1.0000
  C   C1483     1.0  0.77491  0.23092  0.54318  1.0000
  C   C1484     1.0  0.98092  0.06802  0.50389  1.0000
  H   H2332     1.0  0.91177  0.00673  0.52784  1.0000
  C   C1485     1.0  0.81600  0.09688  0.63207  1.0000
  C   C1486     1.0  0.76319  0.13576  0.87477  1.0000
  H   H2333     1.0  0.93237  0.04852  0.52191  1.0000
  C   C1487     1.0  0.74256  0.15559  0.68275  1.0000
  H   H2334     1.0  0.88379  0.15132  0.66598  1.0000
  H   H2335     1.0  0.84085  0.18418  0.79407  1.0000
  H   H2336     1.0  0.91139  0.01902  0.50385  1.0000
  S   S589      1.0  0.76733  0.15267  0.63776  1.0000
  C   C1488     1.0  0.73179  0.20264  0.80892  1.0000
  H   H2337     1.0  0.83398  0.07726  0.66012  1.0000
  H   H2338     1.0  0.78597  0.15019  0.59911  1.0000
  C   C1489     1.0  0.76573  0.16151  0.84767  1.0000
  S   S590      1.0  0.70341  0.19848  0.79488  1.0000
  C   C1490     1.0  0.70777  0.23269  0.59501  1.0000
  C   C1491     1.0  0.96281  0.05963  0.63332  1.0000
  H   H2339     1.0  0.93675  0.03004  0.63065  1.0000
  C   C1492     1.0  0.93602  0.06719  0.61880  1.0000
  Fe  Fe292     1.0  0.69491  0.18960  0.73565  1.0000
  H   H2340     1.0  0.77043  0.21733  0.52325  1.0000
  H   H2341     1.0  0.73835  0.99523  0.71354  1.0000
  H   H2342     1.0  0.79126  0.08680  0.82330  1.0000
  C   C1493     1.0  0.79393  0.09946  0.82629  1.0000
  H   H2343     1.0  0.75267  0.20540  0.82242  1.0000
  C   C1494     1.0  0.68665  0.14839  0.73138  1.0000
  H   H2344     1.0  0.74294  0.16739  0.71344  1.0000
  H   H2345     1.0  0.70325  0.16694  0.76884  1.0000
  H   H2346     1.0  0.81479  0.17961  0.77100  1.0000
  C   C1495     1.0  0.69879  0.15620  0.78138  1.0000
  C   C1496     1.0  0.94969  0.03470  0.63044  1.0000
  N   N147      1.0  0.80495  0.09414  0.84121  1.0000
  H   H2347     1.0  0.73622  0.18755  0.81067  1.0000
  H   H2348     1.0  0.70034  0.20700  0.84233  1.0000
  H   H2349     1.0  0.73600  0.20559  0.85456  1.0000
  H   H2350     1.0  0.81610  0.10793  0.85630  1.0000
  H   H2351     1.0  0.78000  0.10868  0.83048  1.0000
  C   C1497     1.0  0.75688  0.16330  0.70421  1.0000
  H   H2352     1.0  0.86552  0.21629  0.87451  1.0000
  S   S591      1.0  0.95051  0.00364  0.60059  1.0000
  H   H2353     1.0  0.85416  0.20357  0.76413  1.0000
  H   H2354     1.0  0.73861  0.13488  0.71835  1.0000
  C   C1498     1.0  0.70888  0.12777  0.80310  1.0000
  S   S592      1.0  0.68551  0.21686  0.71618  1.0000
  Fe  Fe293     1.0  0.92225  0.99693  0.61483  1.0000
  S   S593      1.0  0.89270  0.98793  0.56684  1.0000
  S   S594      1.0  0.83632  0.22367  0.82577  1.0000
  H   H2355     1.0  0.83903  0.21956  0.74944  1.0000
  H   H2356     1.0  0.77627  0.13212  0.67534  1.0000
  H   H2357     1.0  0.89011  0.02028  0.52144  1.0000
  H   H2358     1.0  0.85144  0.99077  0.58652  1.0000
  S   S595      1.0  0.80391  0.20523  0.87198  1.0000
  H   H2359     1.0  0.77926  0.15583  0.67136  1.0000
  Fe  Fe294     1.0  0.93704  0.01895  0.57609  1.0000
  C   C1499     1.0  0.69940  0.21473  0.85346  1.0000
  C   C1500     1.0  0.96814  0.04594  0.57482  1.0000
  H   H2360     1.0  0.82107  0.06833  0.83300  1.0000
  S   S596      1.0  0.90797  0.00146  0.64430  1.0000
  H   H2361     1.0  0.73274  0.04657  0.69469  1.0000
  H   H2362     1.0  0.78678  0.13864  0.69098  1.0000
  H   H2363     1.0  0.80221  0.07981  0.87035  1.0000
  C   C1501     1.0  0.71653  0.21193  0.80026  1.0000
  H   H2364     1.0  0.78965  0.02386  0.48638  1.0000
  H   H2365     1.0  0.68213  0.06228  0.91548  1.0000
  H   H2366     1.0  0.85804  0.22355  0.67106  1.0000
  H   H2367     1.0  0.84192  0.99863  0.48720  1.0000
  H   H2368     1.0  0.95926  0.03366  0.61652  1.0000
  H   H2369     1.0  0.69066  0.06091  0.93607  1.0000
  H   H2370     1.0  0.83980  0.17784  0.76338  1.0000
  H   H2371     1.0  0.82450  0.01535  0.51644  1.0000
  C   C1502     1.0  0.72798  0.15122  0.79127  1.0000
  H   H2372     1.0  0.71413  0.20468  0.89480  1.0000
  H   H2373     1.0  0.98730  0.03765  0.53778  1.0000
  H   H2374     1.0  0.80851  0.00929  0.53833  1.0000
  C   C1503     1.0  0.77612  0.22646  0.69654  1.0000
  Fe  Fe295     1.0  0.80731  0.22065  0.84190  1.0000
  H   H2375     1.0  0.72102  0.11687  0.80728  1.0000
  C   C1504     1.0  0.97774  0.07331  0.57748  1.0000
  N   N148      1.0  0.70813  0.20236  0.86910  1.0000
  H   H2376     1.0  0.70743  0.99917  0.70542  1.0000
  C   C1505     1.0  0.98079  0.06093  0.48835  1.0000
  H   H2377     1.0  0.81580  0.18612  0.80154  1.0000
  H   H2378     1.0  0.68120  0.10620  0.72671  1.0000
  S   S597      1.0  0.78968  0.21070  0.55360  1.0000
  H   H2379     1.0  0.82625  0.20495  0.80160  1.0000
  H   H2380     1.0  0.81662  0.99358  0.52222  1.0000
  H   H2381     1.0  0.72149  0.22689  0.59944  1.0000
  C   C1506     1.0  0.80157  0.01724  0.49369  1.0000
  H   H2382     1.0  0.71578  0.12597  0.76647  1.0000
  H   H2383     1.0  0.69546  0.02218  0.69543  1.0000
  H   H2384     1.0  0.77560  0.22661  0.71146  1.0000
  H   H2385     1.0  0.83457  0.22547  0.86551  1.0000
  H   H2386     1.0  0.85713  0.01837  0.49760  1.0000
  C   C1507     1.0  0.69798  0.18689  0.87829  1.0000
  H   H2387     1.0  0.66385  0.17092  0.73920  1.0000
  H   H2388     1.0  0.86420  0.99818  0.59937  1.0000
  H   H2389     1.0  0.98455  0.02755  0.51976  1.0000
  H   H2390     1.0  0.80510  0.22721  0.78191  1.0000
  C   C1508     1.0  0.76723  0.23029  0.52828  1.0000
  H   H2391     1.0  0.72910  0.01356  0.72680  1.0000
  H   H2392     1.0  0.76150  0.22729  0.69534  1.0000
  Fe  Fe296     1.0  0.66467  0.22420  0.74203  1.0000
  C   C1509     1.0  0.84975  0.22811  0.66028  1.0000
  C   C1510     1.0  0.68044  0.05624  0.93091  1.0000
  H   H2393     1.0  0.85625  0.22890  0.89336  1.0000
  C   C1511     1.0  0.86289  0.23037  0.87806  1.0000
  C   C1512     1.0  0.72676  0.23070  0.67934  1.0000
  H   H2394     1.0  0.69257  0.21968  0.88911  1.0000
  H   H2395     1.0  0.71479  0.22535  0.87630  1.0000
  H   H2396     1.0  0.98722  0.98717  0.54296  1.0000
  H   H2397     1.0  0.65685  0.08946  0.92275  1.0000
  Fe  Fe297     1.0  0.96675  0.36797  0.09674  1.0000
  H   H2398     1.0  0.89796  0.23553  0.10228  1.0000
  S   S598      1.0  0.97197  0.35599  0.07092  1.0000
  Fe  Fe298     1.0  0.93787  0.39760  0.11509  1.0000
  S   S599      1.0  0.95335  0.39504  0.13781  1.0000
  S   S600      1.0  0.91141  0.41836  0.10999  1.0000
  S   S601      1.0  0.95290  0.28005  0.99011  1.0000
  H   H2399     1.0  0.70554  0.37725  0.36815  1.0000
  Fe  Fe299     1.0  0.95815  0.36385  0.13925  1.0000
  S   S602      1.0  0.95452  0.34143  0.16576  1.0000
  S   S603      1.0  0.96296  0.39927  0.09159  1.0000
  S   S604      1.0  0.94037  0.36657  0.11874  1.0000
  Fe  Fe300     1.0  0.86449  0.42315  0.99869  1.0000
  S   S605      1.0  0.88855  0.41123  0.01357  1.0000
  Fe  Fe301     1.0  0.72503  0.26901  0.18665  1.0000
  S   S606      1.0  0.86784  0.44063  0.04217  1.0000
  Fe  Fe302     1.0  0.86651  0.41185  0.04006  1.0000
  S   S607      1.0  0.87151  0.38734  0.06386  1.0000
  S   S608      1.0  0.84218  0.42138  0.02535  1.0000
  Fe  Fe303     1.0  0.93067  0.27737  0.06145  1.0000
  S   S609      1.0  0.90350  0.26763  0.06926  1.0000
  H   H2400     1.0  0.89834  0.32273  0.21496  1.0000
  H   H2401     1.0  0.82325  0.45930  0.99578  1.0000
  S   S610      1.0  0.92409  0.29711  0.03478  1.0000
  C   C1513     1.0  0.67346  0.27166  0.44366  1.0000
  H   H2402     1.0  0.67340  0.27872  0.24123  1.0000
  C   C1514     1.0  0.91054  0.30602  0.24684  1.0000
  Fe  Fe304     1.0  0.86920  0.29170  0.19187  1.0000
  S   S611      1.0  0.87518  0.32073  0.17826  1.0000
  Fe  Fe305     1.0  0.83643  0.27184  0.21143  1.0000
  H   H2403     1.0  0.71696  0.31422  0.24149  1.0000
  S   S612      1.0  0.85395  0.28510  0.22200  1.0000
  S   S613      1.0  0.84977  0.28093  0.18107  1.0000
  H   H2404     1.0  0.85862  0.41847  0.08318  1.0000
  Fe  Fe306     1.0  0.68588  0.42830  0.35499  1.0000
  S   S614      1.0  0.67509  0.41967  0.38609  1.0000
  C   C1515     1.0  0.67432  0.35320  0.36540  1.0000
  Fe  Fe307     1.0  0.71881  0.44211  0.35984  1.0000
  S   S615      1.0  0.71091  0.43430  0.39151  1.0000
  S   S616      1.0  0.74564  0.45207  0.34376  1.0000
  Fe  Fe308     1.0  0.70534  0.40774  0.38761  1.0000
  S   S617      1.0  0.71646  0.37781  0.40188  1.0000
  Fe  Fe309     1.0  0.68140  0.44692  0.38718  1.0000
  S   S618      1.0  0.71577  0.41445  0.35624  1.0000
  S   S619      1.0  0.68969  0.45672  0.35579  1.0000
  C   C1516     1.0  0.87841  0.36704  0.00806  1.0000
  H   H2405     1.0  0.93226  0.41173  0.05933  1.0000
  H   H2406     1.0  0.95030  0.30944  0.05149  1.0000
  N   N149      1.0  0.89779  0.29964  0.23903  1.0000
  C   C1517     1.0  0.90882  0.28518  0.22809  1.0000
  C   C1518     1.0  0.69721  0.33674  0.44354  1.0000
  H   H2407     1.0  0.92576  0.45543  0.10815  1.0000
  C   C1519     1.0  0.70805  0.34662  0.42780  1.0000
  C   C1520     1.0  0.70223  0.36609  0.42160  1.0000
  C   C1521     1.0  0.68545  0.37564  0.43123  1.0000
  H   H2408     1.0  0.85451  0.35463  0.99573  1.0000
  H   H2409     1.0  0.87386  0.28654  0.24927  1.0000
  H   H2410     1.0  0.72096  0.33912  0.42034  1.0000
  H   H2411     1.0  0.68084  0.39067  0.42654  1.0000
  C   C1522     1.0  0.84512  0.29099  0.02342  1.0000
  H   H2412     1.0  0.75282  0.24737  0.12706  1.0000
  H   H2413     1.0  0.88382  0.23812  0.04035  1.0000
  C   C1523     1.0  0.92981  0.47657  0.01571  1.0000
  H   H2414     1.0  0.68787  0.31191  0.20942  1.0000
  H   H2415     1.0  0.90033  0.35576  0.12065  1.0000
  H   H2416     1.0  0.72283  0.32824  0.18941  1.0000
  C   C1524     1.0  0.73968  0.32232  0.46869  1.0000
  C   C1525     1.0  0.66369  0.29187  0.24280  1.0000
  H   H2417     1.0  0.91942  0.32397  0.12590  1.0000
  H   H2418     1.0  0.91249  0.30466  0.12142  1.0000
  C   C1526     1.0  0.78988  0.27754  0.20985  1.0000
  C   C1527     1.0  0.77182  0.27407  0.21795  1.0000
  C   C1528     1.0  0.75913  0.27597  0.20652  1.0000
  C   C1529     1.0  0.76426  0.28191  0.18696  1.0000
  C   C1530     1.0  0.67481  0.36577  0.44728  1.0000
  C   C1531     1.0  0.79510  0.28332  0.19027  1.0000
  S   S620      1.0  0.94717  0.25331  0.04734  1.0000
  H   H2419     1.0  0.83464  0.29389  0.03584  1.0000
  S   S621      1.0  0.86582  0.45307  0.99724  1.0000
  S   S622      1.0  0.87845  0.23654  0.16324  1.0000
  C   C1532     1.0  0.98869  0.25865  0.99228  1.0000
  H   H2420     1.0  0.91738  0.41705  0.04265  1.0000
  H   H2421     1.0  0.91806  0.29409  0.25631  1.0000
  H   H2422     1.0  0.95416  0.39489  0.00631  1.0000
  H   H2423     1.0  0.71672  0.34705  0.22278  1.0000
  S   S623      1.0  0.70956  0.28966  0.47516  1.0000
  N   N150      1.0  0.93641  0.46464  0.07849  1.0000
  H   H2424     1.0  0.88341  0.47538  0.02503  1.0000
  C   C1533     1.0  0.76337  0.48168  0.32907  1.0000
  Fe  Fe310     1.0  0.93856  0.27238  0.02090  1.0000
  C   C1534     1.0  0.70431  0.31481  0.23617  1.0000
  H   H2425     1.0  0.82750  0.45391  0.06639  1.0000
  H   H2426     1.0  0.81947  0.46284  0.09754  1.0000
  H   H2427     1.0  0.90021  0.31447  0.14172  1.0000
  H   H2428     1.0  0.85686  0.34083  0.01885  1.0000
  H   H2429     1.0  0.91993  0.29061  0.21649  1.0000
  S   S624      1.0  0.86946  0.30075  0.03870  1.0000
  H   H2430     1.0  0.87832  0.36018  0.11359  1.0000
  C   C1535     1.0  0.93255  0.33535  0.16958  1.0000
  C   C1536     1.0  0.91703  0.34923  0.16509  1.0000
  C   C1537     1.0  0.89953  0.34453  0.16807  1.0000
  C   C1538     1.0  0.89742  0.32585  0.17523  1.0000
  C   C1539     1.0  0.91297  0.31185  0.17952  1.0000
  C   C1540     1.0  0.93046  0.31665  0.17698  1.0000
  H   H2431     1.0  0.91843  0.36372  0.15958  1.0000
  H   H2432     1.0  0.88755  0.35546  0.16484  1.0000
  H   H2433     1.0  0.91155  0.29735  0.18464  1.0000
  H   H2434     1.0  0.94249  0.30582  0.18023  1.0000
  C   C1541     1.0  0.90324  0.33490  0.09526  1.0000
  C   C1542     1.0  0.81666  0.47346  0.08516  1.0000
  H   H2435     1.0  0.93625  0.42911  0.03793  1.0000
  C   C1543     1.0  0.96287  0.33567  0.07516  1.0000
  C   C1544     1.0  0.95821  0.32537  0.09353  1.0000
  C   C1545     1.0  0.95094  0.30918  0.09669  1.0000
  C   C1546     1.0  0.94778  0.30356  0.08160  1.0000
  C   C1547     1.0  0.95240  0.31388  0.06323  1.0000
  C   C1548     1.0  0.96014  0.32980  0.06000  1.0000
  H   H2436     1.0  0.96063  0.32959  0.10525  1.0000
  H   H2437     1.0  0.94784  0.30095  0.11086  1.0000
  H   H2438     1.0  0.96409  0.33750  0.04574  1.0000
  C   C1549     1.0  0.88173  0.39523  0.07797  1.0000
  C   C1550     1.0  0.89986  0.38628  0.08051  1.0000
  C   C1551     1.0  0.90904  0.39364  0.09000  1.0000
  C   C1552     1.0  0.89991  0.40954  0.09767  1.0000
  C   C1553     1.0  0.88167  0.41847  0.09522  1.0000
  C   C1554     1.0  0.87264  0.41140  0.08524  1.0000
  H   H2439     1.0  0.90706  0.37409  0.07452  1.0000
  H   H2440     1.0  0.92345  0.38737  0.09069  1.0000
  H   H2441     1.0  0.87454  0.43088  0.10095  1.0000
  H   H2442     1.0  0.68064  0.38149  0.37695  1.0000
  H   H2443     1.0  0.88111  0.31004  0.11316  1.0000
  C   C1555     1.0  0.84070  0.28377  0.01006  1.0000
  C   C1556     1.0  0.94476  0.40581  0.01399  1.0000
  N   N151      1.0  0.89390  0.33155  0.11542  1.0000
  H   H2444     1.0  0.87518  0.30187  0.26336  1.0000
  H   H2445     1.0  0.90774  0.32160  0.08984  1.0000
  H   H2446     1.0  0.92406  0.38364  0.04086  1.0000
  H   H2447     1.0  0.97546  0.36864  0.17021  1.0000
  H   H2448     1.0  0.88063  0.34752  0.13705  1.0000
  H   H2449     1.0  0.93878  0.37790  0.05780  1.0000
  H   H2450     1.0  0.94943  0.41936  0.00737  1.0000
  H   H2451     1.0  0.90907  0.45843  0.08296  1.0000
  H   H2452     1.0  0.74816  0.23574  0.11113  1.0000
  H   H2453     1.0  0.69561  0.32944  0.38887  1.0000
  C   C1557     1.0  0.91361  0.47019  0.01672  1.0000
  H   H2454     1.0  0.87138  0.36542  0.02326  1.0000
  S   S625      1.0  0.73127  0.23761  0.19325  1.0000
  C   C1558     1.0  0.68167  0.24051  0.43671  1.0000
  H   H2455     1.0  0.86910  0.37852  0.00001  1.0000
  H   H2456     1.0  0.96501  0.46819  0.06866  1.0000
  H   H2457     1.0  0.89966  0.28038  0.22166  1.0000
  H   H2458     1.0  0.84659  0.23862  0.08971  1.0000
  H   H2459     1.0  0.81780  0.24380  0.19682  1.0000
  H   H2460     1.0  0.89714  0.32071  0.00849  1.0000
  H   H2461     1.0  0.90727  0.24978  0.13326  1.0000
  Fe  Fe311     1.0  0.97901  0.39406  0.11434  1.0000
  H   H2462     1.0  0.67405  0.33822  0.36655  1.0000
  H   H2463     1.0  0.89163  0.37186  0.00630  1.0000
  C   C1559     1.0  0.82124  0.46838  0.06749  1.0000
  H   H2464     1.0  0.66202  0.37327  0.45493  1.0000
  C   C1560     1.0  0.88373  0.29148  0.25465  1.0000
  H   H2465     1.0  0.78355  0.47445  0.27300  1.0000
  H   H2466     1.0  0.68769  0.33540  0.19600  1.0000
  C   C1561     1.0  0.68804  0.32640  0.21031  1.0000
  H   H2467     1.0  0.72079  0.36700  0.47541  1.0000
  H   H2468     1.0  0.74201  0.30798  0.47787  1.0000
  H   H2469     1.0  0.90269  0.31696  0.25517  1.0000
  C   C1562     1.0  0.85433  0.27980  0.99412  1.0000
  S   S626      1.0  0.70100  0.27168  0.17303  1.0000
  H   H2470     1.0  0.70380  0.30010  0.23643  1.0000
  H   H2471     1.0  0.80897  0.28614  0.18393  1.0000
  N   N152      1.0  0.70470  0.32674  0.21703  1.0000
  S   S627      1.0  0.88834  0.24607  0.24807  1.0000
  H   H2472     1.0  0.70859  0.33254  0.35418  1.0000
  C   C1563     1.0  0.88813  0.31584  0.22654  1.0000
  H   H2473     1.0  0.70462  0.35573  0.20351  1.0000
  C   C1564     1.0  0.87683  0.29006  0.00496  1.0000
  N   N153      1.0  0.69244  0.35520  0.36791  1.0000
  H   H2474     1.0  0.94345  0.46900  0.00970  1.0000
  H   H2475     1.0  0.94800  0.37089  0.03565  1.0000
  H   H2476     1.0  0.72169  0.34918  0.35472  1.0000
  H   H2477     1.0  0.74543  0.27280  0.21291  1.0000
  H   H2478     1.0  0.74071  0.35897  0.45799  1.0000
  H   H2479     1.0  0.89082  0.29245  0.00288  1.0000
  N   N154      1.0  0.73057  0.33690  0.48003  1.0000
  H   H2480     1.0  0.69146  0.35210  0.22743  1.0000
  H   H2481     1.0  0.87906  0.32674  0.23441  1.0000
  S   S628      1.0  0.82145  0.47543  0.02943  1.0000
  C   C1565     1.0  0.90710  0.31807  0.12659  1.0000
  H   H2482     1.0  0.83239  0.40080  0.99152  1.0000
  S   S629      1.0  0.89072  0.26473  0.19404  1.0000
  C   C1566     1.0  0.98848  0.36087  0.17546  1.0000
  H   H2483     1.0  0.92136  0.31220  0.23540  1.0000
  H   H2484     1.0  0.84679  0.24235  0.01400  1.0000
  C   C1567     1.0  0.82199  0.45055  0.98644  1.0000
  H   H2485     1.0  0.70929  0.34573  0.38899  1.0000
  H   H2486     1.0  0.73490  0.31928  0.20871  1.0000
  C   C1568     1.0  0.86331  0.29376  0.02106  1.0000
  H   H2487     1.0  0.88771  0.33221  0.02808  1.0000
  C   C1569     1.0  0.92898  0.48483  0.07872  1.0000
  H   H2488     1.0  0.76775  0.26952  0.23309  1.0000
  H   H2489     1.0  0.67474  0.33143  0.22001  1.0000
  C   C1570     1.0  0.65908  0.27672  0.43348  1.0000
  H   H2490     1.0  0.68076  0.24124  0.14860  1.0000
  H   H2491     1.0  0.66398  0.40413  0.30998  1.0000
  H   H2492     1.0  0.96972  0.41131  0.03040  1.0000
  S   S630      1.0  0.67441  0.42369  0.33209  1.0000
  C   C1571     1.0  0.78221  0.28572  0.17886  1.0000
  S   S631      1.0  0.93739  0.28401  0.08625  1.0000
  H   H2493     1.0  0.87898  0.31142  0.21973  1.0000
  H   H2494     1.0  0.69171  0.32023  0.24648  1.0000
  C   C1572     1.0  0.68075  0.34630  0.45359  1.0000
  S   S632      1.0  0.66784  0.33441  0.47442  1.0000
  H   H2495     1.0  0.73091  0.32219  0.45891  1.0000
  H   H2496     1.0  0.67589  0.28185  0.45010  1.0000
  C   C1573     1.0  0.88804  0.34954  0.12196  1.0000
  Fe  Fe312     1.0  0.89857  0.28481  0.04127  1.0000
  S   S633      1.0  0.74847  0.28444  0.17250  1.0000
  H   H2497     1.0  0.89369  0.34509  0.08641  1.0000
  H   H2498     1.0  0.86982  0.32096  0.13303  1.0000
  C   C1574     1.0  0.91787  0.24734  0.12022  1.0000
  C   C1575     1.0  0.69211  0.37531  0.36617  1.0000
  H   H2499     1.0  0.97885  0.42458  0.14049  1.0000
  S   S634      1.0  0.68581  0.24047  0.21019  1.0000
  H   H2500     1.0  0.91606  0.34063  0.09294  1.0000
  H   H2501     1.0  0.82672  0.28134  0.01202  1.0000
  Fe  Fe313     1.0  0.69617  0.26484  0.48068  1.0000
  C   C1576     1.0  0.93863  0.38244  0.04248  1.0000
  Fe  Fe314     1.0  0.88799  0.44088  0.01439  1.0000
  C   C1577     1.0  0.87719  0.32366  0.11791  1.0000
  H   H2502     1.0  0.96478  0.39470  0.05216  1.0000
  Fe  Fe315     1.0  0.84537  0.45048  0.02518  1.0000
  H   H2503     1.0  0.94484  0.43893  0.09787  1.0000
  C   C1578     1.0  0.96424  0.39820  0.03694  1.0000
  H   H2504     1.0  0.97412  0.38651  0.03063  1.0000
  S   S635      1.0  0.98519  0.36249  0.11749  1.0000
  S   S636      1.0  0.91559  0.44977  0.00853  1.0000
  H   H2505     1.0  0.86690  0.33347  0.10967  1.0000
  S   S637      1.0  0.70103  0.24610  0.46020  1.0000
  Fe  Fe316     1.0  0.91918  0.24490  0.05359  1.0000
  C   C1579     1.0  0.87230  0.28324  0.99143  1.0000
  H   H2506     1.0  0.93035  0.40785  0.01155  1.0000
  C   C1580     1.0  0.93217  0.41522  0.04401  1.0000
  N   N155      1.0  0.94495  0.40043  0.03435  1.0000
  C   C1581     1.0  0.70783  0.34773  0.35326  1.0000
  S   S638      1.0  0.70726  0.27145  0.21522  1.0000
  H   H2507     1.0  0.72259  0.30493  0.20293  1.0000
  H   H2508     1.0  0.91573  0.27241  0.23720  1.0000
  H   H2509     1.0  0.70160  0.32172  0.44781  1.0000
  H   H2510     1.0  0.92803  0.44191  0.07260  1.0000
  S   S639      1.0  0.66127  0.46681  0.40459  1.0000
  H   H2511     1.0  0.94937  0.45952  0.10224  1.0000
  H   H2512     1.0  0.71774  0.35633  0.45804  1.0000
  H   H2513     1.0  0.89051  0.27893  0.26411  1.0000
  S   S640      1.0  0.91228  0.26136  0.02592  1.0000
  H   H2514     1.0  0.68448  0.35031  0.39821  1.0000
  C   C1582     1.0  0.70438  0.34629  0.21770  1.0000
  H   H2515     1.0  0.78623  0.29033  0.16372  1.0000
  Fe  Fe317     1.0  0.87391  0.25704  0.22347  1.0000
  C   C1583     1.0  0.69558  0.34465  0.38681  1.0000
  C   C1584     1.0  0.68457  0.25344  0.44558  1.0000
  C   C1585     1.0  0.72199  0.31955  0.20399  1.0000
  Fe  Fe318     1.0  0.68341  0.27183  0.20245  1.0000
  H   H2516     1.0  0.85874  0.24277  0.04882  1.0000
  C   C1586     1.0  0.92289  0.45714  0.07285  1.0000
  H   H2517     1.0  0.67150  0.36114  0.35131  1.0000
  H   H2518     1.0  0.67166  0.29304  0.26794  1.0000
  H   H2519     1.0  0.98399  0.39834  0.16934  1.0000
  S   S641      1.0  0.80570  0.27380  0.22460  1.0000
  H   H2520     1.0  0.83333  0.43769  0.98760  1.0000
  H   H2521     1.0  0.75358  0.32474  0.45999  1.0000
  C   C1587     1.0  0.74625  0.47618  0.33813  1.0000
  H   H2522     1.0  0.92025  0.46477  0.05862  1.0000
  Fe  Fe319     1.0  0.87012  0.25331  0.18579  1.0000
  H   H2523     1.0  0.98462  0.35768  0.19114  1.0000
  H   H2524     1.0  0.77597  0.47103  0.32634  1.0000
  C   C1588     1.0  0.93923  0.45423  0.09753  1.0000
  H   H2525     1.0  0.81574  0.38006  0.98390  1.0000
  N   N156      1.0  0.88215  0.34926  0.00149  1.0000
  S   S642      1.0  0.85524  0.24317  0.21534  1.0000
  Fe  Fe320     1.0  0.70563  0.24014  0.18213  1.0000
  H   H2526     1.0  0.90817  0.33807  0.01111  1.0000
  C   C1589     1.0  0.72736  0.35562  0.46733  1.0000
  H   H2527     1.0  0.91298  0.25811  0.10824  1.0000
  H   H2528     1.0  0.70584  0.35547  0.33884  1.0000
  H   H2529     1.0  0.87880  0.24272  0.07348  1.0000
  H   H2530     1.0  0.95296  0.47002  0.05033  1.0000
  Fe  Fe321     1.0  0.71117  0.24019  0.22051  1.0000
  H   H2531     1.0  0.98300  0.25308  0.00689  1.0000
  H   H2532     1.0  0.96080  0.44732  0.06453  1.0000
  C   C1590     1.0  0.87010  0.24083  0.03616  1.0000
  H   H2533     1.0  0.93127  0.25012  0.12138  1.0000
  C   C1591     1.0  0.95459  0.46242  0.06487  1.0000
  C   C1592     1.0  0.89435  0.33445  0.01277  1.0000
  C   C1593     1.0  0.66721  0.24552  0.42664  1.0000
  H   H2534     1.0  0.68999  0.38378  0.35202  1.0000
  H   H2535     1.0  0.75017  0.47238  0.28369  1.0000
  C   C1594     1.0  0.86420  0.34359  0.00376  1.0000
  H   H2536     1.0  0.98471  0.44439  0.15944  1.0000
  H   H2537     1.0  0.80838  0.44593  0.99225  1.0000
  C   C1595     1.0  0.81719  0.48184  0.05148  1.0000
  H   H2538     1.0  0.86646  0.33047  0.99852  1.0000
  C   C1596     1.0  0.66248  0.29986  0.25809  1.0000
  H   H2539     1.0  0.66240  0.35875  0.37622  1.0000
  H   H2540     1.0  0.86884  0.25439  0.02582  1.0000
  H   H2541     1.0  0.79628  0.23797  0.22786  1.0000
  C   C1597     1.0  0.89599  0.48011  0.02432  1.0000
  C   C1598     1.0  0.65865  0.40841  0.33832  1.0000
  H   H2542     1.0  0.78493  0.24310  0.19809  1.0000
  H   H2543     1.0  0.76380  0.48156  0.24913  1.0000
  H   H2544     1.0  0.93132  0.23559  0.08761  1.0000
  H   H2545     1.0  0.88056  0.23807  0.99970  1.0000
  H   H2546     1.0  0.83834  0.27435  0.86317  1.0000
  H   H2547     1.0  0.94740  0.25752  0.91007  1.0000
  H   H2548     1.0  0.69081  0.28587  0.67495  1.0000
  S   S643      1.0  0.72212  0.24875  0.70794  1.0000
  C   C1599     1.0  0.81675  0.26098  0.78226  1.0000
  S   S644      1.0  0.78058  0.24162  0.90264  1.0000
  H   H2549     1.0  0.82294  0.24972  0.86107  1.0000
  S   S645      1.0  0.70247  0.25333  0.50967  1.0000
  C   C1600     1.0  0.81766  0.24899  0.79990  1.0000
  C   C1601     1.0  0.94962  0.27210  0.90381  1.0000
  H   H2550     1.0  0.86090  0.26784  0.86946  1.0000
  Fe  Fe322     1.0  0.67400  0.27055  0.51920  1.0000
  H   H2551     1.0  0.68210  0.26057  0.57950  1.0000
  Fe  Fe323     1.0  0.85323  0.26020  0.72555  1.0000
  S   S646      1.0  0.87158  0.27411  0.69996  1.0000
  S   S647      1.0  0.83200  0.27600  0.74612  1.0000
  H   H2552     1.0  0.97864  0.28258  0.82894  1.0000
  H   H2553     1.0  0.89384  0.32418  0.77223  1.0000
  Fe  Fe324     1.0  0.86487  0.25459  0.68536  1.0000
  H   H2554     1.0  0.87344  0.25111  0.84309  1.0000
  C   C1602     1.0  0.85998  0.24632  0.84621  1.0000
  S   S648      1.0  0.73489  0.24575  0.62263  1.0000
  H   H2555     1.0  0.97073  0.40057  0.71230  1.0000
  H   H2556     1.0  0.80834  0.34128  0.91110  1.0000
  H   H2557     1.0  0.82002  0.24415  0.62146  1.0000
  H   H2558     1.0  0.94390  0.38482  0.72832  1.0000
  C   C1603     1.0  0.88623  0.31289  0.78086  1.0000
  H   H2559     1.0  0.80394  0.24101  0.69984  1.0000
  H   H2560     1.0  0.72090  0.26856  0.55977  1.0000
  H   H2561     1.0  0.95687  0.37116  0.74601  1.0000
  H   H2562     1.0  0.92092  0.27552  0.77071  1.0000
  N   N157      1.0  0.89429  0.29503  0.77422  1.0000
  Fe  Fe325     1.0  0.89465  0.24985  0.70855  1.0000
  H   H2563     1.0  0.86887  0.28440  0.78551  1.0000
  C   C1604     1.0  0.79637  0.35064  0.91865  1.0000
  H   H2564     1.0  0.90005  0.30895  0.74503  1.0000
  H   H2565     1.0  0.75662  0.27692  0.54560  1.0000
  Fe  Fe326     1.0  0.87514  0.31353  0.91807  1.0000
  S   S649      1.0  0.85053  0.33519  0.90900  1.0000
  S   S650      1.0  0.90533  0.31297  0.90315  1.0000
  Fe  Fe327     1.0  0.85087  0.29301  0.95127  1.0000
  S   S651      1.0  0.82427  0.31253  0.94497  1.0000
  S   S652      1.0  0.84905  0.27054  0.97754  1.0000
  Fe  Fe328     1.0  0.83694  0.31027  0.91488  1.0000
  S   S653      1.0  0.82097  0.30887  0.89361  1.0000
  Fe  Fe329     1.0  0.84003  0.33560  0.93989  1.0000
  H   H2566     1.0  0.68227  0.26421  0.70510  1.0000
  S   S654      1.0  0.86241  0.28863  0.92166  1.0000
  S   S655      1.0  0.86581  0.31603  0.94845  1.0000
  H   H2567     1.0  0.67358  0.26201  0.65921  1.0000
  Fe  Fe330     1.0  0.96221  0.31227  0.75763  1.0000
  S   S656      1.0  0.95858  0.29009  0.78408  1.0000
  S   S657      1.0  0.95142  0.31536  0.73115  1.0000
  S   S658      1.0  0.85406  0.26392  0.65816  1.0000
  H   H2568     1.0  0.86347  0.25852  0.76432  1.0000
  H   H2569     1.0  0.88505  0.27783  0.80117  1.0000
  Fe  Fe331     1.0  0.94507  0.31422  0.79868  1.0000
  S   S659      1.0  0.91623  0.31264  0.81669  1.0000
  S   S660      1.0  0.94724  0.33622  0.77212  1.0000
  C   C1605     1.0  0.76307  0.35742  0.93154  1.0000
  H   H2570     1.0  0.89891  0.28467  0.74888  1.0000
  C   C1606     1.0  0.82204  0.44865  0.95483  1.0000
  Fe  Fe332     1.0  0.71276  0.27980  0.50531  1.0000
  S   S661      1.0  0.73646  0.28353  0.51628  1.0000
  H   H2571     1.0  0.98561  0.26549  0.90581  1.0000
  S   S662      1.0  0.68458  0.29637  0.51692  1.0000
  H   H2572     1.0  0.87528  0.39393  0.94180  1.0000
  H   H2573     1.0  0.66015  0.25712  0.71123  1.0000
  H   H2574     1.0  0.88736  0.31127  0.79575  1.0000
  C   C1607     1.0  0.85070  0.25595  0.77429  1.0000
  H   H2575     1.0  0.66078  0.28074  0.71116  1.0000
  C   C1608     1.0  0.90847  0.31268  0.87917  1.0000
  C   C1609     1.0  0.89334  0.31227  0.87187  1.0000
  C   C1610     1.0  0.89590  0.31218  0.85269  1.0000
  C   C1611     1.0  0.91359  0.31248  0.84072  1.0000
  C   C1612     1.0  0.92879  0.31264  0.84806  1.0000
  C   C1613     1.0  0.92622  0.31277  0.86726  1.0000
  H   H2576     1.0  0.87961  0.31217  0.88096  1.0000
  H   H2577     1.0  0.88409  0.31209  0.84709  1.0000
  H   H2578     1.0  0.94248  0.31281  0.83895  1.0000
  H   H2579     1.0  0.93797  0.31316  0.87277  1.0000
  C   C1614     1.0  0.97537  0.26661  0.91938  1.0000
  H   H2580     1.0  0.94669  0.24953  0.73831  1.0000
  S   S663      1.0  0.74310  0.24473  0.82609  1.0000
  H   H2581     1.0  0.79701  0.25157  0.92817  1.0000
  H   H2582     1.0  0.80485  0.24602  0.80947  1.0000
  C   C1615     1.0  0.88404  0.28034  0.78615  1.0000
  C   C1616     1.0  0.98037  0.38688  0.71627  1.0000
  H   H2583     1.0  0.79978  0.35046  0.93229  1.0000
  H   H2584     1.0  0.90526  0.35634  0.97907  1.0000
  H   H2585     1.0  0.98200  0.27193  0.92797  1.0000
  C   C1617     1.0  0.77473  0.34493  0.90312  1.0000
  H   H2586     1.0  0.75668  0.33976  0.48438  1.0000
  C   C1618     1.0  0.85346  0.37835  0.94736  1.0000
  H   H2587     1.0  0.71047  0.26885  0.58418  1.0000
  H   H2588     1.0  0.85936  0.37220  0.93501  1.0000
  H   H2589     1.0  0.73629  0.34729  0.50160  1.0000
  H   H2590     1.0  0.79389  0.47370  0.97071  1.0000
  C   C1619     1.0  0.69180  0.25135  0.57006  1.0000
  C   C1620     1.0  0.75137  0.26315  0.52624  1.0000
  H   H2591     1.0  0.77208  0.26127  0.70241  1.0000
  S   S664      1.0  0.98348  0.36576  0.77052  1.0000
  H   H2592     1.0  0.83382  0.43607  0.95501  1.0000
  H   H2593     1.0  0.92249  0.29975  0.76638  1.0000
  C   C1621     1.0  0.84595  0.24712  0.65147  1.0000
  S   S665      1.0  0.78530  0.24621  0.84753  1.0000
  H   H2594     1.0  0.95929  0.27200  0.88977  1.0000
  H   H2595     1.0  0.76565  0.35750  0.94548  1.0000
  C   C1622     1.0  0.83654  0.37453  0.95904  1.0000
  C   C1623     1.0  0.66733  0.26895  0.70362  1.0000
  C   C1624     1.0  0.92935  0.26860  0.71970  1.0000
  C   C1625     1.0  0.94180  0.26413  0.73203  1.0000
  C   C1626     1.0  0.94827  0.27834  0.73603  1.0000
  C   C1627     1.0  0.94276  0.29717  0.72729  1.0000
  C   C1628     1.0  0.93033  0.30168  0.71493  1.0000
  C   C1629     1.0  0.92341  0.28751  0.71137  1.0000
  S   S666      1.0  0.84446  0.24291  0.71049  1.0000
  H   H2596     1.0  0.95800  0.27463  0.74539  1.0000
  H   H2597     1.0  0.92610  0.31617  0.70796  1.0000
  H   H2598     1.0  0.91410  0.29111  0.70159  1.0000
  H   H2599     1.0  0.77375  0.35928  0.89398  1.0000
  H   H2600     1.0  0.87770  0.30205  0.75297  1.0000
  H   H2601     1.0  0.85357  0.45472  0.96041  1.0000
  H   H2602     1.0  0.80986  0.25216  0.67548  1.0000
  H   H2603     1.0  0.79154  0.31509  0.92612  1.0000
  N   N158      1.0  0.78400  0.24223  0.68335  1.0000
  S   S667      1.0  0.92309  0.25003  0.71378  1.0000
  H   H2604     1.0  0.91613  0.28716  0.79012  1.0000
  H   H2605     1.0  0.93586  0.28111  0.90129  1.0000
  H   H2606     1.0  0.84058  0.26242  0.88678  1.0000
  C   C1630     1.0  0.79149  0.26057  0.90006  1.0000
  C   C1631     1.0  0.79334  0.27420  0.88333  1.0000
  C   C1632     1.0  0.80198  0.28917  0.88176  1.0000
  C   C1633     1.0  0.80929  0.29039  0.89669  1.0000
  C   C1634     1.0  0.80751  0.27676  0.91342  1.0000
  C   C1635     1.0  0.79845  0.26203  0.91515  1.0000
  H   H2607     1.0  0.78783  0.27337  0.87171  1.0000
  H   H2608     1.0  0.80323  0.29971  0.86879  1.0000
  H   H2609     1.0  0.81310  0.27753  0.92503  1.0000
  H   H2610     1.0  0.98350  0.38660  0.73010  1.0000
  H   H2611     1.0  0.96612  0.30412  0.91615  1.0000
  C   C1636     1.0  0.98468  0.27924  0.96227  1.0000
  C   C1637     1.0  0.77080  0.24773  0.54954  1.0000
  C   C1638     1.0  0.83327  0.26398  0.76923  1.0000
  H   H2612     1.0  0.73053  0.27617  0.64064  1.0000
  C   C1639     1.0  0.74283  0.33668  0.49259  1.0000
  H   H2613     1.0  0.78615  0.33528  0.89531  1.0000
  H   H2614     1.0  0.80326  0.26723  0.77838  1.0000
  Fe  Fe333     1.0  0.97541  0.33721  0.77640  1.0000
  H   H2615     1.0  0.94115  0.26521  0.94177  1.0000
  H   H2616     1.0  0.77684  0.24842  0.56086  1.0000
  H   H2617     1.0  0.94771  0.35953  0.73334  1.0000
  H   H2618     1.0  0.72631  0.27714  0.67431  1.0000
  C   C1640     1.0  0.67575  0.29012  0.67399  1.0000
  H   H2619     1.0  0.74558  0.32261  0.50221  1.0000
  H   H2620     1.0  0.83220  0.26755  0.63058  1.0000
  H   H2621     1.0  0.87114  0.31796  0.78010  1.0000
  C   C1641     1.0  0.85504  0.39873  0.96724  1.0000
  N   N159      1.0  0.82334  0.46100  0.96666  1.0000
  H   H2622     1.0  0.82273  0.45613  0.93984  1.0000
  N   N160      1.0  0.97198  0.37078  0.71750  1.0000
  C   C1642     1.0  0.97707  0.27208  0.98120  1.0000
  H   H2623     1.0  0.85075  0.25644  0.83698  1.0000
  S   S668      1.0  0.97162  0.31757  0.80463  1.0000
  H   H2624     1.0  0.71464  0.25658  0.80406  1.0000
  S   S669      1.0  0.82404  0.36050  0.95347  1.0000
  C   C1643     1.0  0.86241  0.39074  0.95120  1.0000
  H   H2625     1.0  0.94913  0.28464  0.94437  1.0000
  C   C1644     1.0  0.94379  0.27949  0.93455  1.0000
  C   C1645     1.0  0.91432  0.28905  0.77543  1.0000
  C   C1646     1.0  0.67436  0.25830  0.67438  1.0000
  H   H2626     1.0  0.97591  0.28997  0.95377  1.0000
  H   H2627     1.0  0.97920  0.34051  0.72446  1.0000
  C   C1647     1.0  0.75941  0.26389  0.54082  1.0000
  C   C1648     1.0  0.73088  0.24650  0.64638  1.0000
  H   H2628     1.0  0.68944  0.25308  0.67515  1.0000
  H   H2629     1.0  0.92999  0.28892  0.93264  1.0000
  C   C1649     1.0  0.84154  0.46704  0.95974  1.0000
  H   H2630     1.0  0.68479  0.23982  0.57064  1.0000
  C   C1650     1.0  0.80783  0.47776  0.96570  1.0000
  H   H2631     1.0  0.79015  0.25316  0.65339  1.0000
  C   C1651     1.0  0.77987  0.32516  0.93309  1.0000
  H   H2632     1.0  0.79589  0.36520  0.91006  1.0000
  H   H2633     1.0  0.67519  0.29452  0.65875  1.0000
  H   H2634     1.0  0.70471  0.34392  0.49984  1.0000
  N   N161      1.0  0.95724  0.27915  0.91626  1.0000
  C   C1652     1.0  0.96795  0.37150  0.69905  1.0000
  H   H2635     1.0  0.76160  0.37216  0.92324  1.0000
  C   C1653     1.0  0.83514  0.25285  0.63749  1.0000
  N   N162      1.0  0.71028  0.24384  0.57547  1.0000
  H   H2636     1.0  0.77794  0.27250  0.67796  1.0000
  H   H2637     1.0  0.76676  0.31997  0.93534  1.0000
  C   C1654     1.0  0.96017  0.29843  0.90724  1.0000
  H   H2638     1.0  0.96172  0.35936  0.69968  1.0000
  C   C1655     1.0  0.71236  0.33288  0.49158  1.0000
  C   C1656     1.0  0.82889  0.38288  0.97486  1.0000
  C   C1657     1.0  0.95432  0.37162  0.73190  1.0000
  H   H2639     1.0  0.76961  0.24302  0.66176  1.0000
  H   H2640     1.0  0.69320  0.25987  0.55537  1.0000
  C   C1658     1.0  0.77242  0.26031  0.68776  1.0000
  C   C1659     1.0  0.83508  0.24032  0.80468  1.0000
  H   H2641     1.0  0.76140  0.34034  0.90477  1.0000
  C   C1660     1.0  0.72556  0.24769  0.68434  1.0000
  C   C1661     1.0  0.83828  0.39467  0.97917  1.0000
  H   H2642     1.0  0.88281  0.28033  0.97902  1.0000
  N   N163      1.0  0.77851  0.34454  0.92160  1.0000
  N   N164      1.0  0.85075  0.24477  0.86636  1.0000
  H   H2643     1.0  0.97011  0.29874  0.89332  1.0000
  H   H2644     1.0  0.74938  0.35318  0.93415  1.0000
  H   H2645     1.0  0.97361  0.25212  0.92691  1.0000
  H   H2646     1.0  0.66716  0.24632  0.68127  1.0000
  C   C1662     1.0  0.72939  0.26351  0.65145  1.0000
  H   H2647     1.0  0.78255  0.32433  0.94722  1.0000
  C   C1663     1.0  0.72710  0.26403  0.67042  1.0000
  H   H2648     1.0  0.88981  0.26671  0.78141  1.0000
  C   C1664     1.0  0.82816  0.23965  0.63236  1.0000
  H   H2649     1.0  0.84313  0.47484  0.94481  1.0000
  C   C1665     1.0  0.89264  0.29782  0.75443  1.0000
  H   H2650     1.0  0.69880  0.24146  0.60521  1.0000
  S   S670      1.0  0.86706  0.41410  0.97133  1.0000
  H   H2651     1.0  0.84302  0.47640  0.96834  1.0000
  H   H2652     1.0  0.95783  0.38466  0.69458  1.0000
  H   H2653     1.0  0.97955  0.28970  0.85897  1.0000
  H   H2654     1.0  0.75763  0.26204  0.68664  1.0000
  H   H2655     1.0  0.80873  0.44337  0.95991  1.0000
  C   C1666     1.0  0.71969  0.24154  0.80515  1.0000
  C   C1667     1.0  0.80341  0.24052  0.68530  1.0000
  H   H2656     1.0  0.69899  0.23880  0.79136  1.0000
  N   N165      1.0  0.66580  0.27458  0.68358  1.0000
  C   C1668     1.0  0.84752  0.26314  0.87164  1.0000
  H   H2657     1.0  0.94670  0.30826  0.90480  1.0000
  H   H2658     1.0  0.71429  0.31916  0.50175  1.0000
  C   C1669     1.0  0.75525  0.24628  0.52000  1.0000
  C   C1670     1.0  0.85161  0.24413  0.79206  1.0000
  S   S671      1.0  0.66680  0.28006  0.49061  1.0000
  H   H2659     1.0  0.86511  0.23738  0.79569  1.0000
  S   S672      1.0  0.68352  0.23744  0.75109  1.0000
  C   C1671     1.0  0.71908  0.25963  0.57427  1.0000
  H   H2660     1.0  0.66950  0.30270  0.68047  1.0000
  H   H2661     1.0  0.74924  0.24562  0.50864  1.0000
  Fe  Fe334     1.0  0.98539  0.29481  0.78803  1.0000
  C   C1672     1.0  0.78407  0.24161  0.66379  1.0000
  Fe  Fe335     1.0  0.68051  0.30436  0.48698  1.0000
  H   H2662     1.0  0.73322  0.25442  0.57795  1.0000
  C   C1673     1.0  0.83258  0.23918  0.86957  1.0000
  H   H2663     1.0  0.72418  0.23956  0.54759  1.0000
  S   S673      1.0  0.87635  0.23703  0.73497  1.0000
  H   H2664     1.0  0.88289  0.36284  0.97244  1.0000
  H   H2665     1.0  0.82522  0.23764  0.88466  1.0000
  H   H2666     1.0  0.89480  0.33864  0.97611  1.0000
  H   H2667     1.0  0.98097  0.37089  0.68783  1.0000
  C   C1674     1.0  0.98527  0.35300  0.72288  1.0000
  S   S674      1.0  0.65679  0.25576  0.54530  1.0000
  H   H2668     1.0  0.98893  0.35222  0.73654  1.0000
  H   H2669     1.0  0.70303  0.33218  0.48265  1.0000
  C   C1675     1.0  0.89173  0.35189  0.98139  1.0000
  H   H2670     1.0  0.76758  0.64056  0.22391  1.0000
  C   C1676     1.0  0.84011  0.71158  0.13692  1.0000
  H   H2671     1.0  0.67251  0.51445  0.37015  1.0000
  Fe  Fe336     1.0  0.67167  0.66615  0.25802  1.0000
  H   H2672     1.0  0.90483  0.61379  0.24587  1.0000
  Fe  Fe337     1.0  0.93460  0.53180  0.03821  1.0000
  S   S675      1.0  0.93452  0.53340  0.06754  1.0000
  S   S676      1.0  0.90823  0.52365  0.03746  1.0000
  H   H2673     1.0  0.73987  0.66047  0.18620  1.0000
  Fe  Fe338     1.0  0.94091  0.56190  0.05453  1.0000
  S   S677      1.0  0.92367  0.58764  0.06564  1.0000
  H   H2674     1.0  0.72868  0.69833  0.25986  1.0000
  S   S678      1.0  0.93921  0.56112  0.02539  1.0000
  H   H2675     1.0  0.72408  0.66716  0.20708  1.0000
  H   H2676     1.0  0.77050  0.68337  0.38970  1.0000
  H   H2677     1.0  0.85501  0.57822  0.04555  1.0000
  Fe  Fe339     1.0  0.66247  0.67163  0.10829  1.0000
  H   H2678     1.0  0.89216  0.58667  0.04657  1.0000
  H   H2679     1.0  0.76290  0.63020  0.18873  1.0000
  S   S679      1.0  0.70078  0.64429  0.31480  1.0000
  S   S680      1.0  0.76702  0.56260  0.26764  1.0000
  Fe  Fe340     1.0  0.81307  0.55260  0.28600  1.0000
  S   S681      1.0  0.81156  0.56690  0.25597  1.0000
  S   S682      1.0  0.83883  0.54300  0.29880  1.0000
  Fe  Fe341     1.0  0.78356  0.58283  0.26896  1.0000
  S   S683      1.0  0.77369  0.61380  0.25840  1.0000
  Fe  Fe342     1.0  0.79518  0.54549  0.25701  1.0000
  S   S684      1.0  0.80097  0.52875  0.23439  1.0000
  S   S685      1.0  0.78636  0.57017  0.29896  1.0000
  Fe  Fe343     1.0  0.79615  0.56566  0.11137  1.0000
  S   S686      1.0  0.79722  0.53956  0.13417  1.0000
  S   S687      1.0  0.81844  0.58243  0.10588  1.0000
  Fe  Fe344     1.0  0.75991  0.56191  0.10327  1.0000
  S   S688      1.0  0.75776  0.53583  0.12574  1.0000
  S   S689      1.0  0.73845  0.57607  0.08536  1.0000
  Fe  Fe345     1.0  0.76639  0.55074  0.14340  1.0000
  S   S690      1.0  0.75123  0.55612  0.17229  1.0000
  Fe  Fe346     1.0  0.78877  0.52725  0.11404  1.0000
  H   H2680     1.0  0.74624  0.50301  0.24691  1.0000
  S   S691      1.0  0.76586  0.57756  0.12166  1.0000
  S   S692      1.0  0.79039  0.55254  0.09040  1.0000
  C   C1677     1.0  0.92782  0.57989  0.25389  1.0000
  Fe  Fe347     1.0  0.87027  0.65742  0.30460  1.0000
  S   S693      1.0  0.89716  0.63603  0.30544  1.0000
  S   S694      1.0  0.86472  0.67222  0.27580  1.0000
  Fe  Fe348     1.0  0.85824  0.65016  0.34698  1.0000
  S   S695      1.0  0.88384  0.62764  0.35107  1.0000
  S   S696      1.0  0.83782  0.65739  0.37300  1.0000
  Fe  Fe349     1.0  0.89923  0.64809  0.32911  1.0000
  S   S697      1.0  0.92688  0.65242  0.33215  1.0000
  Fe  Fe350     1.0  0.87894  0.61800  0.32715  1.0000
  S   S698      1.0  0.88402  0.58710  0.32689  1.0000
  S   S699      1.0  0.87380  0.67126  0.32628  1.0000
  S   S700      1.0  0.85181  0.63872  0.32513  1.0000
  Fe  Fe351     1.0  0.83379  0.62316  0.17782  1.0000
  S   S701      1.0  0.85436  0.59904  0.19024  1.0000
  S   S702      1.0  0.80572  0.61941  0.17600  1.0000
  Fe  Fe352     1.0  0.86020  0.64967  0.16755  1.0000
  S   S703      1.0  0.88385  0.62751  0.17826  1.0000
  S   S704      1.0  0.86202  0.67955  0.15322  1.0000
  Fe  Fe353     1.0  0.87555  0.60842  0.16462  1.0000
  S   S705      1.0  0.89397  0.58291  0.15355  1.0000
  Fe  Fe354     1.0  0.86102  0.61971  0.20287  1.0000
  S   S706      1.0  0.86499  0.61027  0.23280  1.0000
  S   S707      1.0  0.85441  0.63156  0.15124  1.0000
  S   S708      1.0  0.83791  0.64305  0.19328  1.0000
  Fe  Fe355     1.0  0.95256  0.71017  0.39335  1.0000
  H   H2681     1.0  0.88710  0.56583  0.08815  1.0000
  H   H2682     1.0  0.72300  0.69541  0.30728  1.0000
  C   C1678     1.0  0.77921  0.48957  0.27390  1.0000
  H   H2683     1.0  0.71252  0.69075  0.35950  1.0000
  C   C1679     1.0  0.92772  0.66798  0.34586  1.0000
  C   C1680     1.0  0.94488  0.66751  0.35024  1.0000
  C   C1681     1.0  0.94558  0.67786  0.36313  1.0000
  C   C1682     1.0  0.92906  0.68862  0.37184  1.0000
  C   C1683     1.0  0.91206  0.68976  0.36680  1.0000
  C   C1684     1.0  0.91143  0.67974  0.35364  1.0000
  H   H2684     1.0  0.95759  0.65858  0.34417  1.0000
  H   H2685     1.0  0.95874  0.67678  0.36699  1.0000
  H   H2686     1.0  0.89924  0.69814  0.37343  1.0000
  H   H2687     1.0  0.89823  0.68063  0.34998  1.0000
  C   C1685     1.0  0.86528  0.65521  0.26336  1.0000
  C   C1686     1.0  0.86367  0.63696  0.27321  1.0000
  C   C1687     1.0  0.86304  0.62355  0.26365  1.0000
  C   C1688     1.0  0.86492  0.62796  0.24408  1.0000
  C   C1689     1.0  0.86659  0.64618  0.23407  1.0000
  C   C1690     1.0  0.86660  0.65989  0.24376  1.0000
  H   H2688     1.0  0.86246  0.63320  0.28827  1.0000
  H   H2689     1.0  0.86081  0.60977  0.27150  1.0000
  H   H2690     1.0  0.86797  0.64969  0.21890  1.0000
  H   H2691     1.0  0.86782  0.67400  0.23605  1.0000
  C   C1691     1.0  0.84047  0.69535  0.15127  1.0000
  H   H2692     1.0  0.74081  0.52470  0.26859  1.0000
  C   C1692     1.0  0.78061  0.68772  0.35957  1.0000
  C   C1693     1.0  0.79610  0.68423  0.34496  1.0000
  C   C1694     1.0  0.81368  0.67472  0.34905  1.0000
  C   C1695     1.0  0.81571  0.66840  0.36780  1.0000
  C   C1696     1.0  0.80009  0.67134  0.38246  1.0000
  C   C1697     1.0  0.78252  0.68092  0.37834  1.0000
  H   H2693     1.0  0.79452  0.68853  0.33051  1.0000
  H   H2694     1.0  0.82567  0.67239  0.33768  1.0000
  H   H2695     1.0  0.80161  0.66632  0.39698  1.0000
  C   C1698     1.0  0.80899  0.50054  0.05319  1.0000
  C   C1699     1.0  0.81466  0.59402  0.12448  1.0000
  C   C1700     1.0  0.83006  0.59543  0.13070  1.0000
  C   C1701     1.0  0.82721  0.60301  0.14664  1.0000
  C   C1702     1.0  0.80904  0.60986  0.15607  1.0000
  C   C1703     1.0  0.79362  0.60905  0.14950  1.0000
  C   C1704     1.0  0.79644  0.60110  0.13375  1.0000
  H   H2696     1.0  0.84419  0.58994  0.12370  1.0000
  H   H2697     1.0  0.83916  0.60286  0.15199  1.0000
  H   H2698     1.0  0.77951  0.61449  0.15657  1.0000
  H   H2699     1.0  0.78451  0.60076  0.12863  1.0000
  C   C1705     1.0  0.85014  0.55664  0.30643  1.0000
  C   C1706     1.0  0.84416  0.57619  0.30524  1.0000
  C   C1707     1.0  0.85404  0.58596  0.31184  1.0000
  C   C1708     1.0  0.86984  0.57612  0.31959  1.0000
  C   C1709     1.0  0.87551  0.55667  0.32080  1.0000
  C   C1710     1.0  0.86576  0.54704  0.31432  1.0000
  H   H2700     1.0  0.83214  0.58376  0.29908  1.0000
  H   H2701     1.0  0.84964  0.60104  0.31071  1.0000
  H   H2702     1.0  0.88769  0.54897  0.32666  1.0000
  H   H2703     1.0  0.87049  0.53199  0.31530  1.0000
  C   C1711     1.0  0.78688  0.53653  0.21736  1.0000
  C   C1712     1.0  0.79064  0.52672  0.20283  1.0000
  C   C1713     1.0  0.78000  0.53287  0.18874  1.0000
  C   C1714     1.0  0.76517  0.54856  0.18943  1.0000
  C   C1715     1.0  0.76114  0.55814  0.20419  1.0000
  C   C1716     1.0  0.77213  0.55229  0.21800  1.0000
  H   H2704     1.0  0.80190  0.51438  0.20235  1.0000
  H   H2705     1.0  0.78300  0.52525  0.17754  1.0000
  H   H2706     1.0  0.70363  0.68567  0.30721  1.0000
  C   C1717     1.0  0.72151  0.63597  0.29969  1.0000
  C   C1718     1.0  0.72871  0.64811  0.28336  1.0000
  C   C1719     1.0  0.74462  0.64123  0.27061  1.0000
  C   C1720     1.0  0.75354  0.62223  0.27427  1.0000
  C   C1721     1.0  0.74630  0.61009  0.29059  1.0000
  C   C1722     1.0  0.73041  0.61700  0.30341  1.0000
  H   H2707     1.0  0.72215  0.66285  0.28060  1.0000
  H   H2708     1.0  0.74980  0.65066  0.25788  1.0000
  H   H2709     1.0  0.75266  0.59531  0.29325  1.0000
  H   H2710     1.0  0.72469  0.60752  0.31590  1.0000
  S   S709      1.0  0.72743  0.70105  0.22150  1.0000
  H   H2711     1.0  0.80573  0.56156  0.35301  1.0000
  H   H2712     1.0  0.97670  0.52808  0.15503  1.0000
  H   H2713     1.0  0.80937  0.62398  0.25775  1.0000
  S   S710      1.0  0.79923  0.52947  0.28587  1.0000
  C   C1723     1.0  0.75515  0.51796  0.27122  1.0000
  C   C1724     1.0  0.67876  0.59691  0.11667  1.0000
  C   C1725     1.0  0.68649  0.60766  0.09954  1.0000
  C   C1726     1.0  0.70483  0.60116  0.09003  1.0000
  C   C1727     1.0  0.71580  0.58426  0.09793  1.0000
  C   C1728     1.0  0.70830  0.57377  0.11537  1.0000
  C   C1729     1.0  0.68967  0.57990  0.12451  1.0000
  H   H2714     1.0  0.67821  0.62080  0.09336  1.0000
  H   H2715     1.0  0.71057  0.60933  0.07655  1.0000
  H   H2716     1.0  0.71666  0.56070  0.12157  1.0000
  H   H2717     1.0  0.68375  0.57154  0.13777  1.0000
  H   H2718     1.0  0.91646  0.55534  0.13237  1.0000
  C   C1730     1.0  0.91562  0.58609  0.09011  1.0000
  C   C1731     1.0  0.90436  0.60205  0.09676  1.0000
  C   C1732     1.0  0.89755  0.60124  0.11620  1.0000
  C   C1733     1.0  0.90199  0.58443  0.12908  1.0000
  C   C1734     1.0  0.91308  0.56838  0.12242  1.0000
  C   C1735     1.0  0.91990  0.56920  0.10297  1.0000
  H   H2719     1.0  0.90104  0.61515  0.08685  1.0000
  H   H2720     1.0  0.88907  0.61368  0.12122  1.0000
  H   H2721     1.0  0.92852  0.55684  0.09793  1.0000
  S   S711      1.0  0.97214  0.55125  0.04966  1.0000
  H   H2722     1.0  0.90306  0.56301  0.05544  1.0000
  H   H2723     1.0  0.85865  0.54743  0.08127  1.0000
  C   C1736     1.0  0.81287  0.63538  0.24536  1.0000
  C   C1737     1.0  0.80489  0.50572  0.07079  1.0000
  H   H2724     1.0  0.71797  0.72923  0.28772  1.0000
  H   H2725     1.0  0.79887  0.52017  0.07192  1.0000
  C   C1738     1.0  0.98413  0.50584  0.13012  1.0000
  H   H2726     1.0  0.89894  0.56980  0.28144  1.0000
  C   C1739     1.0  0.80133  0.55551  0.34322  1.0000
  C   C1740     1.0  0.67630  0.70708  0.21701  1.0000
  C   C1741     1.0  0.88605  0.65107  0.38679  1.0000
  S   S712      1.0  0.66615  0.64425  0.28436  1.0000
  C   C1742     1.0  0.78838  0.53224  0.36866  1.0000
  C   C1743     1.0  0.89707  0.58487  0.27406  1.0000
  Fe  Fe356     1.0  0.75865  0.72340  0.15424  1.0000
  C   C1744     1.0  0.80654  0.70445  0.16128  1.0000
  H   H2727     1.0  0.72177  0.62764  0.22926  1.0000
  N   N166      1.0  0.80657  0.65413  0.25033  1.0000
  C   C1745     1.0  0.75808  0.65053  0.21491  1.0000
  H   H2728     1.0  0.88981  0.56754  0.03758  1.0000
  H   H2729     1.0  0.67247  0.53253  0.33733  1.0000
  H   H2730     1.0  0.76942  0.49694  0.08028  1.0000
  H   H2731     1.0  0.85736  0.59691  0.05506  1.0000
  H   H2732     1.0  0.68307  0.68505  0.12933  1.0000
  C   C1746     1.0  0.98547  0.53290  0.14099  1.0000
  H   H2733     1.0  0.95713  0.53020  0.11363  1.0000
  H   H2734     1.0  0.98035  0.50066  0.11930  1.0000
  C   C1747     1.0  0.73002  0.48996  0.34180  1.0000
  H   H2735     1.0  0.76354  0.50980  0.09870  1.0000
  H   H2736     1.0  0.76918  0.56003  0.22906  1.0000
  H   H2737     1.0  0.78995  0.49702  0.26375  1.0000
  H   H2738     1.0  0.82382  0.67976  0.17498  1.0000
  H   H2739     1.0  0.76510  0.52609  0.26069  1.0000
  H   H2740     1.0  0.81208  0.71857  0.39075  1.0000
  C   C1748     1.0  0.71905  0.68779  0.34517  1.0000
  H   H2741     1.0  0.84338  0.58027  0.06931  1.0000
  H   H2742     1.0  0.75100  0.66271  0.22182  1.0000
  H   H2743     1.0  0.88338  0.65102  0.42313  1.0000
  C   C1749     1.0  0.90327  0.61923  0.39487  1.0000
  H   H2744     1.0  0.79204  0.53781  0.37929  1.0000
  N   N167      1.0  0.87321  0.56957  0.06539  1.0000
  H   H2745     1.0  0.81108  0.55820  0.32928  1.0000
  H   H2746     1.0  0.91437  0.59701  0.29419  1.0000
  H   H2747     1.0  0.73143  0.52556  0.05568  1.0000
  N   N168      1.0  0.80403  0.67072  0.12422  1.0000
  C   C1750     1.0  0.82285  0.67546  0.11801  1.0000
  C   C1751     1.0  0.80344  0.65587  0.11493  1.0000
  C   C1752     1.0  0.78970  0.68776  0.11919  1.0000
  C   C1753     1.0  0.80015  0.66375  0.14486  1.0000
  H   H2748     1.0  0.82633  0.68072  0.10248  1.0000
  H   H2749     1.0  0.83406  0.66303  0.12178  1.0000
  H   H2750     1.0  0.82368  0.68664  0.12480  1.0000
  H   H2751     1.0  0.78934  0.65208  0.11930  1.0000
  H   H2752     1.0  0.80646  0.66047  0.09929  1.0000
  H   H2753     1.0  0.81391  0.64272  0.11873  1.0000
  H   H2754     1.0  0.77532  0.68474  0.12369  1.0000
  H   H2755     1.0  0.79219  0.69344  0.10369  1.0000
  H   H2756     1.0  0.78975  0.69922  0.12606  1.0000
  H   H2757     1.0  0.78665  0.65878  0.14994  1.0000
  H   H2758     1.0  0.79927  0.67485  0.15246  1.0000
  H   H2759     1.0  0.81150  0.65181  0.14919  1.0000
  S   S713      1.0  0.92850  0.69838  0.39105  1.0000
  C   C1754     1.0  0.65826  0.72068  0.07035  1.0000
  H   H2760     1.0  0.74434  0.61774  0.20087  1.0000
  Fe  Fe357     1.0  0.77231  0.54824  0.29653  1.0000
  S   S714      1.0  0.68800  0.67986  0.26960  1.0000
  H   H2761     1.0  0.77508  0.71937  0.38060  1.0000
  H   H2762     1.0  0.78703  0.56355  0.34136  1.0000
  H   H2763     1.0  0.90241  0.62024  0.26790  1.0000
  H   H2764     1.0  0.91141  0.61973  0.38006  1.0000
  S   S715      1.0  0.65680  0.72952  0.27520  1.0000
  H   H2765     1.0  0.74157  0.62344  0.23997  1.0000
  H   H2766     1.0  0.69546  0.71427  0.28076  1.0000
  H   H2767     1.0  0.87256  0.64662  0.38874  1.0000
  H   H2768     1.0  0.89007  0.58655  0.26217  1.0000
  H   H2769     1.0  0.72062  0.52079  0.09856  1.0000
  H   H2770     1.0  0.77373  0.53950  0.36726  1.0000
  C   C1755     1.0  0.75745  0.50494  0.08926  1.0000
  H   H2771     1.0  0.68530  0.67810  0.35885  1.0000
  H   H2772     1.0  0.89061  0.61361  0.39613  1.0000
  H   H2773     1.0  0.71831  0.51976  0.33904  1.0000
  C   C1756     1.0  0.81257  0.66858  0.23376  1.0000
  Fe  Fe358     1.0  0.73317  0.70806  0.18982  1.0000
  H   H2774     1.0  0.79585  0.51247  0.34169  1.0000
  N   N169      1.0  0.83921  0.55122  0.18219  1.0000
  C   C1757     1.0  0.84366  0.53224  0.19409  1.0000
  C   C1758     1.0  0.85688  0.55766  0.17240  1.0000
  C   C1759     1.0  0.82729  0.56443  0.19422  1.0000
  C   C1760     1.0  0.82903  0.55048  0.16812  1.0000
  H   H2775     1.0  0.85278  0.52192  0.18554  1.0000
  H   H2776     1.0  0.83068  0.52686  0.20155  1.0000
  H   H2777     1.0  0.85102  0.53238  0.20511  1.0000
  H   H2778     1.0  0.85420  0.57188  0.16321  1.0000
  H   H2779     1.0  0.86489  0.55855  0.18257  1.0000
  H   H2780     1.0  0.86629  0.54804  0.16323  1.0000
  H   H2781     1.0  0.81373  0.56014  0.20160  1.0000
  H   H2782     1.0  0.82386  0.57896  0.18578  1.0000
  H   H2783     1.0  0.83433  0.56512  0.20526  1.0000
  H   H2784     1.0  0.82506  0.56461  0.15921  1.0000
  H   H2785     1.0  0.81574  0.54549  0.17501  1.0000
  H   H2786     1.0  0.83765  0.54090  0.15855  1.0000
  N   N170      1.0  0.71649  0.61316  0.14739  1.0000
  C   C1761     1.0  0.71373  0.62054  0.12780  1.0000
  C   C1762     1.0  0.71554  0.59300  0.15300  1.0000
  C   C1763     1.0  0.70159  0.62375  0.16018  1.0000
  C   C1764     1.0  0.73503  0.61536  0.14861  1.0000
  H   H2787     1.0  0.71441  0.63570  0.12301  1.0000
  H   H2788     1.0  0.69980  0.61926  0.12644  1.0000
  H   H2789     1.0  0.72461  0.61275  0.11773  1.0000
  H   H2790     1.0  0.71779  0.58682  0.16763  1.0000
  H   H2791     1.0  0.70166  0.59089  0.15238  1.0000
  H   H2792     1.0  0.72648  0.58458  0.14357  1.0000
  H   H2793     1.0  0.68744  0.62187  0.16012  1.0000
  H   H2794     1.0  0.70144  0.63913  0.15590  1.0000
  H   H2795     1.0  0.70358  0.61894  0.17499  1.0000
  H   H2796     1.0  0.73809  0.60892  0.16291  1.0000
  H   H2797     1.0  0.73586  0.63045  0.14536  1.0000
  H   H2798     1.0  0.74654  0.60851  0.13839  1.0000
  N   N171      1.0  0.70470  0.68924  0.33439  1.0000
  C   C1765     1.0  0.69295  0.70850  0.33227  1.0000
  C   C1766     1.0  0.69270  0.67548  0.34458  1.0000
  H   H2799     1.0  0.68953  0.72302  0.07937  1.0000
  C   C1767     1.0  0.71408  0.68516  0.31554  1.0000
  H   H2800     1.0  0.67361  0.69816  0.23139  1.0000
  H   H2801     1.0  0.70161  0.71930  0.32512  1.0000
  H   H2802     1.0  0.85434  0.70742  0.29297  1.0000
  H   H2803     1.0  0.70112  0.66078  0.34637  1.0000
  C   C1768     1.0  0.73977  0.51385  0.06459  1.0000
  Fe  Fe359     1.0  0.66045  0.69808  0.27955  1.0000
  S   S716      1.0  0.68868  0.68097  0.09099  1.0000
  H   H2804     1.0  0.91186  0.65956  0.40022  1.0000
  H   H2805     1.0  0.82829  0.63204  0.24009  1.0000
  C   C1769     1.0  0.69790  0.67993  0.12424  1.0000
  H   H2806     1.0  0.70548  0.67920  0.15022  1.0000
  C   C1770     1.0  0.74643  0.48772  0.28375  1.0000
  N   N172      1.0  0.66996  0.72733  0.21740  1.0000
  C   C1771     1.0  0.71059  0.67664  0.13605  1.0000
  C   C1772     1.0  0.82365  0.69190  0.16356  1.0000
  C   C1773     1.0  0.70447  0.67703  0.10576  1.0000
  H   H2807     1.0  0.74965  0.57026  0.20480  1.0000
  S   S717      1.0  0.74559  0.66561  0.14436  1.0000
  C   C1774     1.0  0.72975  0.66984  0.12959  1.0000
  C   C1775     1.0  0.75844  0.53448  0.06680  1.0000
  C   C1776     1.0  0.87477  0.57495  0.08243  1.0000
  C   C1777     1.0  0.74485  0.70393  0.23149  1.0000
  H   H2808     1.0  0.72178  0.54288  0.08198  1.0000
  H   H2809     1.0  0.88386  0.54006  0.07507  1.0000
  N   N173      1.0  0.91511  0.59117  0.26741  1.0000
  Fe  Fe360     1.0  0.96549  0.52244  0.05986  1.0000
  H   H2810     1.0  0.88083  0.50420  0.03638  1.0000
  C   C1778     1.0  0.72367  0.67046  0.09924  1.0000
  H   H2811     1.0  0.72874  0.66810  0.08499  1.0000
  H   H2812     1.0  0.76409  0.61490  0.21133  1.0000
  S   S718      1.0  0.96526  0.51815  0.03149  1.0000
  H   H2813     1.0  0.72535  0.64584  0.23838  1.0000
  H   H2814     1.0  0.76399  0.53981  0.07627  1.0000
  C   C1779     1.0  0.73626  0.66651  0.11128  1.0000
  C   C1780     1.0  0.78592  0.65830  0.25625  1.0000
  Fe  Fe361     1.0  0.76305  0.72152  0.32647  1.0000
  H   H2815     1.0  0.85883  0.73013  0.24237  1.0000
  N   N174      1.0  0.74645  0.52092  0.07772  1.0000
  C   C1781     1.0  0.73014  0.53046  0.09018  1.0000
  H   H2816     1.0  0.75106  0.66127  0.10625  1.0000
  H   H2817     1.0  0.85308  0.71445  0.12749  1.0000
  H   H2818     1.0  0.72834  0.69800  0.33796  1.0000
  H   H2819     1.0  0.80605  0.51107  0.04081  1.0000
  H   H2820     1.0  0.87019  0.54517  0.05748  1.0000
  H   H2821     1.0  0.95811  0.55043  0.12152  1.0000
  H   H2822     1.0  0.78103  0.64713  0.26818  1.0000
  H   H2823     1.0  0.72825  0.67347  0.34697  1.0000
  Fe  Fe362     1.0  0.74052  0.69198  0.15502  1.0000
  Fe  Fe363     1.0  0.67995  0.65979  0.29676  1.0000
  H   H2824     1.0  0.93057  0.56461  0.26053  1.0000
  S   S719      1.0  0.74847  0.53877  0.31940  1.0000
  C   C1782     1.0  0.76165  0.70855  0.22018  1.0000
  H   H2825     1.0  0.81090  0.64335  0.27874  1.0000
  H   H2826     1.0  0.68227  0.71025  0.32375  1.0000
  N   N175      1.0  0.74423  0.64124  0.21223  1.0000
  S   S720      1.0  0.98384  0.69849  0.38907  1.0000
  H   H2827     1.0  0.98312  0.54854  0.13834  1.0000
  H   H2828     1.0  0.75542  0.51966  0.28544  1.0000
  H   H2829     1.0  0.86984  0.71228  0.25966  1.0000
  C   C1783     1.0  0.87135  0.54969  0.07006  1.0000
  S   S721      1.0  0.68407  0.65752  0.22987  1.0000
  H   H2830     1.0  0.92363  0.64596  0.38252  1.0000
  N   N176      1.0  0.80169  0.53515  0.35031  1.0000
  S   S722      1.0  0.75946  0.69443  0.17228  1.0000
  H   H2831     1.0  0.87439  0.63171  0.42155  1.0000
  H   H2832     1.0  0.66739  0.65731  0.17104  1.0000
  C   C1784     1.0  0.85651  0.58179  0.05849  1.0000
  C   C1785     1.0  0.96101  0.53473  0.12486  1.0000
  C   C1786     1.0  0.73180  0.65496  0.20038  1.0000
  H   H2833     1.0  0.77747  0.50489  0.31649  1.0000
  H   H2834     1.0  0.78183  0.53522  0.33424  1.0000
  H   H2835     1.0  0.88725  0.59316  0.28426  1.0000
  C   C1787     1.0  0.85605  0.71995  0.25599  1.0000
  C   C1788     1.0  0.81483  0.65428  0.26606  1.0000
  N   N177      1.0  0.89801  0.63810  0.39955  1.0000
  H   H2836     1.0  0.80841  0.68284  0.23717  1.0000
  H   H2837     1.0  0.87672  0.58973  0.07926  1.0000
  S   S723      1.0  0.71407  0.70281  0.17424  1.0000
  C   C1789     1.0  0.67492  0.65752  0.19684  1.0000
  S   S724      1.0  0.75915  0.70162  0.35458  1.0000
  C   C1790     1.0  0.91522  0.64516  0.39719  1.0000
  H   H2838     1.0  0.88257  0.66572  0.38915  1.0000
  C   C1791     1.0  0.74795  0.51462  0.32682  1.0000
  C   C1792     1.0  0.91174  0.61130  0.25800  1.0000
  C   C1793     1.0  0.77165  0.70997  0.24802  1.0000
  H   H2839     1.0  0.76705  0.65584  0.20119  1.0000
  C   C1794     1.0  0.82298  0.72389  0.13441  1.0000
  C   C1795     1.0  0.84077  0.71533  0.28893  1.0000
  C   C1796     1.0  0.75428  0.62531  0.20287  1.0000
  H   H2840     1.0  0.89321  0.65150  0.37177  1.0000
  H   H2841     1.0  0.86196  0.57382  0.09379  1.0000
  H   H2842     1.0  0.72102  0.64850  0.19826  1.0000
  C   C1797     1.0  0.73278  0.63420  0.23077  1.0000
  H   H2843     1.0  0.66456  0.54928  0.36407  1.0000
  H   H2844     1.0  0.77068  0.52795  0.05691  1.0000
  S   S725      1.0  0.97891  0.49868  0.08043  1.0000
  H   H2845     1.0  0.94161  0.58425  0.24856  1.0000
  C   C1798     1.0  0.92370  0.58864  0.28375  1.0000
  C   C1799     1.0  0.89024  0.57185  0.05055  1.0000
  H   H2846     1.0  0.79377  0.70201  0.17118  1.0000
  H   H2847     1.0  0.68938  0.65058  0.19267  1.0000
  S   S726      1.0  0.95108  0.71891  0.42044  1.0000
  H   H2848     1.0  0.92507  0.61651  0.25255  1.0000
  C   C1800     1.0  0.73090  0.50914  0.33622  1.0000
  C   C1801     1.0  0.79611  0.52772  0.33668  1.0000
  H   H2849     1.0  0.93738  0.59320  0.27936  1.0000
  H   H2850     1.0  0.92612  0.57366  0.29141  1.0000
  H   H2851     1.0  0.80627  0.66918  0.22171  1.0000
  H   H2852     1.0  0.92162  0.58156  0.24144  1.0000
  H   H2853     1.0  0.83360  0.70468  0.28756  1.0000
  H   H2854     1.0  0.77911  0.65929  0.24447  1.0000
  Fe  Fe364     1.0  0.98261  0.71015  0.41434  1.0000
  Fe  Fe365     1.0  0.97002  0.54784  0.02138  1.0000
  H   H2855     1.0  0.77978  0.49041  0.28829  1.0000
  H   H2856     1.0  0.95141  0.53023  0.13844  1.0000
  H   H2857     1.0  0.80616  0.63449  0.23415  1.0000
  H   H2858     1.0  0.74566  0.48905  0.29837  1.0000
  H   H2859     1.0  0.84954  0.70929  0.25360  1.0000
  C   C1802     1.0  0.89454  0.49649  0.03068  1.0000
  C   C1803     1.0  0.74158  0.70208  0.25105  1.0000
  C   C1804     1.0  0.80611  0.72019  0.14638  1.0000
  C   C1805     1.0  0.82090  0.52514  0.35263  1.0000
  C   C1806     1.0  0.76422  0.50084  0.32340  1.0000
  H   H2860     1.0  0.81026  0.66823  0.27023  1.0000
  H   H2861     1.0  0.73072  0.50353  0.07236  1.0000
  N   N178      1.0  0.76024  0.49792  0.26989  1.0000
  H   H2862     1.0  0.78833  0.51701  0.37444  1.0000
  C   C1807     1.0  0.66858  0.66267  0.21446  1.0000
  C   C1808     1.0  0.77807  0.73260  0.38208  1.0000
  H   H2863     1.0  0.93882  0.49088  0.08303  1.0000
  H   H2864     1.0  0.77070  0.50387  0.23987  1.0000
  H   H2865     1.0  0.73472  0.53588  0.10029  1.0000
  H   H2866     1.0  0.82813  0.66561  0.22881  1.0000
  H   H2867     1.0  0.83032  0.65144  0.26199  1.0000
  C   C1809     1.0  0.88750  0.63694  0.41928  1.0000
  H   H2868     1.0  0.76428  0.71002  0.20504  1.0000
  C   C1810     1.0  0.80835  0.49210  0.08693  1.0000
  H   H2869     1.0  0.69165  0.70335  0.21141  1.0000
  H   H2870     1.0  0.92449  0.63587  0.40676  1.0000
  C   C1811     1.0  0.75492  0.70515  0.25928  1.0000
  H   H2871     1.0  0.75241  0.70327  0.27439  1.0000
  C   C1812     1.0  0.76022  0.49650  0.25061  1.0000
  H   H2872     1.0  0.75045  0.54705  0.05841  1.0000
  H   H2873     1.0  0.91517  0.48711  0.08867  1.0000
  C   C1813     1.0  0.92835  0.49298  0.02210  1.0000
  H   H2874     1.0  0.82565  0.53044  0.36273  1.0000
  H   H2875     1.0  0.77778  0.73137  0.39725  1.0000
  H   H2876     1.0  0.91216  0.60896  0.40430  1.0000
  Fe  Fe366     1.0  0.71663  0.73125  0.15582  1.0000
  H   H2877     1.0  0.89609  0.62726  0.42933  1.0000
  H   H2878     1.0  0.94083  0.49806  0.02095  1.0000
  H   H2879     1.0  0.78077  0.67179  0.26115  1.0000
  Fe  Fe367     1.0  0.77654  0.72642  0.28392  1.0000
  C   C1814     1.0  0.81160  0.72031  0.37568  1.0000
  S   S727      1.0  0.66472  0.65017  0.13504  1.0000
  H   H2880     1.0  0.80609  0.52934  0.32280  1.0000
  S   S728      1.0  0.78866  0.71355  0.25821  1.0000
  H   H2881     1.0  0.72321  0.67079  0.31665  1.0000
  H   H2882     1.0  0.82176  0.50972  0.35784  1.0000
  C   C1815     1.0  0.91067  0.50301  0.02947  1.0000
  C   C1816     1.0  0.77508  0.71143  0.22846  1.0000
  S   S729      1.0  0.74180  0.71987  0.13518  1.0000
  H   H2883     1.0  0.80978  0.70673  0.37384  1.0000
  H   H2884     1.0  0.68528  0.71188  0.34620  1.0000
  S   S730      1.0  0.74960  0.72111  0.30344  1.0000
  S   S731      1.0  0.80156  0.49755  0.10963  1.0000
  H   H2885     1.0  0.68184  0.67604  0.33671  1.0000
  H   H2886     1.0  0.67262  0.71801  0.10073  1.0000
  H   H2887     1.0  0.79326  0.72427  0.34810  1.0000
  H   H2888     1.0  0.98370  0.73438  0.44070  1.0000
  S   S732      1.0  0.79099  0.72373  0.30734  1.0000
  Fe  Fe368     1.0  0.98613  0.72771  0.37279  1.0000
  C   C1817     1.0  0.69127  0.72866  0.28264  1.0000
  H   H2889     1.0  0.83125  0.52711  0.33897  1.0000
  H   H2890     1.0  0.78805  0.71502  0.21965  1.0000
  H   H2891     1.0  0.74868  0.49482  0.09834  1.0000
  N   N179      1.0  0.98092  0.52665  0.12591  1.0000
  H   H2892     1.0  0.75178  0.50663  0.05495  1.0000
  H   H2893     1.0  0.92687  0.49313  0.06451  1.0000
  H   H2894     1.0  0.97569  0.50032  0.14409  1.0000
  H   H2895     1.0  0.68195  0.72261  0.24168  1.0000
  H   H2896     1.0  0.81817  0.72867  0.26411  1.0000
  C   C1818     1.0  0.68134  0.73251  0.22783  1.0000
  H   H2897     1.0  0.69609  0.73192  0.21990  1.0000
  H   H2898     1.0  0.82557  0.72261  0.36701  1.0000
  H   H2899     1.0  0.66907  0.70288  0.20809  1.0000
  H   H2900     1.0  0.67141  0.71462  0.06110  1.0000
  C   C1819     1.0  0.66251  0.66130  0.18459  1.0000
  H   H2901     1.0  0.73204  0.49329  0.28085  1.0000
  C   C1820     1.0  0.67611  0.72923  0.08816  1.0000
  H   H2902     1.0  0.83205  0.72206  0.30080  1.0000
  N   N180      1.0  0.84379  0.72945  0.27114  1.0000
  H   H2903     1.0  0.66410  0.73488  0.18947  1.0000
  H   H2904     1.0  0.98922  0.52963  0.09583  1.0000
  S   S733      1.0  0.78476  0.73515  0.14200  1.0000
  H   H2905     1.0  0.71679  0.48582  0.34885  1.0000
  C   C1821     1.0  0.65732  0.53222  0.33984  1.0000
  C   C1822     1.0  0.65732  0.51480  0.37178  1.0000
  H   H2906     1.0  0.80850  0.48615  0.95101  1.0000
  H   H2907     1.0  0.80839  0.48718  0.97471  1.0000
  Fe  Fe369     1.0  0.78063  0.75495  0.30493  1.0000
  H   H2908     1.0  0.87095  0.91222  0.43181  1.0000
  S   S734      1.0  0.80364  0.76874  0.30639  1.0000
  S   S735      1.0  0.73358  0.73745  0.17324  1.0000
  H   H2909     1.0  0.91030  0.76872  0.36132  1.0000
  C   C1823     1.0  0.97395  0.91817  0.27761  1.0000
  C   C1824     1.0  0.82554  0.73897  0.26584  1.0000
  C   C1825     1.0  0.71033  0.77242  0.24023  1.0000
  C   C1826     1.0  0.66812  0.75780  0.28263  1.0000
  H   H2910     1.0  0.84353  0.80009  0.47440  1.0000
  S   S736      1.0  0.76872  0.75787  0.27945  1.0000
  C   C1827     1.0  0.74024  0.75469  0.24720  1.0000
  C   C1828     1.0  0.84246  0.87549  0.42882  1.0000
  S   S737      1.0  0.81094  0.87576  0.41612  1.0000
  H   H2911     1.0  0.94018  0.96874  0.47861  1.0000
  H   H2912     1.0  0.67790  0.81741  0.11874  1.0000
  S   S738      1.0  0.79460  0.82047  0.36494  1.0000
  H   H2913     1.0  0.67643  0.78063  0.28844  1.0000
  H   H2914     1.0  0.67924  0.74653  0.05175  1.0000
  H   H2915     1.0  0.80824  0.85361  0.45816  1.0000
  S   S739      1.0  0.68919  0.75046  0.15009  1.0000
  H   H2916     1.0  0.97416  0.95524  0.24016  1.0000
  S   S740      1.0  0.81377  0.82589  0.40605  1.0000
  C   C1829     1.0  0.87830  0.78275  0.42078  1.0000
  S   S741      1.0  0.84748  0.81236  0.37099  1.0000
  C   C1830     1.0  0.73888  0.78294  0.22290  1.0000
  Fe  Fe370     1.0  0.85432  0.84085  0.36628  1.0000
  S   S742      1.0  0.87890  0.85081  0.34522  1.0000
  H   H2917     1.0  0.67877  0.83749  0.06803  1.0000
  Fe  Fe371     1.0  0.91300  0.93619  0.35184  1.0000
  S   S743      1.0  0.93731  0.94056  0.36123  1.0000
  S   S744      1.0  0.89099  0.92026  0.36994  1.0000
  Fe  Fe372     1.0  0.91997  0.96284  0.31385  1.0000
  S   S745      1.0  0.94474  0.96961  0.31991  1.0000
  H   H2918     1.0  0.83342  0.83933  0.43439  1.0000
  Fe  Fe373     1.0  0.95285  0.93849  0.33146  1.0000
  H   H2919     1.0  0.86653  0.73683  0.27801  1.0000
  Fe  Fe374     1.0  0.92723  0.97120  0.34885  1.0000
  S   S746      1.0  0.91269  0.97334  0.28503  1.0000
  S   S747      1.0  0.92917  0.93168  0.32328  1.0000
  H   H2920     1.0  0.82004  0.80343  0.45502  1.0000
  H   H2921     1.0  0.81608  0.74664  0.27674  1.0000
  C   C1831     1.0  0.69865  0.75588  0.28897  1.0000
  S   S748      1.0  0.68161  0.79484  0.06713  1.0000
  C   C1832     1.0  0.93503  0.79222  0.34705  1.0000
  C   C1833     1.0  0.90612  0.79538  0.41577  1.0000
  H   H2922     1.0  0.98818  0.91710  0.28008  1.0000
  C   C1834     1.0  0.67232  0.73852  0.19788  1.0000
  H   H2923     1.0  0.86335  0.93215  0.28687  1.0000
  H   H2924     1.0  0.92146  0.97413  0.43579  1.0000
  C   C1835     1.0  0.66026  0.85390  0.10862  1.0000
  H   H2925     1.0  0.76626  0.74423  0.37812  1.0000
  H   H2926     1.0  0.85042  0.86653  0.41907  1.0000
  Fe  Fe375     1.0  0.74219  0.75233  0.30015  1.0000
  S   S749      1.0  0.85406  0.78622  0.42244  1.0000
  S   S750      1.0  0.71397  0.76763  0.29347  1.0000
  C   C1836     1.0  0.86635  0.93640  0.32993  1.0000
  H   H2927     1.0  0.82977  0.93854  0.33213  1.0000
  C   C1837     1.0  0.83840  0.94170  0.31763  1.0000
  H   H2928     1.0  0.92205  0.80634  0.37804  1.0000
  H   H2929     1.0  0.87802  0.81192  0.41885  1.0000
  H   H2930     1.0  0.85241  0.90629  0.31219  1.0000
  H   H2931     1.0  0.97492  0.90698  0.27001  1.0000
  H   H2932     1.0  0.85329  0.96693  0.39912  1.0000
  H   H2933     1.0  0.85063  0.90654  0.33644  1.0000
  H   H2934     1.0  0.88481  0.92006  0.40916  1.0000
  H   H2935     1.0  0.66215  0.85895  0.07132  1.0000
  H   H2936     1.0  0.91249  0.80730  0.41372  1.0000
  H   H2937     1.0  0.85648  0.92700  0.39504  1.0000
  H   H2938     1.0  0.83750  0.95723  0.31354  1.0000
  H   H2939     1.0  0.80050  0.75319  0.38693  1.0000
  H   H2940     1.0  0.90675  0.81730  0.33275  1.0000
  H   H2941     1.0  0.84373  0.75110  0.28507  1.0000
  N   N181      1.0  0.91509  0.79677  0.35664  1.0000
  H   H2942     1.0  0.83170  0.93807  0.30785  1.0000
  H   H2943     1.0  0.80190  0.81331  0.47290  1.0000
  H   H2944     1.0  0.75549  0.74977  0.24166  1.0000
  H   H2945     1.0  0.88406  0.92888  0.29604  1.0000
  H   H2946     1.0  0.89512  0.78254  0.37788  1.0000
  S   S751      1.0  0.86908  0.93695  0.47466  1.0000
  H   H2947     1.0  0.78477  0.74927  0.34535  1.0000
  H   H2948     1.0  0.91575  0.82467  0.35854  1.0000
  H   H2949     1.0  0.90456  0.79375  0.33381  1.0000
  S   S752      1.0  0.98225  0.92390  0.31929  1.0000
  H   H2950     1.0  0.66770  0.75390  0.19752  1.0000
  H   H2951     1.0  0.81280  0.75737  0.36272  1.0000
  H   H2952     1.0  0.93749  0.78125  0.33868  1.0000
  S   S753      1.0  0.95515  0.73865  0.37500  1.0000
  C   C1838     1.0  0.88260  0.87014  0.35174  1.0000
  C   C1839     1.0  0.86895  0.87874  0.36524  1.0000
  C   C1840     1.0  0.87188  0.89386  0.37090  1.0000
  C   C1841     1.0  0.88833  0.90080  0.36282  1.0000
  C   C1842     1.0  0.90190  0.89249  0.34901  1.0000
  C   C1843     1.0  0.89906  0.87710  0.34351  1.0000
  H   H2953     1.0  0.85597  0.87390  0.37129  1.0000
  H   H2954     1.0  0.86126  0.90017  0.38154  1.0000
  H   H2955     1.0  0.91475  0.89760  0.34288  1.0000
  H   H2956     1.0  0.90968  0.87050  0.33305  1.0000
  H   H2957     1.0  0.75409  0.77875  0.21664  1.0000
  H   H2958     1.0  0.70247  0.78143  0.22929  1.0000
  Fe  Fe376     1.0  0.95578  0.74649  0.40156  1.0000
  C   C1844     1.0  0.85142  0.87966  0.44102  1.0000
  C   C1845     1.0  0.84673  0.94546  0.43400  1.0000
  H   H2959     1.0  0.94758  0.92756  0.25657  1.0000
  H   H2960     1.0  0.76779  0.80807  0.35273  1.0000
  N   N182      1.0  0.85882  0.93937  0.41681  1.0000
  C   C1846     1.0  0.68724  0.76143  0.12664  1.0000
  C   C1847     1.0  0.66937  0.76991  0.12265  1.0000
  C   C1848     1.0  0.66740  0.77956  0.10428  1.0000
  C   C1849     1.0  0.68334  0.78107  0.08984  1.0000
  C   C1850     1.0  0.70118  0.77242  0.09378  1.0000
  C   C1851     1.0  0.70313  0.76251  0.11209  1.0000
  H   H2961     1.0  0.73420  0.74205  0.25447  1.0000
  H   H2962     1.0  0.94340  0.96764  0.38543  1.0000
  H   H2963     1.0  0.71358  0.77358  0.08269  1.0000
  H   H2964     1.0  0.71697  0.75610  0.11502  1.0000
  C   C1852     1.0  0.85861  0.91077  0.32180  1.0000
  C   C1853     1.0  0.68070  0.76613  0.28682  1.0000
  H   H2965     1.0  0.80513  0.82597  0.44879  1.0000
  H   H2966     1.0  0.67545  0.74693  0.23067  1.0000
  H   H2967     1.0  0.88803  0.80784  0.34936  1.0000
  C   C1854     1.0  0.90312  0.80418  0.34248  1.0000
  C   C1855     1.0  0.86902  0.93611  0.29723  1.0000
  H   H2968     1.0  0.94645  0.96929  0.45366  1.0000
  C   C1856     1.0  0.80091  0.78309  0.32277  1.0000
  C   C1857     1.0  0.81695  0.78697  0.32599  1.0000
  C   C1858     1.0  0.81533  0.79825  0.33894  1.0000
  C   C1859     1.0  0.79759  0.80598  0.34863  1.0000
  C   C1860     1.0  0.78157  0.80208  0.34539  1.0000
  C   C1861     1.0  0.78320  0.79060  0.33265  1.0000
  H   H2969     1.0  0.83071  0.78131  0.31839  1.0000
  H   H2970     1.0  0.82776  0.80119  0.34123  1.0000
  C   C1862     1.0  0.85279  0.74356  0.27382  1.0000
  H   H2971     1.0  0.77071  0.78789  0.33023  1.0000
  C   C1863     1.0  0.94319  0.98113  0.38816  1.0000
  H   H2972     1.0  0.90505  0.94668  0.47080  1.0000
  H   H2973     1.0  0.93771  0.93541  0.27846  1.0000
  H   H2974     1.0  0.83402  0.95621  0.43088  1.0000
  C   C1864     1.0  0.79955  0.75386  0.37221  1.0000
  C   C1865     1.0  0.67322  0.73902  0.28074  1.0000
  H   H2975     1.0  0.89789  0.81439  0.37583  1.0000
  C   C1866     1.0  0.90918  0.76214  0.41763  1.0000
  S   S754      1.0  0.75316  0.75255  0.32532  1.0000
  C   C1867     1.0  0.66583  0.75145  0.06132  1.0000
  H   H2976     1.0  0.87327  0.90248  0.32113  1.0000
  C   C1868     1.0  0.84147  0.89155  0.45361  1.0000
  Fe  Fe377     1.0  0.82400  0.85299  0.39877  1.0000
  H   H2977     1.0  0.98023  0.93051  0.23990  1.0000
  C   C1869     1.0  0.90965  0.77951  0.36931  1.0000
  H   H2978     1.0  0.87462  0.95158  0.39016  1.0000
  H   H2979     1.0  0.86857  0.95151  0.29273  1.0000
  C   C1870     1.0  0.81587  0.84410  0.46913  1.0000
  H   H2980     1.0  0.93965  0.80490  0.33735  1.0000
  H   H2981     1.0  0.82567  0.85189  0.47115  1.0000
  N   N183      1.0  0.79631  0.73604  0.37005  1.0000
  H   H2982     1.0  0.97306  0.90374  0.35822  1.0000
  N   N184      1.0  0.85809  0.93125  0.31665  1.0000
  H   H2983     1.0  0.94155  0.95231  0.25690  1.0000
  H   H2984     1.0  0.78795  0.76593  0.36867  1.0000
  C   C1871     1.0  0.82246  0.89944  0.45373  1.0000
  N   N185      1.0  0.96666  0.93713  0.26705  1.0000
  C   C1872     1.0  0.82326  0.88263  0.42951  1.0000
  H   H2985     1.0  0.88144  0.92939  0.32901  1.0000
  H   H2986     1.0  0.96476  0.91489  0.29183  1.0000
  C   C1873     1.0  0.88874  0.98237  0.28432  1.0000
  H   H2987     1.0  0.85071  0.83688  0.44792  1.0000
  Fe  Fe378     1.0  0.81741  0.82806  0.37479  1.0000
  H   H2988     1.0  0.69438  0.83143  0.10391  1.0000
  C   C1874     1.0  0.84793  0.93141  0.40822  1.0000
  S   S755      1.0  0.98693  0.73848  0.39754  1.0000
  S   S756      1.0  0.94189  0.77525  0.40743  1.0000
  H   H2989     1.0  0.95826  0.96916  0.41085  1.0000
  H   H2990     1.0  0.95992  0.96588  0.27054  1.0000
  H   H2991     1.0  0.88323  0.75283  0.42265  1.0000
  Fe  Fe379     1.0  0.84421  0.81204  0.40166  1.0000
  N   N186      1.0  0.73046  0.76626  0.23204  1.0000
  H   H2992     1.0  0.85898  0.93220  0.34483  1.0000
  S   S757      1.0  0.85342  0.89552  0.46916  1.0000
  H   H2993     1.0  0.68845  0.81425  0.09514  1.0000
  H   H2994     1.0  0.85436  0.95192  0.44059  1.0000
  C   C1875     1.0  0.73242  0.75497  0.21794  1.0000
  H   H2995     1.0  0.87345  0.96214  0.40942  1.0000
  N   N187      1.0  0.66701  0.83936  0.09702  1.0000
  H   H2996     1.0  0.86553  0.95182  0.32701  1.0000
  H   H2997     1.0  0.79852  0.90055  0.44240  1.0000
  H   H2998     1.0  0.72540  0.76329  0.20614  1.0000
  C   C1876     1.0  0.81338  0.89487  0.44181  1.0000
  C   C1877     1.0  0.86531  0.95574  0.40326  1.0000
  H   H2999     1.0  0.91783  0.74834  0.41677  1.0000
  H   H3000     1.0  0.88358  0.93031  0.42868  1.0000
  C   C1878     1.0  0.88957  0.76471  0.42086  1.0000
  C   C1879     1.0  0.91261  0.81115  0.36776  1.0000
  C   C1880     1.0  0.97926  0.94097  0.24839  1.0000
  C   C1881     1.0  0.91748  0.77755  0.41474  1.0000
  H   H3001     1.0  0.83519  0.94180  0.40467  1.0000
  H   H3002     1.0  0.97905  0.79162  0.40689  1.0000
  C   C1882     1.0  0.68261  0.82501  0.10405  1.0000
  Fe  Fe380     1.0  0.84549  0.96209  0.47533  1.0000
  H   H3003     1.0  0.80955  0.73980  0.34062  1.0000
  H   H3004     1.0  0.91927  0.77287  0.37927  1.0000
  C   C1883     1.0  0.95158  0.98201  0.40255  1.0000
  H   H3005     1.0  0.68541  0.85519  0.07557  1.0000
  C   C1884     1.0  0.94758  0.93808  0.26458  1.0000
  N   N188      1.0  0.82605  0.82612  0.46343  1.0000
  H   H3006     1.0  0.95662  0.94859  0.29189  1.0000
  H   H3007     1.0  0.67163  0.86095  0.10827  1.0000
  H   H3008     1.0  0.84326  0.91875  0.41790  1.0000
  H   H3009     1.0  0.84803  0.81672  0.44110  1.0000
  H   H3010     1.0  0.82733  0.74945  0.25229  1.0000
  C   C1885     1.0  0.91875  0.95033  0.46954  1.0000
  H   H3011     1.0  0.73185  0.79207  0.21137  1.0000
  H   H3012     1.0  0.72609  0.74234  0.22442  1.0000
  H   H3013     1.0  0.86619  0.87365  0.44068  1.0000
  H   H3014     1.0  0.73766  0.79169  0.23324  1.0000
  S   S758      1.0  0.82447  0.85691  0.36781  1.0000
  C   C1886     1.0  0.84021  0.82994  0.44594  1.0000
  C   C1887     1.0  0.67365  0.84818  0.07712  1.0000
  S   S759      1.0  0.90172  0.96687  0.34182  1.0000
  C   C1888     1.0  0.87527  0.92489  0.42182  1.0000
  C   C1889     1.0  0.81267  0.81677  0.45995  1.0000
  S   S760      1.0  0.85425  0.83870  0.39658  1.0000
  H   H3015     1.0  0.74746  0.74984  0.21170  1.0000
  C   C1890     1.0  0.88658  0.79803  0.41851  1.0000
  H   H3016     1.0  0.94437  0.78665  0.35747  1.0000
  H   H3017     1.0  0.84196  0.93336  0.44469  1.0000
  H   H3018     1.0  0.81462  0.90858  0.46339  1.0000
  H   H3019     1.0  0.97989  0.95114  0.28001  1.0000
  H   H3020     1.0  0.70840  0.78068  0.25121  1.0000
  N   N189      1.0  0.91703  0.97093  0.46588  1.0000
  H   H3021     1.0  0.70353  0.76015  0.24719  1.0000
  H   H3022     1.0  0.68727  0.73593  0.19032  1.0000
  H   H3023     1.0  0.73893  0.76277  0.25812  1.0000
  H   H3024     1.0  0.92906  0.94405  0.45808  1.0000
  H   H3025     1.0  0.98901  0.76756  0.41589  1.0000
  C   C1891     1.0  0.93539  0.97500  0.46506  1.0000
  C   C1892     1.0  0.96580  0.95137  0.27773  1.0000
  H   H3026     1.0  0.85537  0.75440  0.26067  1.0000
  C   C1893     1.0  0.98622  0.89612  0.35129  1.0000
  H   H3027     1.0  0.67882  0.74071  0.09325  1.0000
  H   H3028     1.0  0.66759  0.76354  0.06612  1.0000
  C   C1894     1.0  0.83557  0.81368  0.47847  1.0000
  N   N190      1.0  0.66087  0.73620  0.07746  1.0000
  H   H3029     1.0  0.87937  0.98021  0.31426  1.0000
  C   C1895     1.0  0.91119  0.97976  0.44768  1.0000
  H   H3030     1.0  0.89719  0.97729  0.44790  1.0000
  H   H3031     1.0  0.82280  0.73618  0.12302  1.0000
  C   C1896     1.0  0.70402  0.73714  0.28666  1.0000
  C   C1897     1.0  0.87516  0.98365  0.30092  1.0000
  H   H3032     1.0  0.98757  0.78528  0.42844  1.0000
  H   H3033     1.0  0.84578  0.82039  0.48136  1.0000
  C   C1898     1.0  0.90286  0.97864  0.48124  1.0000
  H   H3034     1.0  0.65830  0.96592  0.26572  1.0000
  H   H3035     1.0  0.65702  0.76911  0.13387  1.0000
  H   H3036     1.0  0.65678  0.97287  0.24132  1.0000
  C   C1899     1.0  0.79598  0.73738  0.35016  1.0000
  S   S761      1.0  0.92831  0.96983  0.60451  1.0000
  H   H3037     1.0  0.69973  0.89340  0.96375  1.0000
  C   C1900     1.0  0.67230  0.92348  0.95626  1.0000
  C   C1901     1.0  0.70242  0.90265  0.94949  1.0000
  H   H3038     1.0  0.68423  0.88815  0.93215  1.0000
  Fe  Fe381     1.0  0.86660  0.93635  0.50518  1.0000
  S   S762      1.0  0.89342  0.93331  0.51499  1.0000
  S   S763      1.0  0.84601  0.91709  0.51509  1.0000
  H   H3039     1.0  0.86413  0.96163  0.53151  1.0000
  H   H3040     1.0  0.82531  0.81036  0.49191  1.0000
  C   C1902     1.0  0.83670  0.96560  0.61561  1.0000
  H   H3041     1.0  0.70989  0.91326  0.95037  1.0000
  H   H3042     1.0  0.67586  0.93108  0.91852  1.0000
  C   C1903     1.0  0.98236  0.92720  0.60182  1.0000
  S   S764      1.0  0.84464  0.96278  0.50502  1.0000
  H   H3043     1.0  0.88340  0.96553  0.60514  1.0000
  H   H3044     1.0  0.90676  0.97218  0.49518  1.0000
  C   C1904     1.0  0.67523  0.89732  0.94198  1.0000
  H   H3045     1.0  0.86460  0.98341  0.55076  1.0000
  C   C1905     1.0  0.80093  0.96307  0.55100  1.0000
  H   H3046     1.0  0.96784  0.93335  0.60700  1.0000
  H   H3047     1.0  0.83552  0.97331  0.56552  1.0000
  S   S765      1.0  0.68070  0.96980  0.89728  1.0000
  H   H3048     1.0  0.98022  0.89913  0.61782  1.0000
  C   C1906     1.0  0.89362  0.97245  0.55253  1.0000
  H   H3049     1.0  0.83562  0.96386  0.60166  1.0000
  H   H3050     1.0  0.66882  0.91486  0.97075  1.0000
  Fe  Fe382     1.0  0.95580  0.97811  0.58809  1.0000
  H   H3051     1.0  0.71215  0.89376  0.93973  1.0000
  C   C1907     1.0  0.68889  0.92398  0.92399  1.0000
  C   C1908     1.0  0.87724  0.97332  0.54661  1.0000
  H   H3052     1.0  0.83718  0.95161  0.62538  1.0000
  H   H3053     1.0  0.69837  0.91580  0.91350  1.0000
  Fe  Fe383     1.0  0.82403  0.94403  0.51277  1.0000
  C   C1909     1.0  0.78533  0.97354  0.56146  1.0000
  H   H3054     1.0  0.67164  0.88806  0.95610  1.0000
  C   C1910     1.0  0.87052  0.96025  0.60648  1.0000
  H   H3055     1.0  0.82345  0.97521  0.62090  1.0000
  H   H3056     1.0  0.92268  0.95870  0.55156  1.0000
  C   C1911     1.0  0.82148  0.97345  0.56443  1.0000
  S   S766      1.0  0.79777  0.95198  0.53439  1.0000
  H   H3057     1.0  0.69577  0.93535  0.92418  1.0000
  C   C1912     1.0  0.81897  0.96266  0.55295  1.0000
  H   H3058     1.0  0.83104  0.95412  0.54551  1.0000
  H   H3059     1.0  0.87197  0.94598  0.61579  1.0000
  C   C1913     1.0  0.90997  0.95949  0.54699  1.0000
  C   C1914     1.0  0.90979  0.94741  0.53554  1.0000
  C   C1915     1.0  0.89325  0.94815  0.52981  1.0000
  C   C1916     1.0  0.87699  0.96110  0.53548  1.0000
  S   S767      1.0  0.98638  0.96303  0.58151  1.0000
  H   H3060     1.0  0.92242  0.93735  0.53127  1.0000
  N   N191      1.0  0.68472  0.91185  0.94292  1.0000
  H   H3061     1.0  0.67881  0.93481  0.95720  1.0000
  H   H3062     1.0  0.66187  0.90381  0.93695  1.0000
  H   H3063     1.0  0.77131  0.97366  0.56024  1.0000
  H   H3064     1.0  0.87040  0.95865  0.59216  1.0000
  C   C1917     1.0  0.78784  0.98449  0.57288  1.0000
  H   H3065     1.0  0.85546  0.96161  0.64287  1.0000
  H   H3066     1.0  0.84153  0.98511  0.63866  1.0000
  Fe  Fe384     1.0  0.84655  0.91997  0.48417  1.0000
  N   N192      1.0  0.85337  0.97327  0.61392  1.0000
  H   H3067     1.0  0.92341  0.94323  0.48306  1.0000
  H   H3068     1.0  0.65875  0.93044  0.95184  1.0000
  C   C1918     1.0  0.98941  0.90783  0.60796  1.0000
  C   C1919     1.0  0.85431  0.97538  0.63267  1.0000
  H   H3069     1.0  0.71202  0.98472  0.87126  1.0000
  H   H3070     1.0  0.86674  0.98121  0.63184  1.0000
  C   C1920     1.0  0.80599  0.98469  0.57409  1.0000
  S   S768      1.0  0.82292  0.94547  0.48263  1.0000
  H   H3071     1.0  0.80532  0.84181  0.48253  1.0000
  H   H3072     1.0  0.88880  0.97579  0.48227  1.0000
