data_image0
_chemical_formula_structural       FeS2FeS2FeSFeS3FeS2FeS2FeSFeS3FeS2FeS2FeSFeS3FeS2FeS2FeSFeS3FeS2FeS2FeSFeS3FeS2FeS2FeSFeS3FeS2FeS2FeSFeS3FeS2FeS2FeSFeS3FeS2FeS2FeSFeS3FeS2FeS2FeSFeS3FeS2FeS2FeSFeS3FeS2FeS2FeSFeS3FeS2FeS2FeSFeS3FeS2FeS2FeSFeS3FeS2FeS2FeSFeS3FeS2FeS2FeSFeS3FeS2FeS2FeSFeS3FeS2FeS2FeSFeS3FeS2FeS2FeSFeS3FeS2FeS2FeSFeS3FeS2FeS2FeSFeS3FeS2FeS2FeSFeS3FeS2FeS2FeSFeS3FeS2FeS2FeSFeS3C6H4C6H4C6H4C6H4C6H4C6H4C6H4C6H4C6H4C6H4C6H4C6H4C6H4C6H4C6H4C6H4C6H4C6H4C6H4C6H4C6H4C6H4C6H4C6H4C6H4C6H4C6H4C6H4C6H4C6H4C6H4C6H4C6H4C6H4C6H4C6H4C6H4C6H4C6H4C6H4C6H4C6H4C6H4C6H4C6H4C6H4C6H4C6H4NC4H12NC4H12NC4H12NC4H12NC4H12NC4H12NC4H12NC4H12NC4H12NC4H12NC4H12NC4H12NC4H12NC4H12NC4H12NC4H12NC4H12NC4H12NC4H12NC4H12NC4H12NC4H12NC4H12NC4H12NC4H12NC4H12NC4H12NC4H12NC4H12NC4H12NC4H12NC4H12NC4H12NC4H12NC4H12NC4H12NC4H12NC4H12NC4H12NC4H12NC4H12NC4H12NC4H12NC4H12NC4H12NC4H12NC4H12NC4H12
_chemical_formula_sum              "Fe96 S192 C480 H768 N48"
_cell_length_a       57.765109256753306
_cell_length_b       57.21705242550035
_cell_length_c       40.360291162754635
_cell_angle_alpha    91.47389941415597
_cell_angle_beta     91.67180689917843
_cell_angle_gamma    118.70348416617583

_space_group_name_H-M_alt    "P 1"
_space_group_IT_number       1

loop_
  _space_group_symop_operation_xyz
  'x, y, z'

loop_
  _atom_site_type_symbol
  _atom_site_label
  _atom_site_symmetry_multiplicity
  _atom_site_fract_x
  _atom_site_fract_y
  _atom_site_fract_z
  _atom_site_occupancy
  Fe  Fe1       1.0  0.4715477498532914  0.2991058098084197  0.5036734464504772  1.0000
  S   S1        1.0  0.5149052018516322  0.3271641665333544  0.5024394741834698  1.0000
  S   S2        1.0  0.45397470650873745  0.25982736575772725  0.5300619024233321  1.0000
  Fe  Fe2       1.0  0.45781814767469947  0.34179884577258024  0.47749024094698295  1.0000
  S   S3        1.0  0.5005379651895706  0.3728422651260249  0.47452924826542625  1.0000
  S   S4        1.0  0.42177182959575926  0.3477715854138886  0.47005286906527344  1.0000
  Fe  Fe3       1.0  0.5055073512911867  0.3388584617599786  0.45306139465008505  1.0000
  S   S5        1.0  0.5356525504029342  0.34347463776363496  0.41556298820432924  1.0000
  Fe  Fe4       1.0  0.5060253464555595  0.35823100756887655  0.5237408569213382  1.0000
  S   S6        1.0  0.5278533142406064  0.3813777427275827  0.5706070131104826  1.0000
  S   S7        1.0  0.4622561464576244  0.3083577920898245  0.452496958980474  1.0000
  S   S8        1.0  0.46329471051323534  0.3297681006318728  0.5283384377937229  1.0000
  Fe  Fe5       1.0  0.4986191493138474  0.15382552561129453  0.5890290119430972  1.0000
  S   S9        1.0  0.5290573094239619  0.16466857957240005  0.630752831266765  1.0000
  S   S10       1.0  0.5048010601554143  0.1834442048229287  0.5489838267439375  1.0000
  Fe  Fe6       1.0  0.4673532726576356  0.09546640618573048  0.6097416617082604  1.0000
  S   S11       1.0  0.49506904118602557  0.10219368484451263  0.6537630290949291  1.0000
  S   S12       1.0  0.4329083311645402  0.05677743201733792  0.5875077218314135  1.0000
  Fe  Fe7       1.0  0.49480240463493136  0.14108227810026247  0.6622627189795816  1.0000
  S   S13       1.0  0.4954741202092263  0.1621248161846536  0.7108172290845225  1.0000
  Fe  Fe8       1.0  0.5272220258117413  0.1253716709047477  0.618989996745982  1.0000
  S   S14       1.0  0.5639343022360025  0.12102442970340423  0.6209103946978783  1.0000
  S   S15       1.0  0.46406917529933006  0.13269747072786348  0.6211371914399553  1.0000
  S   S16       1.0  0.4998943967247118  0.1162208720119101  0.5744863090752984  1.0000
  Fe  Fe9       1.0  0.655540936966042  0.5116931737837208  0.5901603464773093  1.0000
  S   S17       1.0  0.6820872406713215  0.5561421525467245  0.5908395260093572  1.0000
  S   S18       1.0  0.6288576699010852  0.4906368820253913  0.5449398538836807  1.0000
  Fe  Fe10      1.0  0.673812439503638  0.5067952042333652  0.6603363922679044  1.0000
  S   S19       1.0  0.7009179903793197  0.5508463627150684  0.6663637341942559  1.0000
  S   S20       1.0  0.6724344827894886  0.476052522499466  0.6960258687565375  1.0000
  Fe  Fe11      1.0  0.6676790364493785  0.555553252627503  0.6422236244196255  1.0000
  S   S21       1.0  0.6501086105922377  0.5798902555809693  0.6658755466714734  1.0000
  Fe  Fe12      1.0  0.7127798933732957  0.5470613445551458  0.6144210404806295  1.0000
  S   S22       1.0  0.7569310828765096  0.5662753758024144  0.6046106666932034  1.0000
  S   S23       1.0  0.6395954795493574  0.5113223431204101  0.6401630188479044  1.0000
  S   S24       1.0  0.687061016719596  0.5027853377245938  0.6095702892387784  1.0000
  Fe  Fe13      1.0  0.8856811937593211  0.4974602961428909  0.4745810151116478  1.0000
  S   S25       1.0  0.8911286308389484  0.5221847347304919  0.5211553307529522  1.0000
  S   S26       1.0  0.8894557435713776  0.45998453209190654  0.47068540923810315  1.0000
  Fe  Fe14      1.0  0.8756664081608775  0.5349341476721017  0.43154064893666827  1.0000
  S   S27       1.0  0.8816578598582676  0.5632816393921722  0.4747839407366033  1.0000
  S   S28       1.0  0.8570131228469529  0.5372208956153327  0.382624019601699  1.0000
  Fe  Fe15      1.0  0.9162273276097495  0.5567427510315358  0.48971852690671586  1.0000
  S   S29       1.0  0.9561368788907856  0.5868930073192259  0.5140811429985227  1.0000
  Fe  Fe16      1.0  0.8562155015899222  0.5264157831259031  0.502147819738741  1.0000
  S   S30       1.0  0.8160791970013977  0.5141812759574449  0.5243314949825655  1.0000
  S   S31       1.0  0.9120858371032778  0.5315721214535662  0.44392163934566287  1.0000
  S   S32       1.0  0.8490995217601248  0.4985060873780652  0.4580197863033434  1.0000
  Fe  Fe17      1.0  0.7055345160856745  0.1483889401305036  0.4394959925099622  1.0000
  S   S33       1.0  0.7284647012985787  0.13767640287908467  0.4767678661230259  1.0000
  S   S34       1.0  0.7220434217836719  0.16700108518835646  0.3907382909704209  1.0000
  Fe  Fe18      1.0  0.6635759769236651  0.14109364032365576  0.4881908229028761  1.0000
  S   S35       1.0  0.6833019754863209  0.13035489303020792  0.5290763681888985  1.0000
  S   S36       1.0  0.6276767504198227  0.1470641846920703  0.4895120933982966  1.0000
  Fe  Fe19      1.0  0.7217541521587002  0.1640715048910619  0.5132118756534676  1.0000
  S   S37       1.0  0.7496273207481866  0.19707441388332142  0.5510600707825485  1.0000
  Fe  Fe20      1.0  0.6880672096210367  0.104633621781518  0.48936362614839385  1.0000
  S   S38       1.0  0.6794829952611685  0.06293831594439898  0.5040106929013071  1.0000
  S   S39       1.0  0.7012106175538012  0.1764668985260432  0.47515792116334404  1.0000
  S   S40       1.0  0.6659649759182227  0.11362030880360609  0.44916528216803814  1.0000
  Fe  Fe21      1.0  0.8957500969788783  0.3755643116648471  0.6137637449395724  1.0000
  S   S41       1.0  0.920623901487633  0.3635557765509021  0.5833721165573157  1.0000
  S   S42       1.0  0.8864566885558718  0.4094261849585238  0.6093070062736485  1.0000
  Fe  Fe22      1.0  0.8867374703814426  0.33459534463484525  0.6658591851767836  1.0000
  S   S43       1.0  0.9112361323539595  0.31951892357556516  0.6402253458134576  1.0000
  S   S44       1.0  0.8627096095195611  0.3162538016005088  0.7103803836364267  1.0000
  Fe  Fe23      1.0  0.9401541176257566  0.3628199734169528  0.6323916342588359  1.0000
  S   S45       1.0  0.9832654624337803  0.3885182183055614  0.650785609993523  1.0000
  Fe  Fe24      1.0  0.8895373809223454  0.3212297719460267  0.5935793430126651  1.0000
  S   S46       1.0  0.8714450843968834  0.28544022859677176  0.5564070654759824  1.0000
  S   S47       1.0  0.91661139448747  0.37723596893478656  0.6619530990190148  1.0000
  S   S48       1.0  0.8635344955384038  0.3338349063388227  0.6200379063211288  1.0000
  Fe  Fe25      1.0  0.6321474080543852  0.2559733490907077  0.8739975686888325  1.0000
  S   S49       1.0  0.6261556524013032  0.266724822607191  0.9256658664617966  1.0000
  S   S50       1.0  0.6652846916500631  0.2835609365697715  0.8431868632612237  1.0000
  Fe  Fe26      1.0  0.5850684631787526  0.20062149987484276  0.8729666279093642  1.0000
  S   S51       1.0  0.5760244959821145  0.2056589944939909  0.9259051116074859  1.0000
  S   S52       1.0  0.5614449233323366  0.16297414114559233  0.8401597287024261  1.0000
  Fe  Fe27      1.0  0.5831456045766024  0.24599922819395  0.9104608492456344  1.0000
  S   S53       1.0  0.5531046291792995  0.2583330342754853  0.9250405411881633  1.0000
  Fe  Fe28      1.0  0.6198961859370675  0.22602088724528407  0.9374206035821563  1.0000
  S   S54       1.0  0.645695629521123  0.22599596160002183  0.9809553610598681  1.0000
  S   S55       1.0  0.5896502614569264  0.23977650763172212  0.8572363971927232  1.0000
  S   S56       1.0  0.6282320155721683  0.21641989090636854  0.8860938103279733  1.0000
  Fe  Fe29      1.0  0.6515939814307811  0.18973217528356323  0.23750044095957384  1.0000
  S   S57       1.0  0.6658760648935559  0.1939604040600981  0.18549827282703607  1.0000
  S   S58       1.0  0.6457240392126732  0.1541803885421553  0.26709048586839923  1.0000
  Fe  Fe30      1.0  0.6521360274775734  0.24314980039743214  0.2375863544632294  1.0000
  S   S59       1.0  0.6671917608877778  0.25226183007167885  0.18648090142948037  1.0000
  S   S60       1.0  0.6491152155811502  0.27463389908566166  0.26812030179901974  1.0000
  Fe  Fe31      1.0  0.6376232221512108  0.2095306482944243  0.17359338334025504  1.0000
  S   S61       1.0  0.6091367483823066  0.19812743475293745  0.12872323997381674  1.0000
  Fe  Fe32      1.0  0.6939344985789867  0.23616922539983284  0.2029107721501838  1.0000
  S   S62       1.0  0.7372194605401624  0.25696942926488575  0.19309083924681142  1.0000
  S   S63       1.0  0.6204870721530897  0.20137819227683898  0.2242948368407078  1.0000
  S   S64       1.0  0.6814164237108313  0.23087794533924536  0.25525280622367974  1.0000
  Fe  Fe33      1.0  0.6215299634775272  0.4037791875703103  0.9096372120783973  1.0000
  S   S65       1.0  0.6460563219238922  0.3948129035872011  0.9453686568877295  1.0000
  S   S66       1.0  0.5779392830692497  0.37705440868085366  0.9034404957573189  1.0000
  Fe  Fe34      1.0  0.6675728505053737  0.45364790963986373  0.8867468323685487  1.0000
  S   S67       1.0  0.6969888217720683  0.44954322439799765  0.9208424266730987  1.0000
  S   S68       1.0  0.6760676641123451  0.48811601618062606  0.8536074207079607  1.0000
  Fe  Fe35      1.0  0.6743224860545711  0.4062837243390744  0.9047508667374805  1.0000
  S   S69       1.0  0.6915043701529062  0.37918496539613744  0.897930421486881  1.0000
  Fe  Fe36      1.0  0.6665332801506679  0.43832269904308885  0.9594481966475792  1.0000
  S   S70       1.0  0.6789841930773604  0.44792263960480894  0.01378673554229426  1.0000
  S   S71       1.0  0.6478281164764643  0.41106452860290377  0.8672561479171349  1.0000
  S   S72       1.0  0.6391255418543585  0.4465753775479966  0.9273421395435726  1.0000
  Fe  Fe37      1.0  0.6287603492401963  0.4044346806815034  0.2255271714376031  1.0000
  S   S73       1.0  0.6187230416820299  0.3810832152087863  0.17692109236956546  1.0000
  S   S74       1.0  0.669696829463084  0.4270186829878915  0.24909969496964718  1.0000
  Fe  Fe38      1.0  0.5718824884966023  0.3898344473419637  0.23817895203948092  1.0000
  S   S75       1.0  0.5570324408200388  0.36610493258813126  0.18963833958555126  1.0000
  S   S76       1.0  0.5430998992798496  0.3917576973324715  0.2738581786539864  1.0000
  Fe  Fe39      1.0  0.5845350269578107  0.350193590661047  0.20291263808430174  1.0000
  S   S77       1.0  0.5715193618664719  0.3067311694167421  0.19466402458468499  1.0000
  Fe  Fe40      1.0  0.5925122750586039  0.39919690243261413  0.1674983329200045  1.0000
  S   S78       1.0  0.5892667101023822  0.4143134031019784  0.11728486054394523  1.0000
  S   S79       1.0  0.5970271931378371  0.37155665957873407  0.25273580145374885  1.0000
  S   S80       1.0  0.6047426961777811  0.4248749320810478  0.2147107472284204  1.0000
  Fe  Fe41      1.0  0.8591862697530985  0.39248598467090706  0.8682342340969601  1.0000
  S   S81       1.0  0.8480039610434759  0.37692157425940315  0.9192918180980214  1.0000
  S   S82       1.0  0.8920693422257225  0.391059584209547  0.840747984593337  1.0000
  Fe  Fe42      1.0  0.8171785726068213  0.40934887522730795  0.8625736648265235  1.0000
  S   S83       1.0  0.8012357862386358  0.3938021608075305  0.9120452984084201  1.0000
  S   S84       1.0  0.8002184051741885  0.4307612200460338  0.8330977313385171  1.0000
  Fe  Fe43      1.0  0.8436417883432191  0.41333671806412176  0.9300651559547648  1.0000
  S   S85       1.0  0.8525177700742205  0.4408313558306577  0.9754842070043901  1.0000
  Fe  Fe44      1.0  0.806540375523075  0.35883783979702544  0.8972105723631774  1.0000
  S   S86       1.0  0.777558645951063  0.31669838171600156  0.9089757870280705  1.0000
  S   S87       1.0  0.8593337448813084  0.4310256720659177  0.8812086080039673  1.0000
  S   S88       1.0  0.8179821085144617  0.37218822453882383  0.845617810379052  1.0000
  Fe  Fe45      1.0  0.8041215834440042  0.40218930601586567  0.22769403127519833  1.0000
  S   S89       1.0  0.7900069980040104  0.3977436918910078  0.17454291532920704  1.0000
  S   S90       1.0  0.7857558991468296  0.37094973207377635  0.2649729921199356  1.0000
  Fe  Fe46      1.0  0.8471630029598226  0.4589257677316834  0.22245474202204377  1.0000
  S   S91       1.0  0.837378305333467  0.46016655274391133  0.16826287148208435  1.0000
  S   S92       1.0  0.8823701252710964  0.48987292081684664  0.25324475576325833  1.0000
  Fe  Fe47      1.0  0.7951529567752911  0.43882577722292826  0.1830961434459965  1.0000
  S   S93       1.0  0.7635086481895859  0.4452953490253794  0.15838115066975295  1.0000
  Fe  Fe48      1.0  0.8328656950266812  0.4190055188843267  0.16333756352205125  1.0000
  S   S94       1.0  0.8482028498761335  0.4030906746683898  0.12248192485772001  1.0000
  S   S95       1.0  0.805326877797829  0.4413724449653194  0.23771554373511694  1.0000
  S   S96       1.0  0.8465839755029207  0.41960248635656405  0.2162092495780339  1.0000
  Fe  Fe49      1.0  0.13455917089416264  0.44331812891208233  0.6358211152765244  1.0000
  S   S97       1.0  0.14060928037518872  0.4718800165945056  0.6786457243989316  1.0000
  S   S98       1.0  0.09746265937135103  0.4063680730949209  0.6156261945214491  1.0000
  Fe  Fe50      1.0  0.1910420942467473  0.47738924420861956  0.6122206870961379  1.0000
  S   S99       1.0  0.2015882918290295  0.5092423431156492  0.6526122716331119  1.0000
  S   S100      1.0  0.21499352860211698  0.4801834358812875  0.5671083110392818  1.0000
  Fe  Fe51      1.0  0.1808091327147911  0.47510691014587725  0.6861020214757148  1.0000
  S   S101      1.0  0.1990132713739611  0.4744309353280455  0.7363304365110881  1.0000
  Fe  Fe52      1.0  0.16091492115980496  0.5039364555250777  0.6423736936856448  1.0000
  S   S102      1.0  0.15072929519131154  0.5372217280299553  0.6405425546681928  1.0000
  S   S103      1.0  0.1731480776401482  0.4433623374372754  0.6462749737908913  1.0000
  S   S104      1.0  0.15187118416887418  0.47527837574355164  0.5991782514008068  1.0000
  Fe  Fe53      1.0  0.38622402683450313  0.46813191217628314  0.4776779876988664  1.0000
  S   S105      1.0  0.3941305062767445  0.5036078128180678  0.4476150824261575  1.0000
  S   S106      1.0  0.42005653828921774  0.4583026257630682  0.4738481231763241  1.0000
  Fe  Fe54      1.0  0.335590203137074  0.4659386354956041  0.5045249897831675  1.0000
  S   S107      1.0  0.3396817323098002  0.5002850232601125  0.47513976533300395  1.0000
  S   S108      1.0  0.30601386987503926  0.4492568451629257  0.5451714889858339  1.0000
  Fe  Fe55      1.0  0.35091893969325266  0.48166338440967615  0.4334122426610056  1.0000
  S   S109      1.0  0.3346305149712805  0.47899668075914426  0.3808422198970745  1.0000
  Fe  Fe56      1.0  0.38241114707298357  0.5190680368581653  0.49180336544955516  1.0000
  S   S110      1.0  0.40213307382521657  0.5618122836140989  0.5107584267509766  1.0000
  S   S111      1.0  0.3431423173745042  0.44493818705786153  0.46108991438317665  1.0000
  S   S112      1.0  0.3781107778368024  0.48585231533247725  0.5234737062078226  1.0000
  Fe  Fe57      1.0  0.3188870541204008  0.8496079205542103  0.5897224195197374  1.0000
  S   S113      1.0  0.34334417269295575  0.8295395376781397  0.5813104664816551  1.0000
  S   S114      1.0  0.2751308121116759  0.8292834389524539  0.573409395605526  1.0000
  Fe  Fe58      1.0  0.36642520986556393  0.900536185003482  0.6215501676519462  1.0000
  S   S115      1.0  0.39375983566010053  0.883135368671183  0.6161435025130774  1.0000
  S   S116      1.0  0.38575588782240966  0.941607968501709  0.6481568204673943  1.0000
  Fe  Fe59      1.0  0.37426573632702326  0.8693109658205757  0.5653984561361611  1.0000
  S   S117      1.0  0.3974636637862243  0.8760986577971882  0.5194452809998348  1.0000
  Fe  Fe60      1.0  0.36039389015504486  0.8452601845020818  0.6330563571986938  1.0000
  S   S118      1.0  0.36454473579394736  0.8154651885433559  0.6649704545393299  1.0000
  S   S119      1.0  0.3487004095041588  0.8887902636020011  0.5695788882780288  1.0000
  S   S120      1.0  0.3340834576516823  0.8632343880355693  0.6426888846088318  1.0000
  Fe  Fe61      1.0  0.11370835208682772  0.6405794758606723  0.4758403235261172  1.0000
  S   S121      1.0  0.13211114845997923  0.6210299794873033  0.44479163842223557  1.0000
  S   S122      1.0  0.07041883425390694  0.6236323541011711  0.4573678268252966  1.0000
  Fe  Fe62      1.0  0.1665592945734098  0.6759132872020625  0.5151551723280606  1.0000
  S   S123      1.0  0.1872625915771321  0.65778241239518  0.48698956837919305  1.0000
  S   S124      1.0  0.19433372065745805  0.7047699980502338  0.5565295868986733  1.0000
  Fe  Fe63      1.0  0.1665551887433462  0.6617357801400444  0.44163524295672413  1.0000
  S   S125      1.0  0.1937494579702258  0.6783788773614321  0.3990452733149191  1.0000
  Fe  Fe64      1.0  0.15125701327598864  0.6186349114849613  0.4926041907005157  1.0000
  S   S126      1.0  0.15662077916219608  0.5823797992246437  0.4983270569758094  1.0000
  S   S127      1.0  0.14755037849091904  0.6823432735920093  0.4690518307755804  1.0000
  S   S128      1.0  0.13120431734516805  0.6356599727276206  0.5243234667570639  1.0000
  Fe  Fe65      1.0  0.5727627203689213  0.9075014676395758  0.4561138821883142  1.0000
  S   S129      1.0  0.5284038759166174  0.8871609559140458  0.4468984259717949  1.0000
  S   S130      1.0  0.5981244987911813  0.9491184696085369  0.4365581163262289  1.0000
  Fe  Fe66      1.0  0.5710668680027642  0.8575085358951513  0.48608238939269616  1.0000
  S   S131      1.0  0.5272151106818638  0.8341514144127818  0.4787761122157461  1.0000
  S   S132      1.0  0.595919184423632  0.8419835871894354  0.5130448698797739  1.0000
  Fe  Fe67      1.0  0.5323663267368373  0.8518224164135968  0.4285466199296976  1.0000
  S   S133      1.0  0.5085974009441564  0.8215883024464858  0.38671335858072386  1.0000
  Fe  Fe68      1.0  0.5270407735002882  0.871210881735625  0.4975591636555665  1.0000
  S   S134      1.0  0.5014352562725288  0.8667659280574419  0.5406218962077415  1.0000
  S   S135      1.0  0.5767079557798931  0.8727877311713267  0.4343954312943704  1.0000
  S   S136      1.0  0.5709042459449281  0.8939766315607143  0.508241726924996  1.0000
  Fe  Fe69      1.0  0.5902166402688451  0.6738345849250031  0.6189140496531795  1.0000
  S   S137      1.0  0.5612554635688818  0.647040359913641  0.6542861373262512  1.0000
  S   S138      1.0  0.6267264786021256  0.669793692420294  0.6086442011975709  1.0000
  Fe  Fe70      1.0  0.554711539318026  0.6982979750389091  0.5976123512181631  1.0000
  S   S139      1.0  0.5226795376229951  0.6718096560507968  0.6312633835339382  1.0000
  S   S140      1.0  0.5433183446826927  0.7227012584062299  0.5630444789041307  1.0000
  Fe  Fe71      1.0  0.5559156180637063  0.6820815318364214  0.6688204233231871  1.0000
  S   S141      1.0  0.5546409904964845  0.6937178701920945  0.7225525888296239  1.0000
  Fe  Fe72      1.0  0.5309876196954016  0.6391958965731662  0.6135500579010844  1.0000
  S   S142      1.0  0.5049708847290222  0.5954246492758459  0.6015900096078305  1.0000
  S   S143      1.0  0.58777929894487  0.7104612941932487  0.63652922632309  1.0000
  S   S144      1.0  0.5601379057373438  0.6642850035075268  0.5770558658806039  1.0000
  Fe  Fe73      1.0  0.47065934840705403  0.6068487513865494  0.8602619406341783  1.0000
  S   S145      1.0  0.47995317941160515  0.6236014951305464  0.9131169383907041  1.0000
  S   S146      1.0  0.49715556926476645  0.6023401427848002  0.8235587531025403  1.0000
  Fe  Fe74      1.0  0.4135555865221441  0.5956557188156949  0.8610036618017333  1.0000
  S   S147      1.0  0.41744435066014657  0.6111153905850087  0.9134575505232582  1.0000
  S   S148      1.0  0.376096525548032  0.5800473458235381  0.8294924196074407  1.0000
  Fe  Fe75      1.0  0.4562737997397452  0.6437891113174286  0.8983734988493708  1.0000
  S   S149      1.0  0.46606316315296303  0.6861420767232375  0.9095319258948344  1.0000
  Fe  Fe76      1.0  0.44015839913484717  0.5893210453495932  0.9237975816724331  1.0000
  S   S150      1.0  0.42816835271864795  0.5607962491229843  0.9656471049129323  1.0000
  S   S151      1.0  0.45059633489918877  0.6300211337748337  0.8448868566153859  1.0000
  S   S152      1.0  0.43281943860911354  0.5707655603233551  0.8720729934630544  1.0000
  Fe  Fe77      1.0  0.3951758832149386  0.5512252165103896  0.22171233227667797  1.0000
  S   S153      1.0  0.39024129842298005  0.5327991843268247  0.17006704740211945  1.0000
  S   S154      1.0  0.4120865015057617  0.5433305434934765  0.26864951413146515  1.0000
  Fe  Fe78      1.0  0.37353792624898174  0.5877609010515503  0.19986024613042566  1.0000
  S   S155      1.0  0.36632747336623345  0.5725699222810364  0.14712299182644065  1.0000
  S   S156      1.0  0.36515204545867774  0.6201654289599269  0.2172806693253917  1.0000
  Fe  Fe79      1.0  0.35106431923484305  0.5325560104548752  0.1689981924765974  1.0000
  S   S157      1.0  0.31087179391653375  0.49964151594588696  0.15251016472239753  1.0000
  Fe  Fe80      1.0  0.4060012442192765  0.5747485614972432  0.15267110151209043  1.0000
  S   S158      1.0  0.436683441781881  0.5993099362027935  0.1163650880210712  1.0000
  S   S159      1.0  0.355045871950487  0.547725614433057  0.22166664886725096  1.0000
  S   S160      1.0  0.4143325314249267  0.5930949259381234  0.20449055732012927  1.0000
  Fe  Fe81      1.0  0.21362608116520923  0.5996192891391111  0.25529318975442267  1.0000
  S   S161      1.0  0.2464452017843038  0.6363056921757656  0.23478413189836525  1.0000
  S   S162      1.0  0.17778671278821853  0.5982463406425403  0.27813990470789174  1.0000
  Fe  Fe82      1.0  0.23687799490986483  0.5643448532760306  0.23267050467316905  1.0000
  S   S163      1.0  0.2716995127997584  0.598274130558293  0.2110906962618593  1.0000
  S   S164      1.0  0.2287477388923542  0.5218024562504556  0.22885887712032776  1.0000
  Fe  Fe83      1.0  0.2725565389032484  0.6212789425413847  0.2573123731910788  1.0000
  S   S165      1.0  0.3116218875717969  0.6459861311607452  0.2849342795612471  1.0000
  Fe  Fe84      1.0  0.24226683841052118  0.6094947462459123  0.19058392984720307  1.0000
  S   S166      1.0  0.24559978504189153  0.6227373811701284  0.13785470416991025  1.0000
  S   S167      1.0  0.2400154638575322  0.5863258733640954  0.2809123716431752  1.0000
  S   S168      1.0  0.2071367757717705  0.5740490359888865  0.20907663096421686  1.0000
  Fe  Fe85      1.0  0.2645358613136244  0.5327492435258635  0.932916740976006  1.0000
  S   S169      1.0  0.27407309508725086  0.5676818142018357  0.9017260328957702  1.0000
  S   S170      1.0  0.28281893617291753  0.5076033417967525  0.9187348536739874  1.0000
  Fe  Fe86      1.0  0.22954859213199677  0.5444122967122773  0.9771213268847867  1.0000
  S   S171      1.0  0.23512318300818252  0.5797552792885701  0.9487157365172402  1.0000
  S   S172      1.0  0.2068943997627224  0.5317708718277478  0.02388523068356796  1.0000
  Fe  Fe87      1.0  0.23089498586002893  0.554331570824335  0.9028419656321982  1.0000
  S   S173      1.0  0.20932012320401933  0.5541079806123114  0.8550330264488138  1.0000
  Fe  Fe88      1.0  0.27774179806176763  0.5895876341051083  0.9499269207644077  1.0000
  S   S174      1.0  0.31177491318810163  0.630033555945496  0.9636350247839481  1.0000
  S   S175      1.0  0.22085049352264002  0.5176533692545606  0.9312310997964803  1.0000
  S   S176      1.0  0.27252356619957147  0.5558646978058405  0.9811093278900574  1.0000
  Fe  Fe89      1.0  0.38817843291860427  0.7410720529059525  0.8344178367325511  1.0000
  S   S177      1.0  0.37222823318645515  0.7275779819289405  0.8839484323088254  1.0000
  S   S178      1.0  0.3972755338465729  0.7117739463651916  0.8079800344758439  1.0000
  Fe  Fe90      1.0  0.38517178857443285  0.7920930657198487  0.8427112754205175  1.0000
  S   S179      1.0  0.3690914729995196  0.7829680675538251  0.8938311508795242  1.0000
  S   S180      1.0  0.39259761417043276  0.8307474920307182  0.8202414560308502  1.0000
  Fe  Fe91      1.0  0.39923150137935753  0.76937663753297  0.9027853464385278  1.0000
  S   S181      1.0  0.4249242855655989  0.7736658386323332  0.9484445034804075  1.0000
  Fe  Fe92      1.0  0.3435641380850759  0.7420034668430832  0.8710220228198795  1.0000
  S   S182      1.0  0.30108290163328394  0.7154622031040958  0.8805779472556141  1.0000
  S   S183      1.0  0.4177730651564926  0.782105158468016  0.8536445869713016  1.0000
  S   S184      1.0  0.356921539141107  0.7517657192678764  0.8193668881950714  1.0000
  Fe  Fe93      1.0  0.4574063397011994  0.8116193947099963  0.20329418890740525  1.0000
  S   S185      1.0  0.46317279286041785  0.8012341018917505  0.15081040932921724  1.0000
  S   S186      1.0  0.48818893009404907  0.8443077393053241  0.23823035414610327  1.0000
  Fe  Fe94      1.0  0.39862113687778034  0.77281135889731  0.19921465314015324  1.0000
  S   S187      1.0  0.3989281392814516  0.758592005954204  0.1471416349165522  1.0000
  S   S188      1.0  0.36111760708512014  0.7600155358159459  0.22631501611244242  1.0000
  Fe  Fe95      1.0  0.43635109663793387  0.7590384771818539  0.1643083575798038  1.0000
  S   S189      1.0  0.4411010979636934  0.7243145879589175  0.14576122470375125  1.0000
  Fe  Fe96      1.0  0.42526323610830497  0.801430866955716  0.136924011922898  1.0000
  S   S190      1.0  0.4147851961770801  0.816931381156323  0.09083270454153713  1.0000
  S   S191      1.0  0.43365667015313275  0.769197067751441  0.21771320293059704  1.0000
  S   S192      1.0  0.4219463109750888  0.8159288544696497  0.1879957207802496  1.0000
  C   C1        1.0  0.42038121182485144  0.7843069595686476  0.9880295914905267  1.0000
  C   C2        1.0  0.4039321859663431  0.7956937679312875  0.9923522977989716  1.0000
  C   C3        1.0  0.402238657043836  0.8055391679252927  0.024031627015683274  1.0000
  C   C4        1.0  0.41631894744693176  0.8033172797005759  0.051688495380209455  1.0000
  C   C5        1.0  0.43210603843437334  0.7911823272098691  0.047452247692414795  1.0000
  C   C6        1.0  0.43439970114555526  0.7820589696670711  0.015670198064169805  1.0000
  H   H1        1.0  0.39277309196697974  0.7971827812396284  0.9713308708544609  1.0000
  H   H2        1.0  0.3898616331880045  0.8147571429471874  0.027257734767947975  1.0000
  H   H3        1.0  0.44316823872237804  0.7895591263246784  0.06854958926767153  1.0000
  H   H4        1.0  0.44738605191582875  0.7735513680337499  0.01252965540901485  1.0000
  C   C7        1.0  0.3061092977437587  0.6539910368150081  0.9444294687586734  1.0000
  C   C8        1.0  0.32366520147275757  0.6810767467325638  0.9508837437964925  1.0000
  C   C9        1.0  0.3211248703287682  0.7002054831700714  0.9325209376416562  1.0000
  C   C10       1.0  0.30085168908642307  0.6922630726680583  0.9079883802613204  1.0000
  C   C11       1.0  0.2823531702556914  0.6652982330971645  0.9028949110226816  1.0000
  C   C12       1.0  0.2851505150891424  0.6461233762465933  0.9208978259519678  1.0000
  H   H5        1.0  0.33949586977767937  0.6873152026891304  0.9695877246036316  1.0000
  H   H6        1.0  0.3351128205427641  0.7211458047389838  0.9369640611059279  1.0000
  H   H7        1.0  0.26662907852518114  0.6591685972738008  0.8839651450464966  1.0000
  H   H8        1.0  0.27159653446018656  0.625261137471091  0.9156514368274321  1.0000
  C   C13       1.0  0.3263776480131269  0.6792866915105408  0.27354298098310154  1.0000
  C   C14       1.0  0.35326604992066446  0.6926903215953519  0.2670121115438355  1.0000
  C   C15       1.0  0.3643908791004114  0.7178478104481707  0.2531163640873046  1.0000
  C   C16       1.0  0.3487074644675935  0.7298562353741107  0.24654040480093622  1.0000
  C   C17       1.0  0.32220835991972396  0.7171202725899579  0.2549419974714392  1.0000
  C   C18       1.0  0.3109556168582292  0.6917142824594431  0.26800618999802395  1.0000
  H   H9        1.0  0.36520761418846104  0.6831219464278011  0.27146743660917555  1.0000
  H   H10       1.0  0.38491526757903677  0.7276314702310006  0.24696889044073544  1.0000
  H   H11       1.0  0.31009935912495634  0.7264928619736843  0.25019797701375057  1.0000
  H   H12       1.0  0.2902979700731584  0.681659525101752  0.2735607588259994  1.0000
  C   C19       1.0  0.2161460501136581  0.5572692863243333  0.05504168938604259  1.0000
  C   C20       1.0  0.2311533833986481  0.5841457878704169  0.04780011402573326  1.0000
  C   C21       1.0  0.2398633861079958  0.604090350188799  0.07333416286099166  1.0000
  C   C22       1.0  0.23411882040627788  0.5972795629532555  0.10633442155053323  1.0000
  C   C23       1.0  0.21929626564534108  0.5704125307847071  0.11365013283131169  1.0000
  C   C24       1.0  0.21003571918573524  0.5505052754693555  0.08800661745017269  1.0000
  H   H13       1.0  0.2361494958195257  0.5896006805075159  0.02251773289369008  1.0000
  H   H14       1.0  0.25132588497262043  0.6248225538035211  0.06743498940787723  1.0000
  H   H15       1.0  0.21488038912233065  0.5648613802021989  0.1389978585435147  1.0000
  H   H16       1.0  0.19859771359176354  0.5297481915542995  0.09382597647709677  1.0000
  C   C25       1.0  0.25134238034154793  0.5159190392049904  0.20669805842441447  1.0000
  C   C26       1.0  0.24429331720180106  0.48999187800136773  0.19495885465560564  1.0000
  C   C27       1.0  0.2623894377543193  0.4849582021232129  0.17782836935688962  1.0000
  C   C28       1.0  0.2877673414544243  0.5057680784727602  0.1730169164271319  1.0000
  C   C29       1.0  0.29466200980229135  0.5316980663379581  0.1844695361886535  1.0000
  C   C30       1.0  0.2764787668647691  0.5367456970742093  0.20109430194380962  1.0000
  H   H17       1.0  0.22486128814732542  0.47375941262508786  0.1992617407273639  1.0000
  H   H18       1.0  0.25692117386869795  0.4648715315218459  0.16901382749404897  1.0000
  H   H19       1.0  0.3140229011489511  0.5480064589935217  0.1804594473782717  1.0000
  H   H20       1.0  0.28224627060323954  0.5566430513178076  0.21032249663030858  1.0000
  C   C31       1.0  0.38597356970617713  0.6490881916558275  0.19730802497375247  1.0000
  C   C32       1.0  0.39044348908568566  0.6477333242778257  0.16362053391132964  1.0000
  C   C33       1.0  0.40699411702855176  0.6710017954337627  0.14762121463694663  1.0000
  C   C34       1.0  0.4193986591906898  0.6955810361118138  0.1654514153159529  1.0000
  C   C35       1.0  0.41498846098075115  0.6968874583247898  0.19915208291240774  1.0000
  C   C36       1.0  0.39826188248429223  0.6736336378311815  0.2150689966630322  1.0000
  H   H21       1.0  0.38095247439728386  0.6288133634979264  0.14977763740859676  1.0000
  H   H22       1.0  0.410223584851039  0.6699193084831192  0.12148780553674793  1.0000
  H   H23       1.0  0.424955934063946  0.7156762740870364  0.21322356401971304  1.0000
  H   H24       1.0  0.39522357520108126  0.6746189036800195  0.24126332905637676  1.0000
  C   C37       1.0  0.4160692095043425  0.70471631281445  0.8366876855062277  1.0000
  C   C38       1.0  0.4102589175237098  0.6783254202392954  0.8408970123780457  1.0000
  C   C39       1.0  0.42488907761216893  0.6725899924287537  0.8643834202054652  1.0000
  C   C40       1.0  0.446128082564967  0.6932743060342111  0.8826932108802001  1.0000
  C   C41       1.0  0.45173249791703013  0.7196566240790353  0.878807603068161  1.0000
  C   C42       1.0  0.43649026368936866  0.7253418523896719  0.8560734275864952  1.0000
  H   H25       1.0  0.39434837732241296  0.6622516539413845  0.8262475088069243  1.0000
  H   H26       1.0  0.41973229258958683  0.6520980279423304  0.8680675632887369  1.0000
  H   H27       1.0  0.46797032519733983  0.7357246547485446  0.8931344030020935  1.0000
  H   H28       1.0  0.44096641171101303  0.7457803395780931  0.8530360422115556  1.0000
  C   C43       1.0  0.42913939890822866  0.5722553919424432  0.0069175372648651035  1.0000
  C   C44       1.0  0.4146069976647265  0.5537754063040538  0.030486766723630154  1.0000
  C   C45       1.0  0.4159652245634466  0.5620194154322983  0.063952154630242  1.0000
  C   C46       1.0  0.43241918333976065  0.5886990523632241  0.074146374054218  1.0000
  C   C47       1.0  0.44673384869862404  0.6072312562053187  0.050514925143716985  1.0000
  C   C48       1.0  0.44483878564454765  0.5991106389231843  0.01689248488475752  1.0000
  H   H29       1.0  0.4025874005961902  0.5329438679125682  0.022993203262294485  1.0000
  H   H30       1.0  0.40505171125477474  0.547591102023642  0.08205845242720296  1.0000
  H   H31       1.0  0.4595987121239537  0.6278654864398961  0.058260250563384054  1.0000
  H   H32       1.0  0.45622919571201853  0.6134242176278429  0.9989152912985247  1.0000
  C   C49       1.0  0.3494362566852763  0.5604011671791467  0.8534862367769583  1.0000
  C   C50       1.0  0.34706047059876427  0.5701201149934408  0.8846268724273121  1.0000
  C   C51       1.0  0.32620918292817197  0.5540038962735653  0.9043401750135118  1.0000
  C   C52       1.0  0.30822089976997896  0.5278648789406978  0.8933742822868292  1.0000
  C   C53       1.0  0.3105654720127621  0.5181200114150879  0.8622332685495296  1.0000
  C   C54       1.0  0.33094969703325894  0.5345670505215329  0.8420399894272549  1.0000
  H   H33       1.0  0.36108025115170533  0.5902005746039184  0.893321339558608  1.0000
  H   H34       1.0  0.32428086631100966  0.5616674096656707  0.9283041747953069  1.0000
  H   H35       1.0  0.29641792280463664  0.49805427313075706  0.8535103471809212  1.0000
  H   H36       1.0  0.33274037055512407  0.5270868803239662  0.8178823700413713  1.0000
  C   C55       1.0  0.5370756869909842  0.6680680389829556  0.7498094718677263  1.0000
  C   C56       1.0  0.5246934162668354  0.6412186495276965  0.7389382444365787  1.0000
  C   C57       1.0  0.5123175072386145  0.6211506840360335  0.7616919692042867  1.0000
  C   C58       1.0  0.5113073061139014  0.6277945424225307  0.7951270763267357  1.0000
  C   C59       1.0  0.5228847216547051  0.6546703027670688  0.8057553884530767  1.0000
  C   C60       1.0  0.536110370437084  0.6747331886889345  0.7832571770276603  1.0000
  H   H37       1.0  0.5250630710900609  0.6358332416651481  0.7131503576580226  1.0000
  H   H38       1.0  0.5033898203481808  0.600380848395201  0.7533690462423723  1.0000
  H   H39       1.0  0.5224582400319328  0.6599166244860672  0.8316083905838629  1.0000
  H   H40       1.0  0.5458199546640783  0.695455196887575  0.7919063198260438  1.0000
  C   C61       1.0  0.5052977779304484  0.828769208679391  0.3450464296958313  1.0000
  C   C62       1.0  0.492147826371232  0.8074187548649954  0.3215769747661873  1.0000
  C   C63       1.0  0.4875883281206073  0.8119701822165891  0.28854255292422387  1.0000
  C   C64       1.0  0.4958446386035271  0.8379549950498658  0.27871571251607363  1.0000
  C   C65       1.0  0.5094719619433618  0.8593839536726011  0.30201330417558103  1.0000
  C   C66       1.0  0.5141901271582675  0.8548411970464314  0.33508934190372885  1.0000
  H   H41       1.0  0.4853453754320997  0.7872103831673674  0.32906974102443587  1.0000
  H   H42       1.0  0.4775341055690844  0.7953327957862051  0.27077191078180074  1.0000
  H   H43       1.0  0.516096823883738  0.8795724656987421  0.294574274805252  1.0000
  H   H44       1.0  0.5243507689138331  0.8714378288306407  0.35295525588156396  1.0000
  C   C67       1.0  0.5817803394483401  0.8084995784963224  0.5259228383974124  1.0000
  C   C68       1.0  0.5953797431054826  0.8015559092067747  0.5498621284398736  1.0000
  C   C69       1.0  0.5842071633276661  0.7753514110488968  0.56130091424902  1.0000
  C   C70       1.0  0.5593193805344613  0.755748234803524  0.5487281980453615  1.0000
  C   C71       1.0  0.5459032596211545  0.7626920901954196  0.5245660532618146  1.0000
  C   C72       1.0  0.5569986622840066  0.7888396092501991  0.5132698829593821  1.0000
  H   H45       1.0  0.6145918000183188  0.8165503122226407  0.5597845141151198  1.0000
  H   H46       1.0  0.5947885429566836  0.7703502295336939  0.579877678981591  1.0000
  H   H47       1.0  0.5267423600163614  0.7476803001113808  0.5144650855462017  1.0000
  H   H48       1.0  0.546469273873075  0.7936615538694283  0.49443003400074687  1.0000
  C   C73       1.0  0.18894627275000897  0.6568276057027168  0.36444001853492736  1.0000
  C   C74       1.0  0.1637650441449314  0.6363397128698547  0.35453339071352397  1.0000
  C   C75       1.0  0.16056699472184577  0.6187402980229799  0.3276929175788158  1.0000
  C   C76       1.0  0.18250191831130308  0.6214424928831497  0.3106947778711247  1.0000
  C   C77       1.0  0.20768991635528394  0.642049704460479  0.32041994316812256  1.0000
  C   C78       1.0  0.21085240510357509  0.6598394346085771  0.34706149918219364  1.0000
  H   H49       1.0  0.1467403247883944  0.6340167123198218  0.36761668374252526  1.0000
  H   H50       1.0  0.14102482512575196  0.6028524316133769  0.32025495565775974  1.0000
  H   H51       1.0  0.2247271192320423  0.6442831401372475  0.30746684747274383  1.0000
  H   H52       1.0  0.2303838534029215  0.6757157795069211  0.3545416519478525  1.0000
  C   C79       1.0  0.4252852028433694  0.8714908260150658  0.5243161341710865  1.0000
  C   C80       1.0  0.43072353655890083  0.8628480537990745  0.554168487226212  1.0000
  C   C81       1.0  0.4541279152700837  0.8613662980904642  0.5587687269608121  1.0000
  C   C82       1.0  0.4719606394186782  0.8680474236480547  0.5333491729848118  1.0000
  C   C83       1.0  0.4662716739143125  0.8761143909939773  0.5031770477095909  1.0000
  C   C84       1.0  0.4429777492689322  0.8779347584908094  0.49872772372678875  1.0000
  H   H53       1.0  0.41701187014685026  0.8574801992855473  0.5738443973396469  1.0000
  H   H54       1.0  0.45839604944516943  0.8550120316719282  0.5821073592532552  1.0000
  H   H55       1.0  0.4799591445565628  0.8812995299013024  0.48347709121215454  1.0000
  H   H56       1.0  0.43881636007366864  0.8846184934119133  0.4755809963825492  1.0000
  C   C85       1.0  0.373294805546902  0.8211349208306128  0.7078374844180972  1.0000
  C   C86       1.0  0.3762717615906554  0.8015619222945607  0.7246773837921975  1.0000
  C   C87       1.0  0.3824657876487863  0.804655942429353  0.7589324655572429  1.0000
  C   C88       1.0  0.38549260560522336  0.8272517017856031  0.7768694697261606  1.0000
  C   C89       1.0  0.3827231538703432  0.8470388517734292  0.7600256239024994  1.0000
  C   C90       1.0  0.37657081908027285  0.8439780659461865  0.7255460899619499  1.0000
  H   H57       1.0  0.3739265146957181  0.783929619547575  0.7111345162761142  1.0000
  H   H58       1.0  0.38527274870964723  0.7896558302272301  0.77132365257324  1.0000
  H   H59       1.0  0.38516498685026573  0.8646595566611424  0.7736679328057935  1.0000
  H   H60       1.0  0.374355292966475  0.8592263737265361  0.7127540332900433  1.0000
  C   C91       1.0  0.2538109633563308  0.7945521658005127  0.5658074317754329  1.0000
  C   C92       1.0  0.26210926016904107  0.7756193497508362  0.5714336414351883  1.0000
  C   C93       1.0  0.24394452139435346  0.7481228599185882  0.5672619733712145  1.0000
  C   C94       1.0  0.21758047785250473  0.7392605633008478  0.5561836945423223  1.0000
  C   C95       1.0  0.209583266349851  0.7582481703530753  0.5494294084406025  1.0000
  C   C96       1.0  0.2275497593732311  0.7856892182735372  0.5544242663513748  1.0000
  H   H61       1.0  0.2823529055560051  0.7821852273040687  0.5796566899913075  1.0000
  H   H62       1.0  0.25022680309261364  0.733605129780588  0.573061185537972  1.0000
  H   H63       1.0  0.1891909576666116  0.7517692912965048  0.541895495304801  1.0000
  H   H64       1.0  0.2208865075546902  0.8001454796234363  0.5501201049369268  1.0000
  C   C97       1.0  0.4316535261276997  0.5716218297391735  0.5342373258229934  1.0000
  C   C98       1.0  0.440178719237138  0.5531097088341634  0.5412795222645997  1.0000
  C   C99       1.0  0.462751746307862  0.5606614476939625  0.5620097648085468  1.0000
  C   C100      1.0  0.47715734231192136  0.5868674366607362  0.5752432537036064  1.0000
  C   C101      1.0  0.46905661656927267  0.6056065848532999  0.567600136013761  1.0000
  C   C102      1.0  0.4461585287752594  0.5979009876022522  0.5473045519894085  1.0000
  H   H65       1.0  0.42934458880897547  0.5329361212319284  0.5309228705110107  1.0000
  H   H66       1.0  0.4690391655598008  0.5461547578179952  0.567796599283327  1.0000
  H   H67       1.0  0.48020727650844053  0.6259176372162683  0.5776314494796817  1.0000
  H   H68       1.0  0.43967788630256804  0.6123130484089907  0.5417630098141778  1.0000
  C   C103      1.0  0.35583069689044433  0.49867824954626677  0.35030467262699394  1.0000
  C   C104      1.0  0.34623480267373663  0.49510704550756235  0.3171850798154102  1.0000
  C   C105      1.0  0.363133168857112  0.5092983058431606  0.2920435414809007  1.0000
  C   C106      1.0  0.3898486517097483  0.5269282960863435  0.2998433013649916  1.0000
  C   C107      1.0  0.3993289082157786  0.5308196277534699  0.33302165228580527  1.0000
  C   C108      1.0  0.38229592990832256  0.5170647194165054  0.3582095640047582  1.0000
  H   H69       1.0  0.32576908572415814  0.48093711882600615  0.31083325017687147  1.0000
  H   H70       1.0  0.355675891331015  0.5058748591886404  0.26649270721082424  1.0000
  H   H71       1.0  0.4199027172941243  0.5446623216866484  0.3392629094920129  1.0000
  H   H72       1.0  0.3897217743721558  0.5206697013389555  0.3836719667845323  1.0000
  C   C109      1.0  0.15562489556774683  0.5523093163466848  0.6021570762589391  1.0000
  C   C110      1.0  0.14775085534945276  0.5716552901468565  0.5970014332769872  1.0000
  C   C111      1.0  0.14867036776045608  0.5816432019927253  0.5653475894117888  1.0000
  C   C112      1.0  0.15723227168400694  0.5720781893792541  0.5387732671207767  1.0000
  C   C113      1.0  0.16560353043475995  0.553154491042736  0.5441103298885537  1.0000
  C   C114      1.0  0.16510424553043612  0.5435280156623551  0.5758138630766498  1.0000
  H   H73       1.0  0.14052220218980715  0.5786066716955972  0.6173684346834828  1.0000
  H   H74       1.0  0.14230972397541017  0.5963474465806954  0.5614263301599982  1.0000
  H   H75       1.0  0.17250049571807666  0.5459030457178128  0.523695333888427  1.0000
  H   H76       1.0  0.17180466368026232  0.5291138184232216  0.5797220134572977  1.0000
  C   C115      1.0  0.2046995872450279  0.49929503519086144  0.7672576880863968  1.0000
  C   C116      1.0  0.21960022426558543  0.5012818873479464  0.7963530440749247  1.0000
  C   C117      1.0  0.22266323084691317  0.5193548153001344  0.8226116987341133  1.0000
  C   C118      1.0  0.2103350436770371  0.5351924741734848  0.8202294009900821  1.0000
  C   C119      1.0  0.19632535617996547  0.5339857799398559  0.7906218860666118  1.0000
  C   C120      1.0  0.19352560754138687  0.5161243018862883  0.764194207062357  1.0000
  H   H77       1.0  0.22851603093662265  0.4885054660776901  0.7987667126279169  1.0000
  H   H78       1.0  0.23373962508633697  0.5202627230657602  0.8451540739177469  1.0000
  H   H79       1.0  0.18692997545953383  0.5463443866319826  0.7884445206256847  1.0000
  H   H80       1.0  0.18219276397326264  0.5149252226066664  0.7417703308186634  1.0000
  C   C121      1.0  0.24140841278006184  0.472951639945734  0.5628271036630347  1.0000
  C   C122      1.0  0.24862005190237274  0.46050055124890066  0.5873593758190222  1.0000
  C   C123      1.0  0.26835657520344985  0.4532527815880846  0.5815659426787612  1.0000
  C   C124      1.0  0.28147138719473125  0.45891424875637976  0.5515832672181483  1.0000
  C   C125      1.0  0.27463301564390946  0.47187756656983315  0.5274191429849882  1.0000
  C   C126      1.0  0.25458102513447456  0.47864903736811065  0.5329417632178947  1.0000
  H   H81       1.0  0.23873090749074632  0.4560796274591036  0.6105446857322321  1.0000
  H   H82       1.0  0.27349813032136167  0.44320447732647306  0.6004167641015408  1.0000
  H   H83       1.0  0.28437651164564154  0.47618628215462405  0.5041405819107534  1.0000
  H   H84       1.0  0.2490954528568801  0.48819196145687527  0.5137626028114685  1.0000
  C   C127      1.0  0.8487826950242632  0.4283964757214547  0.015609517886439717  1.0000
  C   C128      1.0  0.8519568269886264  0.4062317373312848  0.022352421053255793  1.0000
  C   C129      1.0  0.8512324550873581  0.3983135423930897  0.05519742482277546  1.0000
  C   C130      1.0  0.8465481481215245  0.41198909534964956  0.08127482581010216  1.0000
  C   C131      1.0  0.8422976577445749  0.4334859919878222  0.07429634118763091  1.0000
  C   C132      1.0  0.8438899229493527  0.441942118551417  0.041650503402486966  1.0000
  H   H85       1.0  0.855884493661884  0.39577813119026956  0.0024572527121804466  1.0000
  H   H86       1.0  0.8545202174834763  0.38165904930651806  0.06044478735661351  1.0000
  H   H87       1.0  0.8384184132188046  0.4440172800758079  0.09411239984534048  1.0000
  H   H88       1.0  0.8414914356585339  0.4591485675491361  0.036601460433245456  1.0000
  C   C133      1.0  0.6953199898332871  0.43081787002241  0.2237755338768679  1.0000
  C   C134      1.0  0.6909605085381656  0.4257577643300515  0.18944705062144013  1.0000
  C   C135      1.0  0.7119858944556204  0.4300449533376963  0.1694920276297234  1.0000
  C   C136      1.0  0.7373712812352706  0.43919444544520253  0.18385483887616957  1.0000
  C   C137      1.0  0.7416752661517938  0.4438784789681622  0.218206172774252  1.0000
  C   C138      1.0  0.7206970354732338  0.43984869654453596  0.2381152102812833  1.0000
  H   H89       1.0  0.6716253034491165  0.41924315700583553  0.17809208972509347  1.0000
  H   H90       1.0  0.7086333752992219  0.42640543170529677  0.14288377057712578  1.0000
  H   H91       1.0  0.7613047391130324  0.4514355481434296  0.22935813191657856  1.0000
  H   H92       1.0  0.7241909090818293  0.4439666810665582  0.2646434993928656  1.0000
  C   C139      1.0  0.7183145689806691  0.39191518792596647  0.8723779796378733  1.0000
  C   C140      1.0  0.7316276996466544  0.37734639569528255  0.8677635586510145  1.0000
  C   C141      1.0  0.755962031193701  0.38886881546950425  0.8530805218711836  1.0000
  C   C142      1.0  0.7670527007214286  0.41496862356519726  0.8428475063029764  1.0000
  C   C143      1.0  0.7529026993482089  0.42906676471545463  0.845100366934051  1.0000
  C   C144      1.0  0.7284010969028752  0.4174979811537937  0.8600570335412996  1.0000
  H   H93       1.0  0.7235031042009451  0.35742537389655615  0.8765383879259783  1.0000
  H   H94       1.0  0.7666212994261408  0.3778383006564024  0.8505716775847235  1.0000
  H   H95       1.0  0.7614830049958705  0.4493079585123194  0.8370423304892616  1.0000
  H   H96       1.0  0.7179297505024508  0.42872576727169975  0.8632822888550944  1.0000
  C   C145      1.0  0.653231212337366  0.43676293236191793  0.04150511571041728  1.0000
  C   C146      1.0  0.6563073738697247  0.4274460655058958  0.07225102441596536  1.0000
  C   C147      1.0  0.6364689432703311  0.4196734344819309  0.09539250191580341  1.0000
  C   C148      1.0  0.613770724271043  0.4218931940347913  0.08820544251306768  1.0000
  C   C149      1.0  0.6106138804652629  0.4309210076881237  0.05729676355501978  1.0000
  C   C150      1.0  0.6301746465037822  0.4381398409298445  0.033896453569705096  1.0000
  H   H97       1.0  0.6740763189278192  0.4261983934512892  0.07812616030638277  1.0000
  H   H98       1.0  0.6389832225634724  0.4123814583140075  0.11887813455661175  1.0000
  H   H99       1.0  0.5931111239932388  0.4327041524657312  0.0515962752159561  1.0000
  H   H100      1.0  0.6277635479859422  0.4455228455977035  0.010334519557926969  1.0000
  C   C151      1.0  0.774681509347785  0.33915775101486334  0.2462982373615088  1.0000
  C   C152      1.0  0.7554333552341691  0.31694676250644754  0.2614726184126237  1.0000
  C   C153      1.0  0.7443554905171504  0.2916993726431039  0.24537878023925339  1.0000
  C   C154      1.0  0.7526510343832634  0.2883938665157866  0.21423000393645114  1.0000
  C   C155      1.0  0.7727280129416181  0.3104849210116895  0.19959691727858808  1.0000
  C   C156      1.0  0.7836287550619788  0.3359247299003504  0.2155182004590647  1.0000
  H   H101      1.0  0.7485438851940441  0.3193194346428304  0.28532555667096526  1.0000
  H   H102      1.0  0.7295659116837384  0.27482439252658514  0.25738771613470374  1.0000
  H   H103      1.0  0.7793227241296939  0.3080756238399461  0.17554680769378794  1.0000
  H   H104      1.0  0.7986940281693571  0.3530194233903537  0.20375118272422674  1.0000
  C   C157      1.0  0.627284889471844  0.28315453739972674  0.24789072320112532  1.0000
  C   C158      1.0  0.6093777235515146  0.26621013160591334  0.2228580821345396  1.0000
  C   C159      1.0  0.5921594878736718  0.2734578516839051  0.2065551303355101  1.0000
  C   C160      1.0  0.5935480012594142  0.29805552474455344  0.21444294210132359  1.0000
  C   C161      1.0  0.6121152405919584  0.31532216139435004  0.23871057172949614  1.0000
  C   C162      1.0  0.6285033434649185  0.3076090736629805  0.2560073688261399  1.0000
  H   H105      1.0  0.6085224078254005  0.2473575117825848  0.21628715846381044  1.0000
  H   H106      1.0  0.5779880249082301  0.26009977059282224  0.18759731273153862  1.0000
  H   H107      1.0  0.6137746313794427  0.33451801440758067  0.2444991413232625  1.0000
  H   H108      1.0  0.6425154762399056  0.3208345846826049  0.27516445995473643  1.0000
  C   C163      1.0  0.5603077845666498  0.2910860592080524  0.9168042336311788  1.0000
  C   C164      1.0  0.5852326413426392  0.30995124494517434  0.9068950517644071  1.0000
  C   C165      1.0  0.5906773405620803  0.3363717530509664  0.9021963006210652  1.0000
  C   C166      1.0  0.5710721998178211  0.3437824905163053  0.906889258061764  1.0000
  C   C167      1.0  0.5460536447383685  0.3247453172414236  0.9161044216799263  1.0000
  C   C168      1.0  0.5407733515562165  0.29855414872320646  0.9213419527603123  1.0000
  H   H109      1.0  0.6003866046957116  0.30428610392058686  0.9031754992131008  1.0000
  H   H110      1.0  0.6100081852381214  0.35089800206573923  0.8947098041013366  1.0000
  H   H111      1.0  0.530856510748784  0.33035100030873543  0.919749909573995  1.0000
  H   H112      1.0  0.5214700904088988  0.2840055633339781  0.9289084606989483  1.0000
  C   C169      1.0  0.6352166647341281  0.21917984963705187  0.022060885732276603  1.0000
  C   C170      1.0  0.6540361837603949  0.22370044669784298  0.047788069095165295  1.0000
  C   C171      1.0  0.6464245419467721  0.21787327781760749  0.0806984917890759  1.0000
  C   C172      1.0  0.619820067634943  0.20712586920632967  0.08806104972875776  1.0000
  C   C173      1.0  0.6010348366414389  0.20280573649576494  0.06236545631448097  1.0000
  C   C174      1.0  0.6086956028201761  0.20897439376724314  0.02952061792038009  1.0000
  H   H113      1.0  0.6745718535816523  0.23149564754611174  0.04219587989233102  1.0000
  H   H114      1.0  0.6610302629231372  0.22119255672474988  0.10024429989780963  1.0000
  H   H115      1.0  0.5804251238139818  0.19446372629693998  0.06789533309311761  1.0000
  H   H116      1.0  0.5940336318400771  0.2053466584261687  0.009931286770807013  1.0000
  C   C175      1.0  0.746949144158613  0.30490475146644413  0.887297118938021  1.0000
  C   C176      1.0  0.7246747172334993  0.2825604008014018  0.898064668319281  1.0000
  C   C177      1.0  0.6995481046622061  0.27514048322100504  0.8836189515005648  1.0000
  C   C178      1.0  0.6967002021621708  0.2899384550358784  0.8582705694319013  1.0000
  C   C179      1.0  0.7192216449417291  0.31113586817834155  0.8460661026594242  1.0000
  C   C180      1.0  0.7442902930641805  0.3186865426110136  0.8606891750444534  1.0000
  H   H117      1.0  0.7266331782216587  0.2716025836795301  0.9184342014092257  1.0000
  H   H118      1.0  0.6823453946179884  0.25842232100025664  0.89275663813537  1.0000
  H   H119      1.0  0.7171512857431119  0.32249858398807446  0.8262504892096186  1.0000
  H   H120      1.0  0.7614490211955468  0.33549944420977845  0.8517689264810564  1.0000
  C   C181      1.0  0.014449268203109211  0.3919513003121902  0.6408744638460234  1.0000
  C   C182      1.0  0.03692216470068965  0.41052146459868655  0.6598997193974883  1.0000
  C   C183      1.0  0.06233111215443336  0.41476041424457105  0.6527411171334704  1.0000
  C   C184      1.0  0.06559307717499133  0.40046490254520417  0.6263669430760842  1.0000
  C   C185      1.0  0.043127450077987975  0.38165679247581846  0.6074860085727715  1.0000
  C   C186      1.0  0.017645783922594305  0.3774598761625973  0.6146077025311494  1.0000
  H   H121      1.0  0.03462502934135836  0.42166956840465675  0.680423752477927  1.0000
  H   H122      1.0  0.07937787962453136  0.4290302600825767  0.6677272202328091  1.0000
  H   H123      1.0  0.04543036405994186  0.3704264471189248  0.5870832743986111  1.0000
  H   H124      1.0  0.0005271911984054967  0.36307623468664946  0.5998110040426626  1.0000
  C   C187      1.0  0.871232808116888  0.3371743041340396  0.7464727648046056  1.0000
  C   C188      1.0  0.8517952967713268  0.3329166481037639  0.7691098813214311  1.0000
  C   C189      1.0  0.8579321426603074  0.3496658594890992  0.7977309353656392  1.0000
  C   C190      1.0  0.8836848767982827  0.3703564015400892  0.8043884460334356  1.0000
  C   C191      1.0  0.9031814770821711  0.3744554821783039  0.7818570528136641  1.0000
  C   C192      1.0  0.8969128390870131  0.35811854569923934  0.7527496627964866  1.0000
  H   H125      1.0  0.8318394506784037  0.31688202941010274  0.7642294534402887  1.0000
  H   H126      1.0  0.8428075775967482  0.34636068045528506  0.8147973099620931  1.0000
  H   H127      1.0  0.9231948263288478  0.39036421244025593  0.7868835257343332  1.0000
  H   H128      1.0  0.9121110697027435  0.3614175030905824  0.7355529103311812  1.0000
  C   C193      1.0  0.6545772429290614  0.03185835735499769  0.4860348917963655  1.0000
  C   C194      1.0  0.6455506469647582  0.008780777970389675  0.5045365047660169  1.0000
  C   C195      1.0  0.627130969277222  0.9834584600808074  0.4904576694418085  1.0000
  C   C196      1.0  0.6181197558046142  0.9808149221510469  0.45727344401218495  1.0000
  C   C197      1.0  0.6270974079726523  0.003888361224126724  0.4388349550655466  1.0000
  C   C198      1.0  0.6449201630831211  0.029285719899035428  0.45319781245781865  1.0000
  H   H129      1.0  0.6528906926173372  0.01055168282603325  0.5299542327420761  1.0000
  H   H130      1.0  0.6204020611322503  0.9660037590049921  0.5050827292833613  1.0000
  H   H131      1.0  0.6204275155231687  0.002081566809108537  0.41310180113715544  1.0000
  H   H132      1.0  0.6518370077091731  0.046754728159662744  0.4385353606305497  1.0000
  C   C199      1.0  0.6998333693299419  0.16322685145452753  0.357577952958506  1.0000
  C   C200      1.0  0.7007011471498877  0.18591462125432973  0.3439635268912805  1.0000
  C   C201      1.0  0.6839535871022675  0.18339214902256237  0.31654650614091145  1.0000
  C   C202      1.0  0.6667243880010075  0.15822101061912228  0.3019656025627308  1.0000
  C   C203      1.0  0.6660687073753155  0.1355549982210307  0.31543181102056345  1.0000
  C   C204      1.0  0.6825123588465587  0.13801505970711458  0.34317597602993394  1.0000
  H   H133      1.0  0.7141991536587509  0.205499617377116  0.35479043478580174  1.0000
  H   H134      1.0  0.6843722294070886  0.20095638000811034  0.3068869840076073  1.0000
  H   H135      1.0  0.6528843103817599  0.11599066682160859  0.3042356506509622  1.0000
  H   H136      1.0  0.6820650966055335  0.12042449495816247  0.353155595453064  1.0000
  C   C205      1.0  0.783368327090249  0.22173740789668114  0.5502737457686253  1.0000
  C   C206      1.0  0.8022695941835469  0.21698379359080056  0.5350346707864286  1.0000
  C   C207      1.0  0.829051752189317  0.23690276419043535  0.5363925998199451  1.0000
  C   C208      1.0  0.8373128483450505  0.26160617420844823  0.5534181577351995  1.0000
  C   C209      1.0  0.818377735865655  0.2663652693602001  0.5684551606426186  1.0000
  C   C210      1.0  0.7916340035352489  0.2465095916474462  0.5670157123032383  1.0000
  H   H137      1.0  0.7963678366410887  0.19770605852850998  0.5229902970980911  1.0000
  H   H138      1.0  0.8435716135386968  0.23289832095798527  0.5249345596762967  1.0000
  H   H139      1.0  0.8243031614284936  0.2853285447582218  0.5812915672903979  1.0000
  H   H140      1.0  0.7772030851138502  0.2503758214734027  0.5789810388677902  1.0000
  C   C211      1.0  0.987784793943879  0.5963149184513646  0.49830592068747737  1.0000
  C   C212      1.0  0.9907147519405971  0.5902153653782535  0.4654421842384266  1.0000
  C   C213      1.0  0.016132968444829476  0.5985140454019098  0.4536621966892043  1.0000
  C   C214      1.0  0.03897891808180296  0.6126644068972731  0.4745772845809423  1.0000
  C   C215      1.0  0.0360278926625814  0.6181326645464937  0.5077290406662107  1.0000
  C   C216      1.0  0.010576479275541617  0.610173711131711  0.5194108241748583  1.0000
  H   H141      1.0  0.9734737640912013  0.5797676186001759  0.448787456425547  1.0000
  H   H142      1.0  0.01816658560018779  0.5943038049544679  0.42794073861466675  1.0000
  H   H143      1.0  0.053379708851571346  0.6291518337390137  0.5240761512474883  1.0000
  H   H144      1.0  0.008594223081634489  0.6151078041839745  0.5448561848352207  1.0000
  C   C217      1.0  0.8881439258542181  0.44537794427348226  0.5089326443688187  1.0000
  C   C218      1.0  0.8956672251961914  0.42551470995234847  0.5115256337420385  1.0000
  C   C219      1.0  0.8952253136583135  0.41419112557574017  0.5422139256898045  1.0000
  C   C220      1.0  0.8872780848067917  0.4227800291234767  0.5703326110871352  1.0000
  C   C221      1.0  0.8798181493615831  0.4426309043852562  0.5676563147017245  1.0000
  C   C222      1.0  0.8801165379608228  0.4537824972278525  0.5370517266476812  1.0000
  H   H145      1.0  0.9018344108592738  0.41886839394210246  0.48981848868251376  1.0000
  H   H146      1.0  0.9009523184824949  0.39882281243357837  0.5440913176633811  1.0000
  H   H147      1.0  0.8734356655448466  0.4491854753653696  0.5892456109695066  1.0000
  H   H148      1.0  0.8735526262269747  0.4684612324662369  0.5351750113875777  1.0000
  C   C223      1.0  0.8646871598298248  0.5247783135350391  0.3465739615235369  1.0000
  C   C224      1.0  0.8464575443637246  0.515214841673526  0.31929473792737045  1.0000
  C   C225      1.0  0.8516302115190523  0.5043065673656608  0.29066259414538953  1.0000
  C   C226      1.0  0.8754756321756554  0.5037108251068539  0.28872539553795656  1.0000
  C   C227      1.0  0.8939604397549556  0.5137999179070526  0.3157398451576452  1.0000
  C   C228      1.0  0.8884107166868265  0.5239026347278294  0.34481210085249664  1.0000
  H   H149      1.0  0.8281358553502246  0.5159681929363814  0.3204201334048712  1.0000
  H   H150      1.0  0.8374161664071862  0.4969356732672199  0.2698113856383399  1.0000
  H   H151      1.0  0.9125178771027578  0.5135481261603828  0.3143366795107974  1.0000
  H   H152      1.0  0.902703895303074  0.5314846139614754  0.36559504056049147  1.0000
  C   C229      1.0  0.6426007103025485  0.6034228887554056  0.6474158461708661  1.0000
  C   C230      1.0  0.6564969666998661  0.6185744186194058  0.6210262932130662  1.0000
  C   C231      1.0  0.6514494759490769  0.6388251721851826  0.609348113025561  1.0000
  C   C232      1.0  0.632013877559366  0.64363475765565  0.6232920159192246  1.0000
  C   C233      1.0  0.6175310170993239  0.6278393841236698  0.6488520510260171  1.0000
  C   C234      1.0  0.6230724811447571  0.6081684707363602  0.6611727660551732  1.0000
  H   H153      1.0  0.6717800843686252  0.6153379085736076  0.6104415203043985  1.0000
  H   H154      1.0  0.6628587197803719  0.6509739009493124  0.5896111688913975  1.0000
  H   H155      1.0  0.602159458966094  0.630836467633819  0.6592467553275855  1.0000
  H   H156      1.0  0.6121752756105322  0.5964935493134051  0.6815151558982296  1.0000
  C   C235      1.0  0.6742748291666926  0.4802839945516206  0.7397602043261466  1.0000
  C   C236      1.0  0.6731608138081929  0.4597003271846759  0.7590347066546702  1.0000
  C   C237      1.0  0.6742963958491475  0.4620753045905057  0.7939068731916931  1.0000
  C   C238      1.0  0.6765072002855876  0.4850954390967397  0.8098562514405309  1.0000
  C   C239      1.0  0.6780252566703531  0.5058685465305215  0.7905781971236546  1.0000
  C   C240      1.0  0.6768571860510428  0.5034790216377312  0.7556506110867903  1.0000
  H   H157      1.0  0.6713226164119926  0.44175042414538995  0.7469257350306021  1.0000
  H   H158      1.0  0.6734488283653258  0.4460665886819638  0.8083892327967186  1.0000
  H   H159      1.0  0.6798165459593204  0.5237929375495715  0.8027062704091906  1.0000
  H   H160      1.0  0.6777845874446395  0.5194958246777309  0.7410667158964597  1.0000
  C   C241      1.0  0.7730663405016432  0.5517396203730505  0.5816697406658731  1.0000
  C   C242      1.0  0.8005748802071981  0.5663984188721348  0.5783389123421714  1.0000
  C   C243      1.0  0.8141993053089651  0.555367857251163  0.560947216911657  1.0000
  C   C244      1.0  0.8004195299604946  0.5293955351946452  0.5468716168224432  1.0000
  C   C245      1.0  0.7729409286886876  0.5147670668170421  0.550240479620047  1.0000
  C   C246      1.0  0.759312482155466  0.5258701535527169  0.5673283155044933  1.0000
  H   H161      1.0  0.8114345951939644  0.5864287862838338  0.5893495752900098  1.0000
  H   H162      1.0  0.835340891490144  0.5668760214504988  0.5586899026177315  1.0000
  H   H163      1.0  0.7620579809105071  0.4946883403387475  0.5393967373186136  1.0000
  H   H164      1.0  0.7381550645565818  0.5143830788494592  0.5693854039893606  1.0000
  C   C247      1.0  0.3991426932094941  0.973279681877821  0.6303364648209665  1.0000
  C   C248      1.0  0.4166006444998764  0.9961138355942603  0.6498536272650021  1.0000
  C   C249      1.0  0.42768367021025805  0.021710075715987483  0.6368453702554122  1.0000
  C   C250      1.0  0.42099970221399  0.024804053762017254  0.6042859980429491  1.0000
  C   C251      1.0  0.40365840490157495  0.0019500170506900874  0.5846651430544136  1.0000
  C   C252      1.0  0.3929357523980157  0.9762908930364315  0.5975059956819501  1.0000
  H   H165      1.0  0.42150651376027515  0.9939969671918972  0.6752883965123978  1.0000
  H   H166      1.0  0.4408818081941838  0.03907761900610077  0.6522986658872048  1.0000
  H   H167      1.0  0.39822950782503375  0.004110073365748648  0.5595099268607782  1.0000
  H   H168      1.0  0.37935468970714264  0.9589229664819062  0.5823145228553415  1.0000
  C   C253      1.0  0.5815462629111094  0.12840479421186324  0.5843435135861054  1.0000
  C   C254      1.0  0.5742849576115143  0.1388190649208475  0.5574483466790914  1.0000
  C   C255      1.0  0.5886148707288692  0.14451251968200443  0.528486201087464  1.0000
  C   C256      1.0  0.6102927183828621  0.13990204954236848  0.5263155036820129  1.0000
  C   C257      1.0  0.6176151173091999  0.1296265592503967  0.5532946063136217  1.0000
  C   C258      1.0  0.6033021321282128  0.12394664722834486  0.5822639952303539  1.0000
  H   H169      1.0  0.5577049579116476  0.14257718117904236  0.5589472526344144  1.0000
  H   H170      1.0  0.582898913113925  0.15255074523525777  0.507765346619703  1.0000
  H   H171      1.0  0.6341602190445537  0.12585254827511402  0.551832731964009  1.0000
  H   H172      1.0  0.6089746720114786  0.11583727605667839  0.6029585399629264  1.0000
  C   C259      1.0  0.5149174574868197  0.16243046536439287  0.7455178587386864  1.0000
  C   C260      1.0  0.5263303673947972  0.18494429562911902  0.7673952144053774  1.0000
  C   C261      1.0  0.5414816418160918  0.18574620525285118  0.7957006430534244  1.0000
  C   C262      1.0  0.5446900558255616  0.163678087176191  0.8030515203516161  1.0000
  C   C263      1.0  0.5330245195694715  0.1410068185246522  0.7813117874700359  1.0000
  C   C264      1.0  0.5184732922126151  0.14049113083602055  0.7523917790150587  1.0000
  H   H173      1.0  0.5235945710274339  0.20195894862263897  0.7622816522746514  1.0000
  H   H174      1.0  0.5502931581800494  0.20337703206659796  0.8119183969959315  1.0000
  H   H175      1.0  0.535075101956371  0.12368303450135806  0.7869809495395179  1.0000
  H   H176      1.0  0.5093634223853359  0.12284802957678012  0.735943649226935  1.0000
  C   C265      1.0  0.42130170332749467  0.37849951587202113  0.46897583942936494  1.0000
  C   C266      1.0  0.3973891880286967  0.37880253308089956  0.473510994252915  1.0000
  C   C267      1.0  0.3964752017285211  0.4030000782408001  0.4746714711896063  1.0000
  C   C268      1.0  0.41953410295287213  0.42711932631330085  0.4712267738974457  1.0000
  C   C269      1.0  0.4433239952468601  0.42676366185161857  0.46595724442948505  1.0000
  C   C270      1.0  0.44419847207668556  0.4025876811037211  0.4646262398663593  1.0000
  H   H177      1.0  0.3795146509504167  0.36022322396349177  0.4766151196971178  1.0000
  H   H178      1.0  0.37801500492680096  0.4029801221528878  0.4786277276473481  1.0000
  H   H179      1.0  0.4612059709542509  0.4453329349513345  0.46290385121286026  1.0000
  H   H180      1.0  0.46256634248002315  0.40257248286830344  0.4601937257306768  1.0000
  C   C271      1.0  0.5550775714839601  0.4126402878684836  0.5643319133456275  1.0000
  C   C272      1.0  0.5756581749543455  0.42435630285928466  0.5886901338944921  1.0000
  C   C273      1.0  0.5982004853863514  0.4486801207479046  0.5832861003845399  1.0000
  C   C274      1.0  0.5999951757074921  0.46149769101376303  0.5536927976184906  1.0000
  C   C275      1.0  0.5789541183192284  0.45026393487482025  0.5299016298805318  1.0000
  C   C276      1.0  0.5565928812250038  0.42578129158336575  0.5350828087448207  1.0000
  H   H181      1.0  0.5745192110468863  0.41434937738743155  0.6114561173305341  1.0000
  H   H182      1.0  0.6144115242997273  0.4572192302332694  0.6017275061605679  1.0000
  H   H183      1.0  0.5801240178570818  0.4605154671277205  0.5073486395243405  1.0000
  H   H184      1.0  0.5406437149486467  0.41712603587095837  0.5164168296024124  1.0000
  C   C277      1.0  0.5374422196789159  0.3578016248591118  0.3769275978817854  1.0000
  C   C278      1.0  0.5589612274731278  0.36291709069216743  0.3574950463271238  1.0000
  C   C279      1.0  0.5612188023511399  0.37411581742791983  0.3264585306749053  1.0000
  C   C280      1.0  0.5416262715793012  0.379645091345578  0.314039557650678  1.0000
  C   C281      1.0  0.5201809124674729  0.37479391563686926  0.33363020610905875  1.0000
  C   C282      1.0  0.5181295835371825  0.36400660361902365  0.3651101009531071  1.0000
  H   H185      1.0  0.5739753238493692  0.35814209020817767  0.36637435088925097  1.0000
  H   H186      1.0  0.5782436905764703  0.3786048665108331  0.31227266604191134  1.0000
  H   H187      1.0  0.5049821770280267  0.37915767656208826  0.3242808983543528  1.0000
  H   H188      1.0  0.5014376624240967  0.3601379218047442  0.37991854706364747  1.0000
  C   C283      1.0  0.46834765597346883  0.23875625233894998  0.5348786661579683  1.0000
  C   C284      1.0  0.45781143655147183  0.2183009691333408  0.5575598113590693  1.0000
  C   C285      1.0  0.46913377775360426  0.20161218737605524  0.5628926971146085  1.0000
  C   C286      1.0  0.49073913947481546  0.20482900087343234  0.544917300957184  1.0000
  C   C287      1.0  0.501183151364558  0.22520643442339733  0.5221661498838577  1.0000
  C   C288      1.0  0.49025129364127984  0.24228236135645886  0.5173974795393361  1.0000
  H   H189      1.0  0.4408710205473366  0.21545135767162177  0.5712247077496403  1.0000
  H   H190      1.0  0.4609572298962568  0.18609268685340852  0.5805747258277331  1.0000
  H   H191      1.0  0.5178266113590294  0.22775498950365522  0.5080483102329011  1.0000
  H   H192      1.0  0.49850202546105604  0.2578624478487603  0.4997902757277494  1.0000
  N   N1        1.0  0.4285474164452486  0.860508767659832  0.9202702610385591  1.0000
  C   C289      1.0  0.44012688671960404  0.8687679516303336  0.954492282302215  1.0000
  C   C290      1.0  0.39970947995746314  0.8504658980480965  0.9203499213224345  1.0000
  C   C291      1.0  0.43378994173401303  0.8391997283454006  0.9073494123204552  1.0000
  C   C292      1.0  0.4404858323080675  0.8834713472320611  0.8986609770137559  1.0000
  H   H193      1.0  0.4618814462472683  0.8764695017925522  0.9553406116403362  1.0000
  H   H194      1.0  0.4316044464742162  0.8516830047421647  0.9712210919369846  1.0000
  H   H195      1.0  0.4363895247643772  0.8846877215273309  0.965237517105632  1.0000
  H   H196      1.0  0.39030953521032624  0.8436860048854273  0.894881593501919  1.0000
  H   H197      1.0  0.39001396620706685  0.8332490915557214  0.9366147740181847  1.0000
  H   H198      1.0  0.3950010587662002  0.8661400173684801  0.9294852752677465  1.0000
  H   H199      1.0  0.4248810279574045  0.8213795124640931  0.9227722369133126  1.0000
  H   H200      1.0  0.45533259297755047  0.8459080735048904  0.9071289585910262  1.0000
  H   H201      1.0  0.4255112381013571  0.8327517817781787  0.8814413884487416  1.0000
  H   H202      1.0  0.46220966835373134  0.8914340157024087  0.8976606129646592  1.0000
  H   H203      1.0  0.43695866184771576  0.9000137199831788  0.9075478383060668  1.0000
  H   H204      1.0  0.4319356050483867  0.8776319120391719  0.8726752531915298  1.0000
  N   N2        1.0  0.3318130470099975  0.5796578498069827  0.30162032915825004  1.0000
  C   C293      1.0  0.3167510018436434  0.5786653499662843  0.2708838372613291  1.0000
  C   C294      1.0  0.32319823959160765  0.5905033837838126  0.3294090842424714  1.0000
  C   C295      1.0  0.3603394740110545  0.5971393590270212  0.2974218024340836  1.0000
  C   C296      1.0  0.3269542458046757  0.5524681448088223  0.30874124982167805  1.0000
  H   H205      1.0  0.3229424881985252  0.5709469888606353  0.24924486797980017  1.0000
  H   H206      1.0  0.32000362968909574  0.5989016495452896  0.26482648938282455  1.0000
  H   H207      1.0  0.29512426282567067  0.5655575494853365  0.27300557054465097  1.0000
  H   H208      1.0  0.33410193285099316  0.5915747065126392  0.35308599210725206  1.0000
  H   H209      1.0  0.32668373262161865  0.6110418283627764  0.32463820955517714  1.0000
  H   H210      1.0  0.30170244132961194  0.577960214667051  0.3330431164968776  1.0000
  H   H211      1.0  0.36754949596353786  0.5896316219386943  0.2765838958076892  1.0000
  H   H212      1.0  0.3723581737606228  0.5984754703673748  0.3201518657118418  1.0000
  H   H213      1.0  0.3646209919016547  0.6177448481256352  0.2916228302052363  1.0000
  H   H214      1.0  0.3380641194473506  0.5524282997771575  0.3317525156335726  1.0000
  H   H215      1.0  0.33329261594977133  0.5437511050181942  0.2882430685741151  1.0000
  H   H216      1.0  0.3056036524106855  0.5386731472258849  0.3118761270637045  1.0000
  N   N3        1.0  0.14427751162522934  0.4739667667174645  0.8605718053991849  1.0000
  C   C297      1.0  0.1242656684408211  0.4457022460830108  0.8541731041166182  1.0000
  C   C298      1.0  0.14310294771805318  0.48978731590563623  0.8328031606635455  1.0000
  C   C299      1.0  0.17079587463809034  0.4761258163451403  0.8634768024546418  1.0000
  C   C300      1.0  0.13908189312272232  0.48434236625217714  0.8918147766348243  1.0000
  H   H217      1.0  0.12782129444504692  0.4375185803080075  0.830652961524572  1.0000
  H   H218      1.0  0.1039658540383772  0.4432685555833092  0.8518847410296955  1.0000
  H   H219      1.0  0.12468480088174913  0.43314366347228184  0.8745533650436382  1.0000
  H   H220      1.0  0.14875624609542476  0.4838214570940155  0.8091446174578848  1.0000
  H   H221      1.0  0.12299104103185059  0.4875034692722698  0.8286621702078709  1.0000
  H   H222      1.0  0.15684271391579727  0.511441792284249  0.8377520954811207  1.0000
  H   H223      1.0  0.1861883715307672  0.49707383000133465  0.8694573416789494  1.0000
  H   H224      1.0  0.17602012973244677  0.4695900734627196  0.839911862841309  1.0000
  H   H225      1.0  0.1722809770696786  0.4638948376687676  0.8835719623602739  1.0000
  H   H226      1.0  0.15405118296177384  0.5056962900083948  0.897141820227171  1.0000
  H   H227      1.0  0.14001172650361893  0.4730396428351456  0.913400092321722  1.0000
  H   H228      1.0  0.11929106145330448  0.48319271512260764  0.890587605510156  1.0000
  N   N4        1.0  0.32763428285072427  0.6731375423441518  0.16037500169590224  1.0000
  C   C301      1.0  0.30911638084607934  0.6711852956529158  0.1859426844178147  1.0000
  C   C302      1.0  0.32596736417800926  0.646760677137224  0.15438824811288665  1.0000
  C   C303      1.0  0.3547395645625436  0.6927013168204872  0.1721935865694071  1.0000
  C   C304      1.0  0.32074145816435706  0.6819939142267075  0.12931472708577485  1.0000
  H   H229      1.0  0.3105679986233603  0.6909346183256478  0.1920581756616293  1.0000
  H   H230      1.0  0.3131967247993666  0.6635026491012038  0.2091638494333763  1.0000
  H   H231      1.0  0.2883741219757046  0.6573801185065343  0.1776894187036786  1.0000
  H   H232      1.0  0.3400218530863677  0.6476007000554876  0.1355832649938029  1.0000
  H   H233      1.0  0.3309661198105742  0.6395548905615192  0.17755079758415016  1.0000
  H   H234      1.0  0.30565737057329817  0.6315353174779438  0.14552617450337957  1.0000
  H   H235      1.0  0.35649623949277487  0.7126614497173173  0.17778603057795261  1.0000
  H   H236      1.0  0.36945901665220193  0.6951335142583288  0.1535414825356496  1.0000
  H   H237      1.0  0.36047099168936303  0.6864396700214583  0.19547066804837465  1.0000
  H   H238      1.0  0.32188544548843157  0.7018843382935256  0.13318497419412267  1.0000
  H   H239      1.0  0.30027109605258284  0.6676904571205843  0.11982268400766971  1.0000
  H   H240      1.0  0.3344607101529489  0.6838057073278112  0.10952466179987397  1.0000
  N   N5        1.0  0.47292657777788377  0.6899535649701346  0.7708011348846195  1.0000
  C   C305      1.0  0.45062624945418966  0.6954728098822227  0.765142003899794  1.0000
  C   C306      1.0  0.482032021359494  0.695747322334565  0.8061454538822813  1.0000
  C   C307      1.0  0.4948923773543265  0.7070080310246405  0.7499415454339285  1.0000
  C   C308      1.0  0.4641306867151978  0.6615707219786746  0.7620122090267187  1.0000
  H   H241      1.0  0.4333979832052096  0.6822896561499324  0.7796664034771078  1.0000
  H   H242      1.0  0.44373651260703995  0.6921707598554057  0.7385577862494832  1.0000
  H   H243      1.0  0.45611562910002224  0.7164058348309266  0.7728371910500118  1.0000
  H   H244      1.0  0.4986074411685987  0.6914831767200372  0.8115591013410501  1.0000
  H   H245      1.0  0.4888322861893748  0.7169710305552511  0.8137703678013817  1.0000
  H   H246      1.0  0.46591439086677305  0.6833907027945101  0.822533169359059  1.0000
  H   H247      1.0  0.5019396768336527  0.7285539342118239  0.7557661919100789  1.0000
  H   H248      1.0  0.4888889607831382  0.7029529049598293  0.7230554133095033  1.0000
  H   H249      1.0  0.5120928616716409  0.7034449370449231  0.7537437852224141  1.0000
  H   H250      1.0  0.45767254591363754  0.6566060163794668  0.7353368076716552  1.0000
  H   H251      1.0  0.4472394070919119  0.6480937719400592  0.7768458909299988  1.0000
  H   H252      1.0  0.48025511652162683  0.6564929767900933  0.7666799874875517  1.0000
  N   N6        1.0  0.8383507982258495  0.43408623602659474  0.352537856511857  1.0000
  C   C309      1.0  0.8555718630273892  0.4420724927656138  0.3239612921373032  1.0000
  C   C310      1.0  0.8127488010718131  0.41062030629387536  0.3423663665023411  1.0000
  C   C311      1.0  0.8338946746065883  0.456371741537994  0.36362143713735223  1.0000
  C   C312      1.0  0.8511967822757102  0.42734725872272444  0.3801369795874939  1.0000
  H   H253      1.0  0.8590930192674527  0.4256310237908036  0.3146221318343541  1.0000
  H   H254      1.0  0.8751504864313031  0.4596540498461371  0.33061269672240506  1.0000
  H   H255      1.0  0.8465720351972796  0.44755416669415315  0.3028105386379637  1.0000
  H   H256      1.0  0.8153502330227796  0.39345355626435613  0.3335075011781756  1.0000
  H   H257      1.0  0.7991309556067633  0.4038944448313513  0.3631843962510107  1.0000
  H   H258      1.0  0.8026246914083393  0.41509067539801286  0.3214871682551559  1.0000
  H   H259      1.0  0.8246811358268371  0.46238878550509155  0.34330024258663405  1.0000
  H   H260      1.0  0.8527927829662886  0.47427259110127185  0.371917209739026  1.0000
  H   H261      1.0  0.8207336534993314  0.4509934743751325  0.3849159660801094  1.0000
  H   H262      1.0  0.8388183043224093  0.42138544975426684  0.4022273547812069  1.0000
  H   H263      1.0  0.8705461865006213  0.4447272763340647  0.38847033853245877  1.0000
  H   H264      1.0  0.8549389199416351  0.4106281614136527  0.3727727281336024  1.0000
  N   N7        1.0  0.5162211148926851  0.8100442712065558  0.5812567472076856  1.0000
  C   C313      1.0  0.501795151904557  0.817847655948422  0.604893903079123  1.0000
  C   C314      1.0  0.5229315020548237  0.7906716862000165  0.5964106190248415  1.0000
  C   C315      1.0  0.5407893018533404  0.8339521591144639  0.5729181549796433  1.0000
  C   C316      1.0  0.49939064215082035  0.7977371023318837  0.5507403472133318  1.0000
  H   H265      1.0  0.49632172480358194  0.8323354631374247  0.593980486923532  1.0000
  H   H266      1.0  0.5139898099018805  0.8275312199687166  0.6280574728246717  1.0000
  H   H267      1.0  0.483153447195721  0.8003027712627652  0.6117821859537158  1.0000
  H   H268      1.0  0.534341896575945  0.7848862482426241  0.5794222451783749  1.0000
  H   H269      1.0  0.5353135949007838  0.7991187255278163  0.6197433798380831  1.0000
  H   H270      1.0  0.5048991632310236  0.7720244491727283  0.6022328002220363  1.0000
  H   H271      1.0  0.5517345594371545  0.8289366170902365  0.554394200004727  1.0000
  H   H272      1.0  0.5543195443344758  0.84344104607057  0.5951280827393307  1.0000
  H   H273      1.0  0.5366195053625076  0.8492437886898708  0.5619718585303293  1.0000
  H   H274      1.0  0.49395009861654166  0.8118547567552212  0.5386913135872295  1.0000
  H   H275      1.0  0.48068540442338636  0.7796165623703251  0.5560330291208719  1.0000
  H   H276      1.0  0.5096733823718946  0.7916912554874526  0.5322461050192465  1.0000
  N   N8        1.0  0.19298497607570192  0.5879611950021665  0.41001837874352054  1.0000
  C   C317      1.0  0.2027589256914755  0.5902372525707539  0.37614946974565183  1.0000
  C   C318      1.0  0.21401867951911827  0.5916300698743598  0.43468540301489306  1.0000
  C   C319      1.0  0.16983030349409828  0.5613276535984728  0.4129596049784738  1.0000
  C   C320      1.0  0.18520949706980164  0.6087091024162182  0.4163594557754269  1.0000
  H   H277      1.0  0.1871244465126422  0.5871852695991714  0.35703894429603356  1.0000
  H   H278      1.0  0.20920103884163216  0.5751553527628587  0.37053024738095613  1.0000
  H   H279      1.0  0.219836214824157  0.6103289455761152  0.37272526060958433  1.0000
  H   H280      1.0  0.2316563788189358  0.6116636057363299  0.43337110065742146  1.0000
  H   H281      1.0  0.2070277186884007  0.589942812382294  0.4604700946806384  1.0000
  H   H282      1.0  0.22047666294918455  0.576353708093892  0.43076270447040227  1.0000
  H   H283      1.0  0.15348759172434034  0.5580216621173001  0.39488619521768525  1.0000
  H   H284      1.0  0.16188316148253792  0.5590157063019272  0.43818523443216684  1.0000
  H   H285      1.0  0.1749659734071437  0.5451473251742434  0.4083980731625643  1.0000
  H   H286      1.0  0.16811435985697076  0.6054669185207463  0.39986230145367413  1.0000
  H   H287      1.0  0.20171555015298687  0.6290504232542117  0.41260651887073796  1.0000
  H   H288      1.0  0.17919998453053448  0.6086718601451815  0.44221441343011764  1.0000
  N   N9        1.0  0.5262318641956047  0.2982736501668596  0.27774011785234387  1.0000
  C   C321      1.0  0.5157517697591271  0.27170210939438083  0.26074984168973236  1.0000
  C   C322      1.0  0.5251839991117573  0.31716544657198215  0.25423992325638783  1.0000
  C   C323      1.0  0.5539068123051117  0.30770481100061564  0.28943462850709517  1.0000
  C   C324      1.0  0.5102010507862508  0.2965905541045645  0.30639180257109766  1.0000
  H   H289      1.0  0.5161816477433256  0.2568670073961281  0.27770274162724434  1.0000
  H   H290      1.0  0.5277124580127355  0.27246310348662206  0.23915202482912312  1.0000
  H   H291      1.0  0.4950122588248617  0.2640490886839404  0.2511305847282678  1.0000
  H   H292      1.0  0.5337419271870653  0.3376369731763545  0.2657800594199755  1.0000
  H   H293      1.0  0.5364913062495457  0.31839081393647267  0.23192403409573456  1.0000
  H   H294      1.0  0.5045591388758839  0.3111576467363423  0.24552933352454  1.0000
  H   H295      1.0  0.5665191480436126  0.30949383812799836  0.26832673896722053  1.0000
  H   H296      1.0  0.555553248130083  0.29375883190774166  0.3068535903014445  1.0000
  H   H297      1.0  0.5625162882975939  0.3276471465151348  0.3024769586868044  1.0000
  H   H298      1.0  0.4891151832721451  0.28919086738202443  0.2985439380602552  1.0000
  H   H299      1.0  0.517383023260073  0.3165074846777644  0.3192145575066739  1.0000
  H   H300      1.0  0.5109852983099875  0.2829843326129257  0.32507648914670295  1.0000
  N   N10       1.0  0.15858384540336365  0.39732871205395326  0.5555912930570127  1.0000
  C   C325      1.0  0.15288567778285764  0.3804634129473473  0.5249034680950011  1.0000
  C   C326      1.0  0.1400781417435956  0.3818337294005741  0.5810854066298109  1.0000
  C   C327      1.0  0.1553518335131688  0.42081247602662913  0.5484259464046339  1.0000
  C   C328      1.0  0.18605883309097274  0.406339709066059  0.5679096500651063  1.0000
  H   H301      1.0  0.13231306196507445  0.37338271141492485  0.5149245967860647  1.0000
  H   H302      1.0  0.15524692598665374  0.3625903441798258  0.5293962955653214  1.0000
  H   H303      1.0  0.16652308790807258  0.39167969820703014  0.5051987435834282  1.0000
  H   H304      1.0  0.14380695267118682  0.3940088200582999  0.6045570516384012  1.0000
  H   H305      1.0  0.11916294488643084  0.37511569847391946  0.5728464598347152  1.0000
  H   H306      1.0  0.14184957200548756  0.36389694094975866  0.5871891983658213  1.0000
  H   H307      1.0  0.16905968859739126  0.4331327514454033  0.5293775125396182  1.0000
  H   H308      1.0  0.1599279923021013  0.43403238042240366  0.571004016917594  1.0000
  H   H309      1.0  0.13476833400251062  0.4149830129786152  0.5396759785520083  1.0000
  H   H310      1.0  0.19119053421414509  0.4195533197530266  0.5907188988727989  1.0000
  H   H311      1.0  0.20050987976960769  0.41809157052923324  0.549206525563116  1.0000
  H   H312      1.0  0.18934561026417102  0.389274279877737  0.5739722325375716  1.0000
  N   N11       1.0  0.3563165337974432  0.5005628715709424  0.9368464019230325  1.0000
  C   C329      1.0  0.3726572403224207  0.4900796205102141  0.9526475510520714  1.0000
  C   C330      1.0  0.35250753252064687  0.5181191987109961  0.961063079417878  1.0000
  C   C331      1.0  0.3303435230300598  0.47808462338598295  0.925690609137577  1.0000
  C   C332      1.0  0.369738230036132  0.5159530668660659  0.9079585965250002  1.0000
  H   H313      1.0  0.3631033566405097  0.47830496838240194  0.9744940491789902  1.0000
  H   H314      1.0  0.3923336355224476  0.5065274425309372  0.9615760351757069  1.0000
  H   H315      1.0  0.3762711448246394  0.4770849815965688  0.9349464956173058  1.0000
  H   H316      1.0  0.3396012206908362  0.5257114991700967  0.9502557627947155  1.0000
  H   H317      1.0  0.34314556740517665  0.5074375811458649  0.98364028709145  1.0000
  H   H318      1.0  0.3716648816313702  0.5357949171891028  0.9691387779342923  1.0000
  H   H319      1.0  0.31928443922648525  0.46649277017798085  0.9469436636240833  1.0000
  H   H320      1.0  0.3324755742245952  0.46420096626409973  0.907801013447051  1.0000
  H   H321      1.0  0.31774255026039583  0.48525789567606575  0.912988551882224  1.0000
  H   H322      1.0  0.3582354884290939  0.524579437613837  0.8958608252991154  1.0000
  H   H323      1.0  0.37272771440480323  0.5034048200045235  0.8888883535869491  1.0000
  H   H324      1.0  0.389472786453302  0.5329323732193484  0.9153819971026464  1.0000
  N   N12       1.0  0.680258392543334  0.48894831759145607  0.152887491589634  1.0000
  C   C333      1.0  0.6943545462258307  0.5143439553445522  0.17278476216514932  1.0000
  C   C334      1.0  0.6994237063467855  0.4804086450692758  0.14223554933868426  1.0000
  C   C335      1.0  0.6668277990351356  0.4927116332424456  0.12336395575117291  1.0000
  C   C336      1.0  0.660446140515237  0.46836791277531287  0.17329598826502277  1.0000
  H   H325      1.0  0.6805001969496351  0.5214690224459968  0.18106036578648316  1.0000
  H   H326      1.0  0.7096961602838301  0.5302836493243752  0.1583128300809654  1.0000
  H   H327      1.0  0.704430038089565  0.512026187013805  0.19545561922082827  1.0000
  H   H328      1.0  0.7107498808719467  0.4785407644453257  0.16387701846111982  1.0000
  H   H329      1.0  0.6893548626287493  0.4606771901189556  0.12851036155696857  1.0000
  H   H330      1.0  0.7139995881176221  0.4948527870605961  0.12555093343328502  1.0000
  H   H331      1.0  0.6563738947094958  0.47405947183466296  0.10752035342994525  1.0000
  H   H332      1.0  0.6810973144501292  0.5083455077084998  0.10755088837624151  1.0000
  H   H333      1.0  0.6517455828650799  0.4985266405416334  0.13045922211705682  1.0000
  H   H334      1.0  0.6491017130856942  0.44898946957687663  0.15903864145936986  1.0000
  H   H335      1.0  0.645806091688596  0.47427482784146496  0.182015414018732  1.0000
  H   H336      1.0  0.6698487159845364  0.46471271679309883  0.19565566810914603  1.0000
  N   N13       1.0  0.7555818058817821  0.5140027329252412  0.6826373119081325  1.0000
  C   C337      1.0  0.7519654581821436  0.4949074346107869  0.7085796793673267  1.0000
  C   C338      1.0  0.7390325771050417  0.4993769680663611  0.6527534473419708  1.0000
  C   C339      1.0  0.7835899233100049  0.5283322538060495  0.6739545472244862  1.0000
  C   C340      1.0  0.747587526552867  0.533450729972758  0.6950931863011182  1.0000
  H   H337      1.0  0.7641245830873244  0.5052249955687901  0.7315749456732238  1.0000
  H   H338      1.0  0.7575608544801969  0.4797432708962762  0.6999881813815162  1.0000
  H   H339      1.0  0.7309095572280185  0.4839885550581013  0.7155474662522939  1.0000
  H   H340      1.0  0.740641234103914  0.5133296355310488  0.6331678037792855  1.0000
  H   H341      1.0  0.7449697921080102  0.4850690535510375  0.6419849448983646  1.0000
  H   H342      1.0  0.7178080476044609  0.48783244822338206  0.658455598770963  1.0000
  H   H343      1.0  0.7866511348264088  0.5428008038041751  0.6542954983255592  1.0000
  H   H344      1.0  0.7903184672377093  0.5143261611487802  0.6642482726020887  1.0000
  H   H345      1.0  0.7967275698837308  0.539786619254282  0.6958233159487003  1.0000
  H   H346      1.0  0.7502435908993343  0.5482924611899503  0.6761703962265312  1.0000
  H   H347      1.0  0.7594578564445565  0.5447278068073889  0.7178357672199892  1.0000
  H   H348      1.0  0.7264252250770754  0.5233286602108884  0.7014752655793546  1.0000
  N   N14       1.0  0.5990988254155704  0.41246157093312447  0.4569263677791078  1.0000
  C   C341      1.0  0.5781628164405885  0.4178882913002633  0.44341364404029465  1.0000
  C   C342      1.0  0.6078519008067895  0.40078313704827007  0.43019825842410736  1.0000
  C   C343      1.0  0.5885764932117682  0.39342971650917274  0.48371514077460015  1.0000
  C   C344      1.0  0.6217791439377208  0.43764546672215643  0.4702717964906955  1.0000
  H   H349      1.0  0.5608229939675952  0.39933250948910026  0.4329697335875703  1.0000
  H   H350      1.0  0.5853634838486279  0.43216717213692574  0.42312507085388795  1.0000
  H   H351      1.0  0.5708722984821589  0.42644896812124544  0.46290876207023657  1.0000
  H   H352      1.0  0.6148737783188646  0.4140412830798287  0.4088619985481914  1.0000
  H   H353      1.0  0.6241906897278118  0.3971454920332252  0.43917297481124645  1.0000
  H   H354      1.0  0.5914114433429513  0.38127664793684857  0.4205232557142322  1.0000
  H   H355      1.0  0.6036413864026732  0.3883951376486573  0.4939662262570284  1.0000
  H   H356      1.0  0.5710489805446524  0.3744272452290493  0.4745881322635221  1.0000
  H   H357      1.0  0.5823221986069385  0.40175669098448535  0.5046826293152155  1.0000
  H   H358      1.0  0.6378894174601092  0.4343004327950302  0.4808939978892638  1.0000
  H   H359      1.0  0.6159746258306023  0.44708562339196745  0.4905023022350107  1.0000
  H   H360      1.0  0.6301997999598576  0.45248300998984836  0.45074488301328264  1.0000
  N   N15       1.0  0.6184171745357807  0.675444552189931  0.7348423400893594  1.0000
  C   C345      1.0  0.6407084860833557  0.6696823373007348  0.7383228699505268  1.0000
  C   C346      1.0  0.620488482322759  0.6893810965099729  0.7038184866322581  1.0000
  C   C347      1.0  0.6191261392672395  0.6925809299979221  0.7633425158133167  1.0000
  C   C348      1.0  0.5932163648074327  0.6501573245625782  0.7338904864587629  1.0000
  H   H361      1.0  0.640752123159568  0.6569764475867605  0.7169037537207552  1.0000
  H   H362      1.0  0.6396466567244788  0.6589075242179784  0.7612873752079893  1.0000
  H   H363      1.0  0.6600594059379246  0.6883298588319593  0.7393377709045315  1.0000
  H   H364      1.0  0.6392980839251567  0.7085229688848592  0.7036386805757757  1.0000
  H   H365      1.0  0.6198970378445093  0.6771075130957768  0.6816389924043816  1.0000
  H   H366      1.0  0.6040312083874652  0.6941529317434849  0.7005218903967758  1.0000
  H   H367      1.0  0.6023261373456407  0.6970253294078318  0.7613114678522954  1.0000
  H   H368      1.0  0.6377218658977277  0.7119961058455486  0.764790831256593  1.0000
  H   H369      1.0  0.6175936316639445  0.682771024198644  0.7872530013190627  1.0000
  H   H370      1.0  0.5903797779005306  0.6397172610060572  0.7575440940163947  1.0000
  H   H371      1.0  0.5921902112127646  0.6361926353556524  0.7135499845806167  1.0000
  H   H372      1.0  0.5761088148216212  0.6537598236676276  0.7298301285235735  1.0000
  N   N16       1.0  0.40483605657753896  0.4577394615447747  0.3686868510198389  1.0000
  C   C349      1.0  0.398193332568492  0.4601023096351953  0.3336904897643285  1.0000
  C   C350      1.0  0.38089350091040164  0.44832584843351164  0.3880373161728871  1.0000
  C   C351      1.0  0.4252729382457962  0.48408205914978913  0.38251692221283057  1.0000
  C   C352      1.0  0.4149450985644446  0.4384569944833997  0.3706879534805479  1.0000
  H   H373      1.0  0.390095421946802  0.4742144501372391  0.3315181507332593  1.0000
  H   H374      1.0  0.38295406284029093  0.4405742924346157  0.3223465795057085  1.0000
  H   H375      1.0  0.4158673975327927  0.4676581602468925  0.3183583661682002  1.0000
  H   H376      1.0  0.373098274499316  0.4626893782032927  0.38772369289746006  1.0000
  H   H377      1.0  0.36475062977904427  0.4288094448982842  0.3779079656483529  1.0000
  H   H378      1.0  0.3850488464328346  0.4458594062394595  0.4144429970525715  1.0000
  H   H379      1.0  0.4304025322079921  0.4831416005545528  0.4091080198230993  1.0000
  H   H380      1.0  0.4184034605586653  0.49918123232188893  0.3811516437525997  1.0000
  H   H381      1.0  0.44374340612937885  0.49170322130454086  0.368756353591932  1.0000
  H   H382      1.0  0.42022135920521075  0.4364583653708532  0.3968898770725689  1.0000
  H   H383      1.0  0.4329609755091811  0.4447918296072509  0.35624393888087097  1.0000
  H   H384      1.0  0.39990766415330536  0.41825572977184095  0.3608796270470238  1.0000
  N   N17       1.0  0.4203284446294639  0.10571425589868677  0.5231809746199906  1.0000
  C   C353      1.0  0.40192085184469706  0.10091574541525183  0.49443878185926793  1.0000
  C   C354      1.0  0.43659532821087765  0.09275665529454424  0.5162549021384394  1.0000
  C   C355      1.0  0.40511197574612334  0.09444713142878669  0.5529376585780575  1.0000
  C   C356      1.0  0.4377380817687193  0.13471996420350107  0.5291329127279791  1.0000
  H   H385      1.0  0.3893485812763235  0.11045213476261773  0.49884775626106115  1.0000
  H   H386      1.0  0.38853686765783235  0.07918149249550033  0.48932559228822015  1.0000
  H   H387      1.0  0.412807484519983  0.10919861468542735  0.471594642234813  1.0000
  H   H388      1.0  0.448350268958199  0.10063100684155168  0.4939419951930351  1.0000
  H   H389      1.0  0.450780022001717  0.09619017081184333  0.5373906603039915  1.0000
  H   H390      1.0  0.4242445582857785  0.07072921324386017  0.5124743918618903  1.0000
  H   H391      1.0  0.41843438794678156  0.09802559469720085  0.5751740522220002  1.0000
  H   H392      1.0  0.39239177282433174  0.07241330017694203  0.5498043351767127  1.0000
  H   H393      1.0  0.3922834738283301  0.10341652138227375  0.5587564332574344  1.0000
  H   H394      1.0  0.45175633959964695  0.13896560924918422  0.5507743894461844  1.0000
  H   H395      1.0  0.4262794445410706  0.14533639171865964  0.5342908834065987  1.0000
  H   H396      1.0  0.4499944254249227  0.14394866888073654  0.5075263609718368  1.0000
  N   N18       1.0  0.32122223193307337  0.6345790599595418  0.8369609317622093  1.0000
  C   C357      1.0  0.3311105319225494  0.6510978074585324  0.8077720642881434  1.0000
  C   C358      1.0  0.33495052001648395  0.6508883496079082  0.8674332871980505  1.0000
  C   C359      1.0  0.32631852748752666  0.6116241093569309  0.8341231834313824  1.0000
  C   C360      1.0  0.2924923205592388  0.6248134312447878  0.8385248058609475  1.0000
  H   H397      1.0  0.3525361433781516  0.6581576509010639  0.8051156215603026  1.0000
  H   H398      1.0  0.3285951064655912  0.6692150239503397  0.8098532671659147  1.0000
  H   H399      1.0  0.32055004993186803  0.6397644140765676  0.7843954975056763  1.0000
  H   H400      1.0  0.35675430464283014  0.6595283020475172  0.8664791785916127  1.0000
  H   H401      1.0  0.33069636328068347  0.6678134819917748  0.8709881529914226  1.0000
  H   H402      1.0  0.3285788242745992  0.6388200813638039  0.8898808752008357  1.0000
  H   H403      1.0  0.3163716799759422  0.5988817448083246  0.8113451864230523  1.0000
  H   H404      1.0  0.3189459538199594  0.5986606285084628  0.8556742321028366  1.0000
  H   H405      1.0  0.3478329235905581  0.6182029962341614  0.8331231747664799  1.0000
  H   H406      1.0  0.28132209530989927  0.6117451545552526  0.8164206313964952  1.0000
  H   H407      1.0  0.28794023904673427  0.6416511043767148  0.8398292364334102  1.0000
  H   H408      1.0  0.28441699929907505  0.6129932506098441  0.8607882862361651  1.0000
  N   N19       1.0  0.778456081327535  0.23388300857217217  0.4458944592038363  1.0000
  C   C361      1.0  0.789373823506002  0.23674023869608796  0.41267090600996564  1.0000
  C   C362      1.0  0.7735126278086731  0.20800815363581965  0.4586964892134394  1.0000
  C   C363      1.0  0.7533639601084512  0.23488360450760323  0.4434509244307702  1.0000
  C   C364      1.0  0.7974779573428943  0.2557599592985757  0.4687845116143739  1.0000
  H   H409      1.0  0.7933806417846929  0.25603736517290365  0.40213489393837104  1.0000
  H   H410      1.0  0.7753036707819627  0.22042137500773484  0.3949610631684592  1.0000
  H   H411      1.0  0.8082080616844672  0.23583803174776832  0.4136276067565431  1.0000
  H   H412      1.0  0.7637009967345907  0.2043536452349239  0.48272676815277404  1.0000
  H   H413      1.0  0.7603375333780211  0.19110519816744478  0.44134535047915824  1.0000
  H   H414      1.0  0.7921458486998337  0.2069847542568642  0.46250184759842455  1.0000
  H   H415      1.0  0.7384141300823764  0.21836715108450647  0.4267541513050211  1.0000
  H   H416      1.0  0.7562430456954687  0.2540032240933559  0.4335174803518463  1.0000
  H   H417      1.0  0.7446788200401171  0.2329164986617068  0.46819808145128444  1.0000
  H   H418      1.0  0.7895926746199143  0.2541939719606327  0.49396896530354867  1.0000
  H   H419      1.0  0.8019333195512962  0.2756466809144977  0.4598149195641284  1.0000
  H   H420      1.0  0.8165244370954771  0.255378356323491  0.47180658199130615  1.0000
  N   N20       1.0  0.7011681792767321  0.3230642763919371  0.9664113710275823  1.0000
  C   C365      1.0  0.6908810285831547  0.29390623064453236  0.9666124712248084  1.0000
  C   C366      1.0  0.6795618428984587  0.328712581066683  0.9564968374903906  1.0000
  C   C367      1.0  0.7222408182563943  0.3346537026571951  0.9424648139256198  1.0000
  C   C368      1.0  0.7119834544435877  0.3349580110084476  0.9999660875652762  1.0000
  H   H421      1.0  0.7067347091257535  0.2887403795202164  0.9727911867500291  1.0000
  H   H422      1.0  0.6818255856793971  0.28411093035773627  0.9420252975460719  1.0000
  H   H423      1.0  0.675313515492472  0.2844568214585604  0.9849444103883389  1.0000
  H   H424      1.0  0.6862348695361767  0.350485745503629  0.9578576103669657  1.0000
  H   H425      1.0  0.6723258784300442  0.32167848489316814  0.9302829357444349  1.0000
  H   H426      1.0  0.6624040443544778  0.3187297011134621  0.9724756148775836  1.0000
  H   H427      1.0  0.738914334275471  0.33069566467171707  0.9487158961300611  1.0000
  H   H428      1.0  0.7302521568528618  0.35657483722589733  0.9412845640681281  1.0000
  H   H429      1.0  0.7144978305770104  0.32598031701780816  0.9170080233195325  1.0000
  H   H430      1.0  0.6964942816882227  0.3265634240714439  0.018575246858574857  1.0000
  H   H431      1.0  0.720018976834542  0.3569665613525111  0.0007685091515807763  1.0000
  H   H432      1.0  0.7282812649888595  0.33090960598479224  0.008040085446330503  1.0000
  N   N21       1.0  0.5906872037478645  0.17022633844610147  0.7045612872886884  1.0000
  C   C369      1.0  0.5697078420312878  0.1420560385142485  0.7035445939395498  1.0000
  C   C370      1.0  0.5798470060454177  0.18755994584370966  0.7161731879911757  1.0000
  C   C371      1.0  0.6005976353240396  0.17753492192456746  0.6709583581304198  1.0000
  C   C372      1.0  0.6125791050557312  0.17371203293732043  0.7276348010238747  1.0000
  H   H433      1.0  0.5524789084606087  0.1388312541065187  0.687171907997519  1.0000
  H   H434      1.0  0.5623904083988998  0.13552724763263055  0.728616787501929  1.0000
  H   H435      1.0  0.5768971063865078  0.12846941594469222  0.6936128683161844  1.0000
  H   H436      1.0  0.562393160972659  0.18448749537972425  0.7003270269741501  1.0000
  H   H437      1.0  0.5733111252685095  0.18334294943286972  0.7419994485811255  1.0000
  H   H438      1.0  0.5948105677506444  0.2090357526082932  0.7160491514485863  1.0000
  H   H439      1.0  0.6165699622609785  0.19858656991676882  0.6706779162652681  1.0000
  H   H440      1.0  0.5845195774012462  0.17507098262186127  0.6529517349837988  1.0000
  H   H441      1.0  0.608564112087276  0.16455618518805024  0.6611772298022539  1.0000
  H   H442      1.0  0.6056982847036149  0.1683420476689465  0.7532520583946076  1.0000
  H   H443      1.0  0.6287494575853747  0.19476595489651385  0.7291423190907027  1.0000
  H   H444      1.0  0.6211628031643661  0.16085027474353408  0.7196041259511619  1.0000
  N   N22       1.0  0.48154081814154953  0.675732334936491  0.1561100112289389  1.0000
  C   C373      1.0  0.4598840137959912  0.660168644577136  0.17815513816167153  1.0000
  C   C374      1.0  0.47038679598649874  0.6767179424515046  0.12306003183973642  1.0000
  C   C375      1.0  0.4982526198608761  0.6628135591686162  0.15263937064668098  1.0000
  C   C376      1.0  0.4975734015288419  0.7031694344437941  0.17054587159698478  1.0000
  H   H445      1.0  0.467455677211448  0.6569870784587636  0.20233384916996075  1.0000
  H   H446      1.0  0.44597153893445846  0.640203444332198  0.1665961544257788  1.0000
  H   H447      1.0  0.44820952017353627  0.6704128174629079  0.18373727865336673  1.0000
  H   H448      1.0  0.4583714158884761  0.6870851907908502  0.12456497612848245  1.0000
  H   H449      1.0  0.4861798359881599  0.6876209175482021  0.10551793826059218  1.0000
  H   H450      1.0  0.45736153795259515  0.656322135562005  0.1118931173435923  1.0000
  H   H451      1.0  0.5146758977005864  0.6738056940509582  0.135913202594143  1.0000
  H   H452      1.0  0.48650931787673785  0.6420004040114402  0.14199467642766897  1.0000
  H   H453      1.0  0.507048319856002  0.6617016461057902  0.17705211728040765  1.0000
  H   H454      1.0  0.5142068450371861  0.7154868931188968  0.15469078273315542  1.0000
  H   H455      1.0  0.5059848099094068  0.7032044812519329  0.1957187665061704  1.0000
  H   H456      1.0  0.4854277717280448  0.7134647931104156  0.17302180815101167  1.0000
  N   N23       1.0  0.17715919078887232  0.6251950941158861  0.16405282174516087  1.0000
  C   C377      1.0  0.15706907039149787  0.6314516077535174  0.14964878119384842  1.0000
  C   C378      1.0  0.17688998463004113  0.6028672081253373  0.14442413231858495  1.0000
  C   C379      1.0  0.1711585951889425  0.6175298861455784  0.1987354385699256  1.0000
  C   C380      1.0  0.20356152951637707  0.6489474327664717  0.16344198322652959  1.0000
  H   H457      1.0  0.15673115345212474  0.6482121536082277  0.16388729489357132  1.0000
  H   H458      1.0  0.1369075074952839  0.6139464817838067  0.14980515534869326  1.0000
  H   H459      1.0  0.16108516223041436  0.6373218935351236  0.12346578142602209  1.0000
  H   H460      1.0  0.18225296746169528  0.6081940776000324  0.11834569545163873  1.0000
  H   H461      1.0  0.19141505046745655  0.5972638057036255  0.1550169036901859  1.0000
  H   H462      1.0  0.15717816576829735  0.5846995582076783  0.14383121622349948  1.0000
  H   H463      1.0  0.18613825122521344  0.6129933098829886  0.21038390469532792  1.0000
  H   H464      1.0  0.1516065312897823  0.5993996660249689  0.20042816266412775  1.0000
  H   H465      1.0  0.17107700524042002  0.6337657295050132  0.2144645651586447  1.0000
  H   H466      1.0  0.21905759386814583  0.6451219281947624  0.17502082698090823  1.0000
  H   H467      1.0  0.20434135290516586  0.666392290867624  0.17732173908728235  1.0000
  H   H468      1.0  0.209305785638495  0.6547328387896298  0.13758798147360748  1.0000
  N   N24       1.0  0.9689265104924752  0.5190199565252221  0.5274857541532335  1.0000
  C   C381      1.0  0.9642404861557706  0.5329328450152365  0.5557522036196068  1.0000
  C   C382      1.0  0.9524554903147161  0.5180549783322004  0.49828163581282753  1.0000
  C   C383      1.0  0.9617249712578949  0.4914909631327209  0.5362553867569423  1.0000
  C   C384      1.0  0.997098306891982  0.5336124348497207  0.5195357747915907  1.0000
  H   H469      1.0  0.975662496010919  0.5332956338173707  0.5785961811906745  1.0000
  H   H470      1.0  0.9429352844359306  0.523208764565303  0.5613960036730251  1.0000
  H   H471      1.0  0.9702657136278957  0.5540292573500314  0.5503845588523085  1.0000
  H   H472      1.0  0.9553353337071688  0.5076950072525521  0.4763570327688925  1.0000
  H   H473      1.0  0.9311335684274801  0.507165634578792  0.5034042186887822  1.0000
  H   H474      1.0  0.9571180837728772  0.5384250345354186  0.49109432781320395  1.0000
  H   H475      1.0  0.9642459272887708  0.4801289938111261  0.5151437621061464  1.0000
  H   H476      1.0  0.9406252534719081  0.48022794666666774  0.5428083573135141  1.0000
  H   H477      1.0  0.9739619233437058  0.49129611271663076  0.5579233252354096  1.0000
  H   H478      1.0  0.0013555564242657692  0.5237095455098909  0.49828163691139965  1.0000
  H   H479      1.0  0.010253346079707404  0.5351575173581236  0.5411139965351716  1.0000
  H   H480      1.0  0.002899101717945163  0.5543657034074916  0.5124342695009741  1.0000
  N   N25       1.0  0.7281407290364669  0.18189578945607715  0.2237798899026347  1.0000
  C   C385      1.0  0.728273971865928  0.20310921131831092  0.24554650710081732  1.0000
  C   C386      1.0  0.7023849674115465  0.1573722340498751  0.22511676551587836  1.0000
  C   C387      1.0  0.749510789496248  0.17640921986745745  0.2352446974996941  1.0000
  C   C388      1.0  0.7324125721018953  0.19078761610253417  0.18933226124964656  1.0000
  H   H481      1.0  0.7471041268522811  0.22219856728694362  0.24456600254002966  1.0000
  H   H482      1.0  0.7253344710643563  0.19732428082521106  0.27182030659638584  1.0000
  H   H483      1.0  0.7121948190499197  0.20738793398626493  0.23765456995580211  1.0000
  H   H484      1.0  0.7014009093821237  0.14088608333523325  0.20888380037073134  1.0000
  H   H485      1.0  0.6984292859535323  0.15023756353527062  0.25082062054452986  1.0000
  H   H486      1.0  0.6857290780567613  0.16079721753547122  0.21692593559635004  1.0000
  H   H487      1.0  0.7500038711627738  0.16048517472157892  0.21933422927410623  1.0000
  H   H488      1.0  0.7468069224438916  0.16968052216516422  0.26119640512412234  1.0000
  H   H489      1.0  0.7691873403699804  0.19456533512168114  0.2346731032876398  1.0000
  H   H490      1.0  0.7324297960921101  0.1753547677885662  0.1720241520922416  1.0000
  H   H491      1.0  0.7514862328111053  0.20951968983629643  0.18755633184844142  1.0000
  H   H492      1.0  0.7167177497757029  0.19528336887455733  0.18000137784280548  1.0000
  N   N26       1.0  0.5822897153592315  0.34899821174739  0.016855478810957614  1.0000
  C   C389      1.0  0.5925181152710275  0.35624705517024186  0.05171480974579379  1.0000
  C   C390      1.0  0.5861549960700345  0.3731751792794591  4.158013428257057e-05  1.0000
  C   C391      1.0  0.5538128264429389  0.3294650110307754  0.015964605157580136  1.0000
  C   C392      1.0  0.596669750833837  0.3371363022927925  0.999609348882413  1.0000
  H   H493      1.0  0.6139635918636198  0.3710028203437704  0.05319829064851067  1.0000
  H   H494      1.0  0.5898939071585065  0.33850165592614256  0.06528893729547591  1.0000
  H   H495      1.0  0.5821642036119412  0.36539259013977304  0.06545502526274416  1.0000
  H   H496      1.0  0.5782569804591695  0.3684083792730965  0.9738457285729895  1.0000
  H   H497      1.0  0.5760179500467726  0.3829940776077034  0.012726305400257099  1.0000
  H   H498      1.0  0.6074693325600303  0.3881000932464452  0.9995903462139625  1.0000
  H   H499      1.0  0.5501728896175537  0.3109099024552949  0.028352326836988295  1.0000
  H   H500      1.0  0.545533009138142  0.3235966281479294  0.9899572358641981  1.0000
  H   H501      1.0  0.5423531257503973  0.3377903456311453  0.028718298175614443  1.0000
  H   H502      1.0  0.5894850080643268  0.33161287546385865  0.9732138244571356  1.0000
  H   H503      1.0  0.5940012333619141  0.3186569915714111  0.01135282430115847  1.0000
  H   H504      1.0  0.6182346218571898  0.35133466356258874  0.9997263000124754  1.0000
  N   N27       1.0  0.46432856561030755  0.40434326627765754  0.564384012439843  1.0000
  C   C393      1.0  0.4830884246850762  0.4273923032630961  0.5859616322729375  1.0000
  C   C394      1.0  0.47753400577338617  0.40296203921021867  0.5342142510305001  1.0000
  C   C395      1.0  0.4410360555488812  0.40743319264559885  0.5549516715871246  1.0000
  C   C396      1.0  0.45575547432738317  0.3794766060825536  0.5822378271234979  1.0000
  H   H505      1.0  0.47387977859592095  0.4290721814965332  0.6091098157176799  1.0000
  H   H506      1.0  0.4899667268179216  0.4464436919375141  0.5731019740185053  1.0000
  H   H507      1.0  0.5009433563598079  0.42561703494755593  0.5932691237353501  1.0000
  H   H508      1.0  0.4954637090886391  0.4011689774411854  0.5404497991139057  1.0000
  H   H509      1.0  0.4641695984776023  0.38532306859529236  0.5178594263622142  1.0000
  H   H510      1.0  0.48376681469809807  0.42107375146008774  0.519571600739445  1.0000
  H   H511      1.0  0.4264034135085073  0.3901366148047908  0.5389596926164101  1.0000
  H   H512      1.0  0.44663607833183483  0.42566336425926654  0.5406737672089785  1.0000
  H   H513      1.0  0.4307048422756692  0.4089033156292144  0.5770944151291085  1.0000
  H   H514      1.0  0.44134376461611535  0.3617565146478289  0.5666239626583175  1.0000
  H   H515      1.0  0.44601731877775097  0.3798715704819317  0.6054609452255453  1.0000
  H   H516      1.0  0.4728340915172425  0.3762389194434727  0.5889880204902423  1.0000
  N   N28       1.0  0.7047210394382447  0.3427686538940424  0.20796402548408027  1.0000
  C   C397      1.0  0.7058888309405327  0.3368229611953327  0.24321118504790495  1.0000
  C   C398      1.0  0.67710740067637  0.32784920648250987  0.19451081398458883  1.0000
  C   C399      1.0  0.721388476747101  0.33464744269765906  0.18898200528550232  1.0000
  C   C400      1.0  0.7145501971734258  0.3717223610651873  0.20522222811092333  1.0000
  H   H517      1.0  0.7262966775562973  0.3484539863100211  0.25449577646345095  1.0000
  H   H518      1.0  0.6996322244274362  0.31530451922551417  0.24606487674740873  1.0000
  H   H519      1.0  0.6926064556767403  0.34151745232735614  0.25809666424145616  1.0000
  H   H520      1.0  0.6686537253371313  0.30602044021872493  0.19776311201497346  1.0000
  H   H521      1.0  0.6641990884688225  0.3343116452097748  0.20731552115347573  1.0000
  H   H522      1.0  0.675566327540825  0.3308449410216581  0.16758838586348146  1.0000
  H   H523      1.0  0.7150444941416096  0.313050349563521  0.19130914982294078  1.0000
  H   H524      1.0  0.7424002444754518  0.3460071106032668  0.19806494692335885  1.0000
  H   H525      1.0  0.7206471682123486  0.33829217852466037  0.16213521783052265  1.0000
  H   H526      1.0  0.714153688075067  0.37702261544343235  0.17893761124408422  1.0000
  H   H527      1.0  0.7353366230222027  0.3835939023701788  0.21528185677180037  1.0000
  H   H528      1.0  0.7023969077452502  0.37856201533378553  0.21923426438275406  1.0000
  N   N29       1.0  0.8348629589618152  0.2988574619548641  0.8795422774855355  1.0000
  C   C401      1.0  0.8345295324789553  0.2731818931835299  0.8728624078585742  1.0000
  C   C402      1.0  0.8285623940636877  0.30062356613485286  0.9144605186492978  1.0000
  C   C403      1.0  0.8149272148040354  0.30044295557472617  0.8572822305399004  1.0000
  C   C404      1.0  0.8613645953133168  0.32111913982188744  0.8735600855200488  1.0000
  H   H529      1.0  0.8391762930703058  0.27118832902640433  0.8466935067682406  1.0000
  H   H530      1.0  0.8147608783296425  0.2560197337033413  0.8771573384279593  1.0000
  H   H531      1.0  0.8493362134176056  0.27129614472241376  0.8892406544572555  1.0000
  H   H532      1.0  0.808338781987003  0.28463519719992314  0.919616628541563  1.0000
  H   H533      1.0  0.8428720176113654  0.29905695804778615  0.932073333411591  1.0000
  H   H534      1.0  0.8289669272863357  0.31988898122235176  0.9204835057433444  1.0000
  H   H535      1.0  0.8185729077289846  0.29847443769513504  0.8307055198595734  1.0000
  H   H536      1.0  0.8150723303693125  0.3198268874481609  0.861173174647416  1.0000
  H   H537      1.0  0.7945273290679463  0.2845927331836603  0.8619800177745501  1.0000
  H   H538      1.0  0.8621370499202909  0.340826059399721  0.8775401163515896  1.0000
  H   H539      1.0  0.8670431352295804  0.3201904755422553  0.8476307210221702  1.0000
  H   H540      1.0  0.876875331156328  0.3210401121158522  0.8904769623399181  1.0000
  N   N30       1.0  0.6575212209681784  0.9292884938979357  0.4599048555431678  1.0000
  C   C405      1.0  0.6705417553515053  0.9586410144195806  0.45807986837894854  1.0000
  C   C406      1.0  0.6451257389037541  0.9167741840051705  0.42705398589794036  1.0000
  C   C407      1.0  0.6370264461247546  0.9206467855620202  0.4847320006825289  1.0000
  C   C408      1.0  0.6772531327547067  0.9210096771795705  0.46976647036567043  1.0000
  H   H541      1.0  0.6563128868276998  0.9652828313571812  0.44912994967688663  1.0000
  H   H542      1.0  0.6868523031339719  0.9660328133625263  0.4405842791708916  1.0000
  H   H543      1.0  0.678830936752989  0.9688817164886612  0.4827874861372102  1.0000
  H   H544      1.0  0.6598975224809458  0.9231248931011858  0.40753865491273655  1.0000
  H   H545      1.0  0.6352318940418353  0.8946049910725964  0.42739566415932534  1.0000
  H   H546      1.0  0.6298059208365917  0.9223407503024419  0.41914813806082934  1.0000
  H   H547      1.0  0.6266187523737443  0.8985495386403854  0.4866544960004092  1.0000
  H   H548      1.0  0.6218892499239119  0.9266388689981215  0.4780602631353678  1.0000
  H   H549      1.0  0.6455286244520873  0.9296955166311754  0.5098603455784478  1.0000
  H   H550      1.0  0.6678159900021459  0.8989489721096557  0.47181863359739545  1.0000
  H   H551      1.0  0.6870998327667166  0.9303186236446752  0.4943387737745742  1.0000
  H   H552      1.0  0.6928567339171747  0.9268095902569008  0.4513700747663444  1.0000
  N   N31       1.0  0.4050511133229996  0.6902041505114603  0.9685995256994873  1.0000
  C   C409      1.0  0.4045433016831026  0.6644044886690837  0.9621585082456692  1.0000
  C   C410      1.0  0.43270871416988405  0.7117522037095532  0.9732350627969791  1.0000
  C   C411      1.0  0.3907061941382328  0.6889309605963371  0.9988244117182622  1.0000
  C   C412      1.0  0.3921610829436304  0.6958276324467163  0.9401030886061799  1.0000
  H   H553      1.0  0.38391412511675965  0.6476831574111069  0.9589920178941203  1.0000
  H   H554      1.0  0.41466552840448717  0.6597734438100586  0.9828081837443609  1.0000
  H   H555      1.0  0.4147881342359945  0.6645930784590413  0.939163244835065  1.0000
  H   H556      1.0  0.4337273013207077  0.731528081032849  0.9776289079940226  1.0000
  H   H557      1.0  0.44313825317532807  0.708362123321174  0.9946255833027187  1.0000
  H   H558      1.0  0.4441247311410274  0.7132647655675831  0.9509121591055982  1.0000
  H   H559      1.0  0.3697360394727016  0.672814280213916  0.9961235542879155  1.0000
  H   H560      1.0  0.3905830957307894  0.708099960015798  0.004138936066644838  1.0000
  H   H561      1.0  0.4000155659901387  0.6849483025176322  0.020940594288761716  1.0000
  H   H562      1.0  0.4029856880386629  0.6979419863083679  0.9170483104360249  1.0000
  H   H563      1.0  0.3915875579824767  0.7148178499912083  0.9447029385779321  1.0000
  H   H564      1.0  0.3714728763661812  0.6796537402094087  0.9352217398783472  1.0000
  N   N32       1.0  0.7780963615680465  0.45037121009873776  0.9515016890734926  1.0000
  C   C413      1.0  0.7740915631653061  0.47233280654981535  0.965122859114535  1.0000
  C   C414      1.0  0.7920448322368038  0.45834917324516655  0.9202104670366755  1.0000
  C   C415      1.0  0.7521612109645482  0.4263632267062556  0.9449227253210241  1.0000
  C   C416      1.0  0.7940375438488761  0.44443276623460876  0.975731544621903  1.0000
  H   H565      1.0  0.7633295082352411  0.4668628631001319  0.9885555943624116  1.0000
  H   H566      1.0  0.7622112741301993  0.4773806413909103  0.9473297953313361  1.0000
  H   H567      1.0  0.7932854459700008  0.4907366021860146  0.9706001085482001  1.0000
  H   H568      1.0  0.7949059648589635  0.44206012220437496  0.9087765035734049  1.0000
  H   H569      1.0  0.7807740281769155  0.4633472867703153  0.9014795986464357  1.0000
  H   H570      1.0  0.8119988304391074  0.476015066161736  0.9242746158738805  1.0000
  H   H571      1.0  0.7543009250033621  0.40971345592226754  0.933182473365548  1.0000
  H   H572      1.0  0.7392844357824248  0.4304734158639816  0.9277241449996861  1.0000
  H   H573      1.0  0.7413549090942579  0.4192138427830054  0.9680538227930592  1.0000
  H   H574      1.0  0.8141006401800408  0.4618433360833915  0.9805433675914482  1.0000
  H   H575      1.0  0.7969616872953798  0.4275786242947876  0.9665338393243916  1.0000
  H   H576      1.0  0.7845305342205017  0.4389447251902773  0.9999565193490106  1.0000
  N   N33       1.0  0.9182899528867017  0.4715464755229374  0.15245755513076353  1.0000
  C   C417      1.0  0.9011488341973567  0.4704669662161731  0.12388283504995388  1.0000
  C   C418      1.0  0.9461354048414884  0.4850449357032723  0.14312110056488078  1.0000
  C   C419      1.0  0.9107736740552821  0.4441317778997369  0.16206723996454628  1.0000
  C   C420      1.0  0.9150141633297874  0.4864813234926132  0.18074085158440642  1.0000
  H   H577      1.0  0.8800784313794625  0.4607189100911544  0.13030090903643599  1.0000
  H   H578      1.0  0.9024096003663493  0.4586404075215907  0.10230417818289494  1.0000
  H   H579      1.0  0.9063453021804309  0.4907185001954648  0.11556085761271527  1.0000
  H   H580      1.0  0.9596324634029442  0.48626153977322023  0.16415697646343136  1.0000
  H   H581      1.0  0.9491706408309909  0.4741698306743795  0.12184741544599077  1.0000
  H   H582      1.0  0.9523987437016538  0.5057662386917982  0.1356552216311634  1.0000
  H   H583      1.0  0.8901198368223456  0.43369955013960615  0.17021361774959598  1.0000
  H   H584      1.0  0.923723108735535  0.4440379842718859  0.1829473033007614  1.0000
  H   H585      1.0  0.9117118216077383  0.4317913827087428  0.1408738575241904  1.0000
  H   H586      1.0  0.8941895124668867  0.47676745355837497  0.1883233028265164  1.0000
  H   H587      1.0  0.9203228911082082  0.5072500270583891  0.17454480070217238  1.0000
  H   H588      1.0  0.9273951047763914  0.4875583101869238  0.20299877364069152  1.0000
  N   N34       1.0  0.07531299316205908  0.4799741884739455  0.5969893807776279  1.0000
  C   C421      1.0  0.06802538642593126  0.45310799269713586  0.5828585019394943  1.0000
  C   C422      1.0  0.08602429679759571  0.48286524246566986  0.6314540986302842  1.0000
  C   C423      1.0  0.05166506954494454  0.48362557246376453  0.5968802885370439  1.0000
  C   C424      1.0  0.095580678593989  0.5003510723111082  0.5768584107715474  1.0000
  H   H589      1.0  0.06118809628872568  0.4506737895841488  0.5563361913511449  1.0000
  H   H590      1.0  0.05171486983459328  0.43731351767196824  0.5963375618940178  1.0000
  H   H591      1.0  0.0850650111060185  0.449050877747166  0.5844223886632856  1.0000
  H   H592      1.0  0.07115663457566868  0.4682262581540885  0.6476491602482312  1.0000
  H   H593      1.0  0.10363823314698895  0.4797945858751292  0.6325367603306102  1.0000
  H   H594      1.0  0.09251241318058367  0.5032206939393257  0.6425679163065879  1.0000
  H   H595      1.0  0.043090125783167954  0.48161124914550624  0.5712548772553004  1.0000
  H   H596      1.0  0.056566370540679145  0.5037156670890528  0.6075285452763942  1.0000
  H   H597      1.0  0.03601166143545309  0.4684884424640192  0.6119466362346159  1.0000
  H   H598      1.0  0.11387078702304598  0.4984232133355094  0.5770338579267393  1.0000
  H   H599      1.0  0.10138218450670489  0.5208706433112207  0.5867218313731289  1.0000
  H   H600      1.0  0.08851965351390012  0.4987999809429068  0.5505566416134011  1.0000
  N   N35       1.0  0.56653451837756  0.5942393019547881  0.5525179307288335  1.0000
  C   C425      1.0  0.5681831742919627  0.5703184338935595  0.5412676511052262  1.0000
  C   C426      1.0  0.5430689481549075  0.5938713112053576  0.5362615385970239  1.0000
  C   C427      1.0  0.590660641840463  0.6184698817691879  0.5437767402244037  1.0000
  C   C428      1.0  0.564272161094996  0.5942634871844356  0.5888880598370918  1.0000
  H   H601      1.0  0.5857653100890453  0.5700746383428753  0.5530504438870522  1.0000
  H   H602      1.0  0.569832615043585  0.5695732037240137  0.5139010584219066  1.0000
  H   H603      1.0  0.550359049832521  0.5517149414686152  0.5477789290335809  1.0000
  H   H604      1.0  0.541087816045648  0.6115199410073785  0.5444616295982864  1.0000
  H   H605      1.0  0.5440529875654274  0.593957199992755  0.5087892610351272  1.0000
  H   H606      1.0  0.5244548883535921  0.5759811850875257  0.5426009462238706  1.0000
  H   H607      1.0  0.5901286496299251  0.6369290125243577  0.5519958814988711  1.0000
  H   H608      1.0  0.5931493241111565  0.6192031107992413  0.5165441002461505  1.0000
  H   H609      1.0  0.6087156053145061  0.6195452317327699  0.5559730909830861  1.0000
  H   H610      1.0  0.5643193794826652  0.6126997205264144  0.598441073354873  1.0000
  H   H611      1.0  0.5809519459445307  0.5931648157432102  0.601845320605467  1.0000
  H   H612      1.0  0.5455524365715457  0.5770830651257914  0.5963693382038208  1.0000
  N   N36       1.0  0.28220978606575814  0.5448341787642027  0.0846845251076973  1.0000
  C   C429      1.0  0.28000641637694446  0.5667319832701209  0.06894142520790555  1.0000
  C   C430      1.0  0.2593477693880585  0.5302018137728383  0.10547849699677939  1.0000
  C   C431      1.0  0.30693782179579154  0.5561023506938385  0.10546909227364759  1.0000
  C   C432      1.0  0.28256917252081803  0.5262813722422927  0.0587687895639119  1.0000
  H   H613      1.0  0.2975179591190586  0.5790565725475815  0.05433880514587467  1.0000
  H   H614      1.0  0.27786323110661876  0.5801289674818485  0.08764405103907945  1.0000
  H   H615      1.0  0.2624937872728699  0.5587340728566685  0.05144513191190994  1.0000
  H   H616      1.0  0.260295563313921  0.5133575867599637  0.11749175743743372  1.0000
  H   H617      1.0  0.2584772189606864  0.5433730434099319  0.1256552976050117  1.0000
  H   H618      1.0  0.24035458480624197  0.5216900623889098  0.09044949931145256  1.0000
  H   H619      1.0  0.3098019967108081  0.5400418897898042  0.11649110871978925  1.0000
  H   H620      1.0  0.3068859183468338  0.569249728682142  0.1262515457466136  1.0000
  H   H621      1.0  0.32452527880626836  0.567948361185106  0.09076034633044716  1.0000
  H   H622      1.0  0.29936893542113446  0.5366553817613029  0.04232846023990969  1.0000
  H   H623      1.0  0.26400361720898297  0.5172236754948396  0.042784854805047526  1.0000
  H   H624      1.0  0.28451432959903133  0.5096559153059341  0.06997400099353122  1.0000
  N   N37       1.0  0.8331963702335635  0.2415446771236422  0.6594274526667873  1.0000
  C   C433      1.0  0.8425972193561099  0.23632289967100825  0.627851623011962  1.0000
  C   C434      1.0  0.8118050040529893  0.21626342106799762  0.6709083389735191  1.0000
  C   C435      1.0  0.8230056004637637  0.2604984153805923  0.6542616486012677  1.0000
  C   C436      1.0  0.85535365659318  0.25314735806427063  0.6846174038365296  1.0000
  H   H625      1.0  0.8508147925876562  0.22241943452829044  0.630823088682084  1.0000
  H   H626      1.0  0.858453195483329  0.25507267834851477  0.6181102679345084  1.0000
  H   H627      1.0  0.8262786849996459  0.22724618778276015  0.6084040698788912  1.0000
  H   H628      1.0  0.8041190222723448  0.21952540349459737  0.6945730258381978  1.0000
  H   H629      1.0  0.794839616193951  0.20703069186895814  0.6522656609734033  1.0000
  H   H630      1.0  0.8187772563315028  0.20146318410357192  0.6750994336430152  1.0000
  H   H631      1.0  0.816756549495052  0.2658032725868558  0.6778607360415712  1.0000
  H   H632      1.0  0.8056936438764273  0.25209922727655565  0.6362541229251071  1.0000
  H   H633      1.0  0.8384000158590876  0.2794479455308747  0.6445186034506677  1.0000
  H   H634      1.0  0.8490519072895779  0.2576148358239317  0.7087100212885018  1.0000
  H   H635      1.0  0.8716843195336303  0.2723630092341613  0.6766846626680538  1.0000
  H   H636      1.0  0.8637000396678116  0.23952232721660105  0.6891536916699962  1.0000
  N   N38       1.0  0.3534692387915397  0.5302717678708008  0.5933816430710206  1.0000
  C   C437      1.0  0.3428104018446397  0.5277642129224739  0.5589965616900524  1.0000
  C   C438      1.0  0.38265045573708484  0.543563715847188  0.5936360568035958  1.0000
  C   C439      1.0  0.3433014768672286  0.5034116863163932  0.6066241600345292  1.0000
  C   C440      1.0  0.3450601388706153  0.546279819160452  0.6140653765949697  1.0000
  H   H637      1.0  0.32086311003038454  0.5183914290889202  0.5577678742794288  1.0000
  H   H638      1.0  0.3481408166195029  0.5150893313137856  0.5431933443666143  1.0000
  H   H639      1.0  0.35088316710617007  0.5474994835895273  0.5474978116328236  1.0000
  H   H640      1.0  0.39099467019265394  0.5638435608523938  0.583565284148085  1.0000
  H   H641      1.0  0.391543274688365  0.5457529434095983  0.6191005484758817  1.0000
  H   H642      1.0  0.389589559776019  0.5321115721539166  0.5778641287640498  1.0000
  H   H643      1.0  0.35090161515688123  0.5043966067870091  0.6325416843309393  1.0000
  H   H644      1.0  0.34911347398516485  0.49074065958847424  0.5913136152542  1.0000
  H   H645      1.0  0.32131911282509557  0.4927366897359702  0.6064601722983581  1.0000
  H   H646      1.0  0.35229927526183796  0.5665896178172434  0.6044774489335589  1.0000
  H   H647      1.0  0.35280826503478235  0.5486582219312476  0.6402101606129613  1.0000
  H   H648      1.0  0.32310240068242757  0.5367100476121046  0.6143334621829515  1.0000
  N   N39       1.0  0.5927127731932724  0.4434993246823969  0.829087928323979  1.0000
  C   C441      1.0  0.5639470661502716  0.42713808663466063  0.8220272993932619  1.0000
  C   C442      1.0  0.5978538726083703  0.4525124833774538  0.8644779304009124  1.0000
  C   C443      1.0  0.6034477694815417  0.4669950565458895  0.8082378599334555  1.0000
  C   C444      1.0  0.6057256780757356  0.4272932474854664  0.8217572059776953  1.0000
  H   H649      1.0  0.5594200712163933  0.4199369901974087  0.7955336061668398  1.0000
  H   H650      1.0  0.5534312088811534  0.43869049887337946  0.8273995366252287  1.0000
  H   H651      1.0  0.5554425870656408  0.4092701442669497  0.8375064742149264  1.0000
  H   H652      1.0  0.6194203237599166  0.4653070798409765  0.8704195790109452  1.0000
  H   H653      1.0  0.588029912588992  0.46448604565775936  0.8711650917359555  1.0000
  H   H654      1.0  0.5906015196590246  0.43526824556482896  0.8809538290390522  1.0000
  H   H655      1.0  0.5937272775219528  0.47945303511761794  0.8125606560446083  1.0000
  H   H656      1.0  0.6008798555683315  0.4610565922771144  0.7813291510674751  1.0000
  H   H657      1.0  0.6250180408641943  0.4800281019138653  0.813800639834437  1.0000
  H   H658      1.0  0.6273644482029181  0.4390024866692366  0.8273439558469836  1.0000
  H   H659      1.0  0.6028395191555456  0.4205269586546622  0.7951370058282713  1.0000
  H   H660      1.0  0.5979938445872567  0.40925551952663114  0.8369065434320292  1.0000
  N   N40       1.0  0.28357371394295516  0.781075903306503  0.6743497509800035  1.0000
  C   C445      1.0  0.2688294063872018  0.7930219624191913  0.657788419955512  1.0000
  C   C446      1.0  0.26498666590953046  0.7570960256271451  0.6913879262166847  1.0000
  C   C447      1.0  0.3032988439004035  0.8006404709139229  0.6989314449839424  1.0000
  C   C448      1.0  0.2971965699753844  0.7734644981211253  0.6492898378892034  1.0000
  H   H661      1.0  0.28209148820387525  0.8106078229136721  0.6435999586064977  1.0000
  H   H662      1.0  0.2590113070059973  0.7998670884315996  0.675981304417254  1.0000
  H   H663      1.0  0.25322415381039776  0.7785188631901464  0.6398058738116683  1.0000
  H   H664      1.0  0.24981728184309868  0.7418812424372851  0.6735525337467138  1.0000
  H   H665      1.0  0.27552868033576894  0.7475953348989556  0.7040469520616732  1.0000
  H   H666      1.0  0.2543836798686772  0.762107260486019  0.7105305084544661  1.0000
  H   H667      1.0  0.314927298718546  0.7923354794182832  0.7117222438592967  1.0000
  H   H668      1.0  0.2938703694060158  0.8069788068124589  0.7182587890575334  1.0000
  H   H669      1.0  0.31781300830470977  0.8188762733654777  0.6869151600451786  1.0000
  H   H670      1.0  0.3107742327148533  0.7909616752252601  0.6352445146811111  1.0000
  H   H671      1.0  0.28291514405714796  0.7580033502995289  0.6310079907456063  1.0000
  H   H672      1.0  0.3095331332700543  0.765515034196362  0.6610265559865623  1.0000
  N   N41       1.0  0.4969989183047958  0.16443407261811874  0.8843177265861931  1.0000
  C   C449      1.0  0.5083252684382104  0.15350120808515735  0.9088602745643679  1.0000
  C   C450      1.0  0.5175316483797086  0.19124498547410215  0.8757780137628891  1.0000
  C   C451      1.0  0.4747391302229708  0.16648974434864877  0.8985863214605756  1.0000
  C   C452      1.0  0.4875220768739851  0.14660799548394085  0.8541073618060389  1.0000
  H   H673      1.0  0.49348168653564717  0.1332175753390721  0.915866395428386  1.0000
  H   H674      1.0  0.5158180049187161  0.1665183908438942  0.9319434605529457  1.0000
  H   H675      1.0  0.5253205362303104  0.15187534835908262  0.8987964634893711  1.0000
  H   H676      1.0  0.5245798620044386  0.2053787052965344  0.897833012808151  1.0000
  H   H677      1.0  0.5350428686550173  0.19061060122653714  0.8662092063892389  1.0000
  H   H678      1.0  0.5101891946665029  0.19992928615704625  0.8564541986864358  1.0000
  H   H679      1.0  0.465790111212541  0.17463291138846412  0.8805640624218781  1.0000
  H   H680      1.0  0.4813938363312534  0.18004358706617865  0.9212556302319103  1.0000
  H   H681      1.0  0.45891548194884135  0.14667971939394195  0.9056703558033913  1.0000
  H   H682      1.0  0.48041119324536435  0.15500606777753892  0.83412048762283  1.0000
  H   H683      1.0  0.4711156448850978  0.12656464993086536  0.8592984065129028  1.0000
  H   H684      1.0  0.5035536337535392  0.14348797983380354  0.8438869430178684  1.0000
  N   N42       1.0  0.4202813211612902  0.8224054392818737  0.30488530783709333  1.0000
  C   C453      1.0  0.3931097914138213  0.8163978844859858  0.3122314638420595  1.0000
  C   C454      1.0  0.43488421465115107  0.8230009136351996  0.33588518863000993  1.0000
  C   C455      1.0  0.434042092674963  0.8485867272859204  0.2896209035214534  1.0000
  C   C456      1.0  0.4190630641380619  0.801531351199679  0.2815304748807358  1.0000
  H   H685      1.0  0.3815630129234875  0.8154820566829162  0.2891405599239816  1.0000
  H   H686      1.0  0.3931282020479002  0.8317994095983782  0.3296494332436036  1.0000
  H   H687      1.0  0.3822507947728507  0.7966942779814618  0.3236383366413529  1.0000
  H   H688      1.0  0.4255333951172142  0.8033702279454814  0.34766521803812805  1.0000
  H   H689      1.0  0.45555135878077474  0.827852720787243  0.3311117130847606  1.0000
  H   H690      1.0  0.4359946982519061  0.8383437575345039  0.3543189800480394  1.0000
  H   H691      1.0  0.4351799405492219  0.8648988026435059  0.3063324275810951  1.0000
  H   H692      1.0  0.4239364400272039  0.8486412422668427  0.265713220576695  1.0000
  H   H693      1.0  0.4546777369427957  0.8537211936585137  0.2839649973158155  1.0000
  H   H694      1.0  0.4090057807835605  0.781404587131902  0.2920075317261665  1.0000
  H   H695      1.0  0.4391167307757195  0.8056418020033255  0.27489126393398916  1.0000
  H   H696      1.0  0.4081153571368815  0.8005590598196151  0.25799872693806314  1.0000
  N   N43       1.0  0.2399057878228128  0.747363744013315  0.45655463820057324  1.0000
  C   C457      1.0  0.24236263376328582  0.7252547656526238  0.4714109724206825  1.0000
  C   C458      1.0  0.2566192901215729  0.7724385229554604  0.47617698654386476  1.0000
  C   C459      1.0  0.21201014715042196  0.7414283119599113  0.4565312674815672  1.0000
  C   C460      1.0  0.24859436103180632  0.750292178470234  0.42210250745144645  1.0000
  H   H697      1.0  0.23052467014206407  0.7062035740778014  0.4566088172868609  1.0000
  H   H698      1.0  0.23512008866101436  0.721894071528373  0.4970793680401047  1.0000
  H   H699      1.0  0.26322415211023636  0.7292887772867456  0.4727848168246065  1.0000
  H   H700      1.0  0.25508267694573944  0.7895602810565474  0.4659879557778013  1.0000
  H   H701      1.0  0.25061390029508934  0.770832440888427  0.5022047186577805  1.0000
  H   H702      1.0  0.2778168711603814  0.7775538101961016  0.4769180733187143  1.0000
  H   H703      1.0  0.20448831661420544  0.7380834269587857  0.4820342107602509  1.0000
  H   H704      1.0  0.19901826578458875  0.7230678265931688  0.4410334349229089  1.0000
  H   H705      1.0  0.2094068183632654  0.7579927484080736  0.4465261993904166  1.0000
  H   H706      1.0  0.24685249372192408  0.7667190504973079  0.41013286094732654  1.0000
  H   H707      1.0  0.2363718113325984  0.7317136739929755  0.40655500036469305  1.0000
  H   H708      1.0  0.26952234298544414  0.7546530693695505  0.42120890094746477  1.0000
  N   N44       1.0  0.45275183101781935  0.9531252022930098  0.5724472994479992  1.0000
  C   C461      1.0  0.4730247529997118  0.9763044431725557  0.5557459079539062  1.0000
  C   C462      1.0  0.4601133949387537  0.9316976404098728  0.5726113429763472  1.0000
  C   C463      1.0  0.4268883919465511  0.9432961889325004  0.5544201377634352  1.0000
  C   C464      1.0  0.45097711264938256  0.9612340223163073  0.6069509794107409  1.0000
  H   H709      1.0  0.4680646281805757  0.9928657310211149  0.5552088218841793  1.0000
  H   H710      1.0  0.4748393773642605  0.9708346839470707  0.5296334276035191  1.0000
  H   H711      1.0  0.4928021103938134  0.984242484004653  0.5687185933093066  1.0000
  H   H712      1.0  0.44514885265959203  0.9138477623461955  0.5848434965773676  1.0000
  H   H713      1.0  0.4615811751532513  0.925064290002282  0.5469412818383919  1.0000
  H   H714      1.0  0.47948876057877005  0.9382662681865838  0.5860310103913459  1.0000
  H   H715      1.0  0.41101984094395233  0.9260968354638217  0.5666630905442395  1.0000
  H   H716      1.0  0.4272310739344113  0.9362731163438364  0.528527084894221  1.0000
  H   H717      1.0  0.4208703259773164  0.9590477418218285  0.5533276682029193  1.0000
  H   H718      1.0  0.4350821722508769  0.9445242705285031  0.6199490693163305  1.0000
  H   H719      1.0  0.4463732491488102  0.9780175972967996  0.6077086285795377  1.0000
  H   H720      1.0  0.4698150164967092  0.9678828369929652  0.6217148883860618  1.0000
  N   N45       1.0  0.8650918659522273  0.4062429313227511  0.7073450738808419  1.0000
  C   C465      1.0  0.8523408739733194  0.37942730539296465  0.6905877203207418  1.0000
  C   C466      1.0  0.8571129116619304  0.4236613377003319  0.689465346823691  1.0000
  C   C467      1.0  0.8941204794083341  0.4177097486440619  0.7072798295060765  1.0000
  C   C468      1.0  0.8568320710387279  0.40416504591147306  0.741968520871115  1.0000
  H   H721      1.0  0.858302774211324  0.36589628893396364  0.7029685297462485  1.0000
  H   H722      1.0  0.8579450409071068  0.3802946813727333  0.6643147357043451  1.0000
  H   H723      1.0  0.8304273319680486  0.3699580111807187  0.6905202282852542  1.0000
  H   H724      1.0  0.8353105419184138  0.41556407324984035  0.6889337061133851  1.0000
  H   H725      1.0  0.8664401331492495  0.4441032487834458  0.7013308256096729  1.0000
  H   H726      1.0  0.8630848920154645  0.4255800540877661  0.663215204767786  1.0000
  H   H727      1.0  0.9044306585071384  0.43782456712647694  0.7200352752152542  1.0000
  H   H728      1.0  0.9010448354860452  0.4198017698337929  0.6814910792989302  1.0000
  H   H729      1.0  0.900813545969131  0.4048724453423187  0.7201654345466211  1.0000
  H   H730      1.0  0.8661235419169002  0.42401076942525806  0.7554743693666459  1.0000
  H   H731      1.0  0.8626601159107935  0.39122059241149426  0.756073853571949  1.0000
  H   H732      1.0  0.8350219237672435  0.39549521885635003  0.743100729920279  1.0000
  N   N46       1.0  0.5146017150894541  0.29220037972745455  0.6117733702492943  1.0000
  C   C469      1.0  0.5310090384820337  0.31160625826737043  0.6387698420038601  1.0000
  C   C470      1.0  0.5212449780464348  0.27027202009300083  0.609503573581204  1.0000
  C   C471      1.0  0.5197789279267155  0.3057698001539746  0.5800446133819432  1.0000
  C   C472      1.0  0.48634781304026464  0.2812165759767111  0.6186771864272942  1.0000
  H   H733      1.0  0.526620425286037  0.32853555087836567  0.6408442442887712  1.0000
  H   H734      1.0  0.5524545142242603  0.3202331934292991  0.6343287282200204  1.0000
  H   H735      1.0  0.5275172029404396  0.302110096509172  0.6631745572238252  1.0000
  H   H736      1.0  0.542410144268282  0.2777756296958352  0.6042907027544955  1.0000
  H   H737      1.0  0.5172912231562833  0.2593151836245737  0.6328659785571469  1.0000
  H   H738      1.0  0.5093655937781792  0.2554272376764138  0.5891534344098517  1.0000
  H   H739      1.0  0.5077503240492667  0.29167155910235315  0.5591449550972266  1.0000
  H   H740      1.0  0.5408907180978734  0.3144036472148518  0.5739148488383025  1.0000
  H   H741      1.0  0.514770272038357  0.32231557763924845  0.5807083087853497  1.0000
  H   H742      1.0  0.4734330864768902  0.2664635719714107  0.5987867197240191  1.0000
  H   H743      1.0  0.48053106089872843  0.29714880530664595  0.6199758271994372  1.0000
  H   H744      1.0  0.4816290567043163  0.27084913997984583  0.6424767895235604  1.0000
  N   N47       1.0  0.8083985543852512  0.5581691700620509  0.4419817329094691  1.0000
  C   C473      1.0  0.8142159486515792  0.5699569224988242  0.4762366590646528  1.0000
  C   C474      1.0  0.8058222556077066  0.531197371587872  0.4421214721253794  1.0000
  C   C475      1.0  0.8301111151393565  0.5751183662892201  0.42071950477326175  1.0000
  C   C476      1.0  0.7833872610617761  0.5563078615076087  0.4288651425617347  1.0000
  H   H745      1.0  0.8172810717873337  0.5907049705475906  0.4771270639106792  1.0000
  H   H746      1.0  0.8323166562219796  0.5705044382713922  0.4875222196863046  1.0000
  H   H747      1.0  0.7977541036881681  0.5581006722500921  0.49258663842529304  1.0000
  H   H748      1.0  0.8243276384645642  0.5319672844882174  0.45198707347650874  1.0000
  H   H749      1.0  0.78981613648116  0.5178488649780424  0.45819495666923793  1.0000
  H   H750      1.0  0.8017746961414993  0.5217118927356746  0.4166723776169237  1.0000
  H   H751      1.0  0.8264844272708113  0.5666153247414787  0.3947528264223929  1.0000
  H   H752      1.0  0.849263271292711  0.5768109884548523  0.4297684152916902  1.0000
  H   H753      1.0  0.8327354039859409  0.5956649893244031  0.4199676082340925  1.0000
  H   H754      1.0  0.784594186961858  0.5763164366991234  0.42859979591620756  1.0000
  H   H755      1.0  0.7665976918415432  0.5435353549431289  0.44431705044962444  1.0000
  H   H756      1.0  0.7784518137850132  0.5475085614750952  0.40302474076463096  1.0000
  N   N48       1.0  0.6132327287979328  0.13660154567144397  0.3894604870338285  1.0000
  C   C477      1.0  0.6087041270369749  0.13220371319665894  0.3530342307305118  1.0000
  C   C478      1.0  0.6013588709192791  0.15283162916327142  0.4017064288614761  1.0000
  C   C479      1.0  0.6419351000313158  0.15080883964813593  0.39787124581691835  1.0000
  C   C480      1.0  0.6010060905021876  0.11057701172712552  0.4052783963355908  1.0000
  H   H757      1.0  0.6169663582923298  0.11956958079017733  0.3431170303686633  1.0000
  H   H758      1.0  0.6182725562520603  0.15134731887501132  0.3400845283687291  1.0000
  H   H759      1.0  0.5872732817081793  0.12203186646981887  0.3456453356124914  1.0000
  H   H760      1.0  0.6043752061270424  0.15637087929807128  0.4291881434712297  1.0000
  H   H761      1.0  0.6103341411106583  0.17268631621697153  0.39047787883544427  1.0000
  H   H762      1.0  0.5796941146202532  0.1427728967052158  0.3958304377566371  1.0000
  H   H763      1.0  0.6511772019585108  0.13834669345048115  0.39114902489753406  1.0000
  H   H764      1.0  0.6461544951355161  0.15586874106439186  0.4249328119001821  1.0000
  H   H765      1.0  0.652157929142612  0.169761121894497  0.3847419368026825  1.0000
  H   H766      1.0  0.6040997443737959  0.11313195353062801  0.43278132001955644  1.0000
  H   H767      1.0  0.6096689435089351  0.0978853255098053  0.3968269392727306  1.0000
  H   H768      1.0  0.5793257883911314  0.0992907603970682  0.39958280715103317  1.0000
