data_image0
_chemical_formula_structural       FeS2FeS2FeSFeS3FeS2FeS2FeSFeS3FeS2FeS2FeSFeS3FeS2FeS2FeSFeS3FeS2FeS2FeSFeS3FeS2FeS2FeSFeS3FeS2FeS2FeSFeS3FeS2FeS2FeSFeS3FeS2FeS2FeSFeS3FeS2FeS2FeSFeS3FeS2FeS2FeSFeS3FeS2FeS2FeSFeS3FeS2FeS2FeSFeS3FeS2FeS2FeSFeS3FeS2FeS2FeSFeS3FeS2FeS2FeSFeS3FeS2FeS2FeSFeS3FeS2FeS2FeSFeS3FeS2FeS2FeSFeS3FeS2FeS2FeSFeS3FeS2FeS2FeSFeS3FeS2FeS2FeSFeS3FeS2FeS2FeSFeS3FeS2FeS2FeSFeS3FeS2FeS2FeSFeS3FeS2FeS2FeSFeS3FeS2FeS2FeSFeS3FeS2FeS2FeSFeS3FeS2FeS2FeSFeS3FeS2FeS2FeSFeS3FeS2FeS2FeSFeS3FeS2FeS2FeSFeS3C6H4C6H4C6H4C6H4C6H4C6H4C6H4C6H4C6H4C6H4C6H4C6H4C6H4C6H4C6H4C6H4C6H4C6H4C6H4C6H4C6H4C6H4C6H4C6H4C6H4C6H4C6H4C6H4C6H4C6H4C6H4C6H4C6H4C6H4C6H4C6H4C6H4C6H4C6H4C6H4C6H4C6H4C6H4C6H4C6H4C6H4C6H4C6H4C6H4C6H4C6H4C6H4C6H4C6H4C6H4C6H4C6H4C6H4C6H4C6H4C6H4C6H4C6H4C6H4NC4H12NC4H12NC4H12NC4H12NC4H12NC4H12NC4H12NC4H12NC4H12NC4H12NC4H12NC4H12NC4H12NC4H12NC4H12NC4H12NC4H12NC4H12NC4H12NC4H12NC4H12NC4H12NC4H12NC4H12NC4H12NC4H12NC4H12NC4H12NC4H12NC4H12NC4H12NC4H12NC4H12NC4H12NC4H12NC4H12NC4H12NC4H12NC4H12NC4H12NC4H12NC4H12NC4H12NC4H12NC4H12NC4H12NC4H12NC4H12NC4H12NC4H12NC4H12NC4H12NC4H12NC4H12NC4H12NC4H12NC4H12NC4H12NC4H12NC4H12NC4H12NC4H12NC4H12NC4H12
_chemical_formula_sum              "Fe128 S256 C640 H1024 N64"
_cell_length_a       40.98309013323927
_cell_length_b       37.500389948234336
_cell_length_c       42.657273732968136
_cell_angle_alpha    89.65954538547318
_cell_angle_beta     89.77205398106496
_cell_angle_gamma    88.22540724157537

_space_group_name_H-M_alt    "P 1"
_space_group_IT_number       1

loop_
  _space_group_symop_operation_xyz
  'x, y, z'

loop_
  _atom_site_type_symbol
  _atom_site_label
  _atom_site_symmetry_multiplicity
  _atom_site_fract_x
  _atom_site_fract_y
  _atom_site_fract_z
  _atom_site_occupancy
  Fe  Fe1       1.0  0.5126767013824133  0.8644790458509946  0.4375304534261328  1.0000
  S   S1        1.0  0.49172109983394247  0.911920234929032  0.4116017631411064  1.0000
  S   S2        1.0  0.522413158176952  0.8126507720198359  0.41241846671084337  1.0000
  Fe  Fe2       1.0  0.5135298530654058  0.9031952317984161  0.499590432087929  1.0000
  S   S3        1.0  0.4923959207551884  0.9538843012120432  0.47926402864418916  1.0000
  S   S4        1.0  0.5263213957767245  0.9016454175416548  0.550618869437198  1.0000
  Fe  Fe3       1.0  0.4589168086668098  0.9184395887745879  0.4533945355509701  1.0000
  S   S5        1.0  0.4061984906580695  0.9331793436125105  0.4443424815256809  1.0000
  Fe  Fe4       1.0  0.5270735443870899  0.9428870155600473  0.43950523541790243  1.0000
  S   S6        1.0  0.5571982375667947  0.9857162729764842  0.41829612375442937  1.0000
  S   S7        1.0  0.4768470276556269  0.8682182510887735  0.4775120638531567  1.0000
  S   S8        1.0  0.5512837733071388  0.8948629316563004  0.4619254792756371  1.0000
  Fe  Fe5       1.0  0.42453748442034145  0.9708781962515344  0.6822619334138915  1.0000
  S   S9        1.0  0.3904019319302615  0.9996509441501767  0.7153904423174987  1.0000
  S   S10       1.0  0.41049660981122926  0.9664368327422087  0.6318381962843274  1.0000
  Fe  Fe6       1.0  0.4735810569918549  0.9514909343829517  0.7330162294504233  1.0000
  S   S11       1.0  0.443646645455233  0.978387262533802  0.7705066783390306  1.0000
  S   S12       1.0  0.5229434880204664  0.9288560999532243  0.7455620112660736  1.0000
  Fe  Fe7       1.0  0.4015420800687231  0.952940292791621  0.7470046908195794  1.0000
  S   S13       1.0  0.3639689480805067  0.9241137609056687  0.7746669678929898  1.0000
  Fe  Fe8       1.0  0.4359667327180859  0.022196065965416567  0.735098231364858  1.0000
  S   S14       1.0  0.4434651796828868  0.07962571159418519  0.7475255579016773  1.0000
  S   S15       1.0  0.4321553952973596  0.9221889562853879  0.7122618914917825  1.0000
  S   S16       1.0  0.4694117522005791  0.9970393104979807  0.6992713111816383  1.0000
  Fe  Fe9       1.0  0.5357223422588443  0.8292804498908215  0.8976561225066155  1.0000
  S   S17       1.0  0.5719406271613456  0.8729879088020946  0.8996131378289525  1.0000
  S   S18       1.0  0.5016486912482634  0.8211773601446808  0.8572098981943861  1.0000
  Fe  Fe10      1.0  0.5525977445706595  0.8016175303072651  0.9628921352767142  1.0000
  S   S19       1.0  0.5898499981215499  0.8429338296744833  0.9702541412893929  1.0000
  S   S20       1.0  0.5466146725677841  0.7609928483730506  0.0013054218617114532  1.0000
  Fe  Fe11      1.0  0.5529566440971629  0.8806909169223358  0.9485090530415358  1.0000
  S   S21       1.0  0.542024037383441  0.9348098768324655  0.9688075816631808  1.0000
  Fe  Fe12      1.0  0.6050993563747804  0.8310643723128414  0.9208190551388826  1.0000
  S   S22       1.0  0.6581345842712742  0.822756938700905  0.9087951928585326  1.0000
  S   S23       1.0  0.5140427546672858  0.8403062963392092  0.9452397468778101  1.0000
  S   S24       1.0  0.5706831785006901  0.7863727630759557  0.9149754996323883  1.0000
  Fe  Fe13      1.0  0.5575451715365685  0.7324008496745252  0.20773647741818832  1.0000
  S   S25       1.0  0.5853323245346316  0.7823712595216162  0.1998436142299458  1.0000
  S   S26       1.0  0.5846587964814496  0.6811492740302246  0.19568744443710095  1.0000
  Fe  Fe14      1.0  0.49540101443778917  0.7729972274587541  0.22624252565915798  1.0000
  S   S27       1.0  0.5182857973626579  0.8259278099636441  0.22005880507592418  1.0000
  S   S28       1.0  0.44249477918181224  0.7769907343603026  0.24063019609811942  1.0000
  Fe  Fe15      1.0  0.5397919881547955  0.8026756593123394  0.17613468791154743  1.0000
  S   S29       1.0  0.5397704788465646  0.8371779563509909  0.1329097980647275  1.0000
  Fe  Fe16      1.0  0.5613178181746971  0.80066332270163  0.2444692960076428  1.0000
  S   S30       1.0  0.5881817611242174  0.8327147874839033  0.27995950780491574  1.0000
  S   S31       1.0  0.5135565108673791  0.7514540909243864  0.18015801338049972  1.0000
  S   S32       1.0  0.5368679356976954  0.7490439166698278  0.25456292357449317  1.0000
  Fe  Fe17      1.0  0.7812610034676215  0.6568775894963391  0.27537632045423255  1.0000
  S   S33       1.0  0.7535110578296852  0.6155628904165346  0.24951893780439613  1.0000
  S   S34       1.0  0.7961773819129175  0.7080525951690138  0.25303261265709076  1.0000
  Fe  Fe18      1.0  0.7861717414025174  0.6129792859644919  0.33508203304169215  1.0000
  S   S35       1.0  0.7584098736967645  0.5685083082449693  0.31443284957752204  1.0000
  S   S36       1.0  0.8059116608900336  0.6022627618746024  0.3833207891987827  1.0000
  Fe  Fe19      1.0  0.7894287568493762  0.5772456062430814  0.27203944208857506  1.0000
  S   S37       1.0  0.8161901764675846  0.5305355682072178  0.2509437829266761  1.0000
  Fe  Fe20      1.0  0.7253646174372865  0.611528189931085  0.2946424828709119  1.0000
  S   S38       1.0  0.6711869029175573  0.610049783273914  0.30280583888489915  1.0000
  S   S39       1.0  0.8196314044134514  0.6186770338500165  0.294047595150299  1.0000
  S   S40       1.0  0.7505074466101532  0.6557012681903377  0.3188661592436537  1.0000
  Fe  Fe21      1.0  0.7498666104478191  0.8152549307216552  0.04887153930286536  1.0000
  S   S41       1.0  0.7156333185880163  0.7701358311092306  0.052275773235409106  1.0000
  S   S42       1.0  0.7254161950592429  0.8667599049965783  0.03363589334575057  1.0000
  Fe  Fe22      1.0  0.8066909157097837  0.7706729939754313  0.07422818909903839  1.0000
  S   S43       1.0  0.7768229041251884  0.7219460878302583  0.08049224914623632  1.0000
  S   S44       1.0  0.8602282788546962  0.7660405714889197  0.08507611389327607  1.0000
  Fe  Fe23      1.0  0.7565864525666879  0.7361632068349251  0.03313995617376175  1.0000
  S   S45       1.0  0.7478633705685445  0.6940921549228112  0.9967605089610702  1.0000
  Fe  Fe24      1.0  0.7386510723502621  0.7605442566458507  0.09891595372026574  1.0000
  S   S46       1.0  0.7052909941740744  0.7495483063214072  0.1390793713920635  1.0000
  S   S47       1.0  0.7893842592604202  0.7821173472863412  0.025398487137483272  1.0000
  S   S48       1.0  0.7702064607085047  0.8081454854475583  0.09717660437515452  1.0000
  Fe  Fe25      1.0  0.860745695523479  0.7235125586271552  0.5620374850930497  1.0000
  S   S49       1.0  0.8167916403906651  0.7587764288523093  0.5524028741862842  1.0000
  S   S50       1.0  0.9131587568390531  0.7372955829775952  0.557138414999406  1.0000
  Fe  Fe26      1.0  0.8226589810239925  0.6582745875640167  0.5735479904672497  1.0000
  S   S51       1.0  0.7741735116976626  0.6861903961782246  0.5655128655733355  1.0000
  S   S52       1.0  0.8319859565258343  0.600223427429329  0.584137231470609  1.0000
  Fe  Fe27      1.0  0.7987275581655844  0.7127427747798728  0.5251289093209817  1.0000
  S   S53       1.0  0.7732701049705447  0.7249732593436677  0.47985241056522504  1.0000
  Fe  Fe28      1.0  0.794638700060224  0.7306007384883288  0.5933295757004524  1.0000
  S   S54       1.0  0.7570680651182601  0.7607234186222636  0.6216391468095749  1.0000
  S   S55       1.0  0.8450175140666801  0.6803459584320047  0.5300064964985369  1.0000
  S   S56       1.0  0.8406595089252192  0.6998358089334954  0.6061790497914803  1.0000
  Fe  Fe29      1.0  0.7901241506738603  0.6823747766033247  0.7772213280205902  1.0000
  S   S57       1.0  0.8336352724436942  0.6533039913214469  0.7565969130508075  1.0000
  S   S58       1.0  0.7411655101917775  0.6907949427972205  0.7552744313751948  1.0000
  Fe  Fe30      1.0  0.8255074269583477  0.7047217131929653  0.8348282512210623  1.0000
  S   S59       1.0  0.8726974476455625  0.6779573674807813  0.8203648158093019  1.0000
  S   S60       1.0  0.8192802906592073  0.7436101862803112  0.8740046161182443  1.0000
  Fe  Fe31      1.0  0.8615509006489857  0.7000480905176235  0.7727099682389079  1.0000
  S   S61       1.0  0.9019021485811595  0.7261763219497971  0.7468181382050479  1.0000
  Fe  Fe32      1.0  0.8414707737484535  0.6330945694222508  0.8055981686986173  1.0000
  S   S62       1.0  0.8598883139571545  0.576445535374045  0.8095718119245446  1.0000
  S   S63       1.0  0.8173186159295223  0.7312208791358353  0.7884516547685982  1.0000
  S   S64       1.0  0.7949014404409761  0.6575953075593363  0.8249171321620623  1.0000
  Fe  Fe33      1.0  0.5034147387139483  0.21141884744080075  0.3711320207439349  1.0000
  S   S65       1.0  0.5489261622227497  0.2426400993442117  0.3646574534084563  1.0000
  S   S66       1.0  0.4583541902694688  0.21300661069711513  0.34128672980400604  1.0000
  Fe  Fe34      1.0  0.527238084347267  0.17447063798231333  0.42963238004951754  1.0000
  S   S67       1.0  0.5755933864123777  0.20069446809003  0.42900138687445555  1.0000
  S   S68       1.0  0.5074260051604933  0.13655829851248935  0.46515479170157376  1.0000
  Fe  Fe35      1.0  0.54630272582372  0.25021449676941665  0.41687201624220627  1.0000
  S   S69       1.0  0.5584193480496618  0.3015808977627854  0.44006223499263075  1.0000
  Fe  Fe36      1.0  0.5749669111392052  0.1911327809692016  0.37713055738750645  1.0000
  S   S70       1.0  0.621648118004643  0.17317576661639555  0.3537846008259879  1.0000
  S   S71       1.0  0.49792087067773544  0.2248946635421869  0.42195395018055626  1.0000
  S   S72       1.0  0.5299538462427054  0.15900445742568436  0.3789365350026246  1.0000
  Fe  Fe37      1.0  0.5547801995725199  0.18068673706563  0.6446990354334367  1.0000
  S   S73       1.0  0.5989315187817217  0.21375236697551303  0.6516710515612437  1.0000
  S   S74       1.0  0.5501048084974512  0.121455645452756  0.6482793148063613  1.0000
  Fe  Fe38      1.0  0.5089686541026159  0.24385167531478524  0.6356247821268874  1.0000
  S   S75       1.0  0.5479908633273148  0.2836237714009704  0.6422353228237485  1.0000
  S   S76       1.0  0.45541817641198473  0.25484263709071264  0.6285550015342543  1.0000
  Fe  Fe39      1.0  0.5784284600102401  0.2468703343859251  0.6117858023434966  1.0000
  S   S77       1.0  0.6113390604642488  0.2724995830179595  0.5765583538447966  1.0000
  Fe  Fe40      1.0  0.5655951057320493  0.24794708970385848  0.6813487870707567  1.0000
  S   S78       1.0  0.5808388701839071  0.2705722769597927  0.7274097421074424  1.0000
  S   S79       1.0  0.5378321954877088  0.21018665609410103  0.6015246600217558  1.0000
  S   S80       1.0  0.523337625967158  0.2121059309005151  0.6780208129513313  1.0000
  Fe  Fe41      1.0  0.5752957519220627  0.12425763101285225  0.18641405653198145  1.0000
  S   S81       1.0  0.5532866301111823  0.1795042361841377  0.18846343276031205  1.0000
  S   S82       1.0  0.6168042441751205  0.10816250488311407  0.21800812213480808  1.0000
  Fe  Fe42      1.0  0.5347098300763313  0.10368765903029797  0.12988425864784556  1.0000
  S   S83       1.0  0.5083285847254577  0.156889847133328  0.12842537703862997  1.0000
  S   S84       1.0  0.5252885308626271  0.067098754461685  0.08934725885856154  1.0000
  Fe  Fe43      1.0  0.5576462692143891  0.17855119115144968  0.13611522107273322  1.0000
  S   S85       1.0  0.5776664959453218  0.22175508866009522  0.10626821638777174  1.0000
  Fe  Fe44      1.0  0.5062293568837766  0.15200462611530052  0.18071719361340924  1.0000
  S   S86       1.0  0.45964144880628466  0.17018394453289853  0.20446203418094533  1.0000
  S   S87       1.0  0.584473977672378  0.1259107151067571  0.13472095319550703  1.0000
  S   S88       1.0  0.5280147196238015  0.09614738888722085  0.1820068560887289  1.0000
  Fe  Fe45      1.0  0.5072172345986112  0.08634867367289734  0.8746384728033256  1.0000
  S   S89       1.0  0.4875333339962891  0.13636792153285104  0.8973202412970406  1.0000
  S   S90       1.0  0.4786188522958424  0.03745100734757645  0.8676077743897694  1.0000
  Fe  Fe46      1.0  0.5727478870733039  0.11675456528909267  0.8598590116975267  1.0000
  S   S91       1.0  0.558516249391921  0.16993591015282328  0.8798172006990218  1.0000
  S   S92       1.0  0.6236947761573072  0.1095891805702478  0.8415531704752368  1.0000
  Fe  Fe47      1.0  0.5371968468883904  0.13813843083210497  0.9190944459478886  1.0000
  S   S93       1.0  0.5492365614622491  0.1583314491788521  0.9668671572069678  1.0000
  Fe  Fe48      1.0  0.5108667265148896  0.1627804525019827  0.8559587661959214  1.0000
  S   S94       1.0  0.48623918789344023  0.20692690888547371  0.8288439865020273  1.0000
  S   S95       1.0  0.5546627990706949  0.08511099926120158  0.9006278192993308  1.0000
  S   S96       1.0  0.5271271731504797  0.11265000463297192  0.8317441239110586  1.0000
  Fe  Fe49      1.0  0.7403581733948555  0.2234672053482596  0.9254201326317243  1.0000
  S   S97       1.0  0.7166240196722831  0.27613207016853425  0.9128404269817612  1.0000
  S   S98       1.0  0.7073344054921535  0.18255897463104276  0.9455203429115704  1.0000
  Fe  Fe50      1.0  0.8081938005614813  0.24878203019209935  0.9112834484569716  1.0000
  S   S99       1.0  0.7905199061942982  0.30405645008613646  0.8980867121519509  1.0000
  S   S100      1.0  0.861155346310573  0.23216039760453278  0.9108534935693519  1.0000
  Fe  Fe51      1.0  0.7574932116631952  0.2991826508458299  0.9398432174563943  1.0000
  S   S101      1.0  0.7477359549619177  0.3442084853656733  0.9733137483088427  1.0000
  Fe  Fe52      1.0  0.7515096906625466  0.27561397441155405  0.8722562340377148  1.0000
  S   S102      1.0  0.7342518979607956  0.29086589099443094  0.8238695669554164  1.0000
  S   S103      1.0  0.7789957693834478  0.24646827314173736  0.9555556076424936  1.0000
  S   S104      1.0  0.7716182197713797  0.2204785600474335  0.8822153708542678  1.0000
  Fe  Fe53      1.0  0.71816709723333  0.40545822357128086  0.1655961420399171  1.0000
  S   S105      1.0  0.7585565624280215  0.3634710746273953  0.16700202899725813  1.0000
  S   S106      1.0  0.724961026858971  0.4624436738128433  0.15150046008746562  1.0000
  Fe  Fe54      1.0  0.6664664490147068  0.35513522058693303  0.1877493487771153  1.0000
  S   S107      1.0  0.7024504101198955  0.30955367313330373  0.1921657434868675  1.0000
  S   S108      1.0  0.6145875470187999  0.3429599538301594  0.1996477612100779  1.0000
  Fe  Fe55      1.0  0.7357122300751453  0.3489057601930151  0.2130520869839777  1.0000
  S   S109      1.0  0.7640460297205067  0.3327012424783452  0.2559480095927654  1.0000
  Fe  Fe56      1.0  0.7213435086198108  0.32825432160793455  0.14592790417121027  1.0000
  S   S110      1.0  0.7304426782056305  0.28511267472861124  0.11039727760778052  1.0000
  S   S111      1.0  0.6976871755754797  0.3931684686936748  0.21323654558569832  1.0000
  S   S112      1.0  0.6831381223572375  0.37180883778831797  0.13982285881944456  1.0000
  Fe  Fe57      1.0  0.838334179254359  0.4374794369881157  0.44422227233002803  1.0000
  S   S113      1.0  0.8134273992653913  0.395708886077636  0.4163754193051768  1.0000
  S   S114      1.0  0.8927975993081726  0.44374203853347094  0.4453402031911894  1.0000
  Fe  Fe58      1.0  0.7740768752049287  0.470021502745214  0.4679573796087768  1.0000
  S   S115      1.0  0.7439438170199363  0.43120780183583396  0.44242482193557703  1.0000
  S   S116      1.0  0.7460478872824796  0.5143480591410327  0.49115419464017496  1.0000
  Fe  Fe59      1.0  0.781448812549586  0.3909977428351426  0.4591635409348544  1.0000
  S   S117      1.0  0.7656422006382353  0.3389611973448338  0.4796398594226752  1.0000
  Fe  Fe60      1.0  0.7783788630783267  0.44029298116881105  0.40271937697369753  1.0000
  S   S118      1.0  0.7599510050567976  0.45664649289286524  0.3552887100432787  1.0000
  S   S119      1.0  0.8093252082232752  0.42934792505534647  0.48823401880725237  1.0000
  S   S120      1.0  0.8059545696595695  0.4824928396279083  0.42702882779686807  1.0000
  Fe  Fe61      1.0  0.804258335604406  0.44753576237576537  0.683922241072543  1.0000
  S   S121      1.0  0.7825504667518085  0.3958060198065918  0.6974453290023325  1.0000
  S   S122      1.0  0.7809546804626797  0.4960206450173715  0.7065480939344744  1.0000
  Fe  Fe62      1.0  0.8524337187073678  0.412724449354786  0.638772239377515  1.0000
  S   S123      1.0  0.8355727939712838  0.35736819843100287  0.6490101932708809  1.0000
  S   S124      1.0  0.888296876365892  0.42560833012007665  0.6003735773183368  1.0000
  Fe  Fe63      1.0  0.7852359964457605  0.38242297104480905  0.6465327121787745  1.0000
  S   S125      1.0  0.7444488367304655  0.3519528379999587  0.6255373814699431  1.0000
  Fe  Fe64      1.0  0.8342000257465028  0.37487679665886425  0.6991348989159819  1.0000
  S   S126      1.0  0.8513813778063343  0.34082784126731885  0.7397424236926131  1.0000
  S   S127      1.0  0.8017951998228222  0.4364859565266954  0.632326147428282  1.0000
  S   S128      1.0  0.8562095474167799  0.42796816061928056  0.6893614073012122  1.0000
  Fe  Fe65      1.0  0.2246804245005551  0.8261655070602114  0.3975000178279986  1.0000
  S   S129      1.0  0.2646171867954979  0.865299542334372  0.3919657197792519  1.0000
  S   S130      1.0  0.195956457262116  0.8212838713107182  0.4421745552922138  1.0000
  Fe  Fe66      1.0  0.23034953234572808  0.8003466575550038  0.33123381493060505  1.0000
  S   S131      1.0  0.2713381425852472  0.8363120083675721  0.31953128877718534  1.0000
  S   S132      1.0  0.21191595747414452  0.7635254595478528  0.2947285756354268  1.0000
  Fe  Fe67      1.0  0.2907393926078791  0.8207079236762891  0.36634861779306704  1.0000
  S   S133      1.0  0.3442928420174025  0.8078540935207638  0.36992687855376777  1.0000
  Fe  Fe68      1.0  0.24193927467600776  0.8779916146009455  0.345300394327234  1.0000
  S   S134      1.0  0.2407749789714043  0.9319766205027247  0.3221098927969516  1.0000
  S   S135      1.0  0.2527225782409604  0.7802528446058273  0.37590598955323573  1.0000
  S   S136      1.0  0.19900493349058418  0.8433010577901121  0.35317480763058945  1.0000
  Fe  Fe69      1.0  0.2353668527130807  0.8322804264013913  0.6330573824431037  1.0000
  S   S137      1.0  0.28221065131014894  0.8559692074884767  0.6476466784948169  1.0000
  S   S138      1.0  0.18944508882767125  0.8545667339047315  0.6545573971122871  1.0000
  Fe  Fe70      1.0  0.26869063479227506  0.7778523147689185  0.5916013298722811  1.0000
  S   S139      1.0  0.3189157401684457  0.7951185915628106  0.6041745678598434  1.0000
  S   S140      1.0  0.2630824618089845  0.7366720845273075  0.5540546615883595  1.0000
  Fe  Fe71      1.0  0.2995645045247338  0.7994891412733569  0.6532311103513915  1.0000
  S   S141      1.0  0.326931162823901  0.7874688903692094  0.6976517278116504  1.0000
  Fe  Fe72      1.0  0.2975178275881259  0.8501679517925826  0.5977737431250784  1.0000
  S   S142      1.0  0.3301701388307694  0.8896018711711638  0.5751128774131518  1.0000
  S   S143      1.0  0.2514926792424413  0.775578211418075  0.6416774830885834  1.0000
  S   S144      1.0  0.24847192763060408  0.8330816828444104  0.5820082744470632  1.0000
  Fe  Fe73      1.0  0.2340177698752464  0.8950303626482214  0.8244616916931428  1.0000
  S   S145      1.0  0.1855155196936817  0.8889681523885369  0.8477605117372232  1.0000
  S   S146      1.0  0.23650261443879272  0.9243064631610806  0.7786632645798987  1.0000
  Fe  Fe74      1.0  0.27149427403590765  0.8620663975142115  0.8793770732719016  1.0000
  S   S147      1.0  0.22635802478151626  0.853309936637231  0.9077028539211786  1.0000
  S   S148      1.0  0.3214922828760277  0.8511911981239204  0.8988252674414015  1.0000
  Fe  Fe75      1.0  0.20587388234066384  0.8351526190187684  0.861862531835656  1.0000
  S   S149      1.0  0.17805266404230746  0.7855084050368832  0.8544298112707154  1.0000
  Fe  Fe76      1.0  0.2107072459174632  0.9079830441227426  0.8908297672598923  1.0000
  S   S150      1.0  0.1941272307126331  0.9531686801475717  0.921641444498855  1.0000
  S   S151      1.0  0.25260190683458855  0.8394624009809227  0.8346747731483468  1.0000
  S   S152      1.0  0.2577409920050938  0.9182425012230088  0.8664477760564293  1.0000
  Fe  Fe77      1.0  0.314377088289325  0.7705142292982484  0.11360475749863393  1.0000
  S   S153      1.0  0.314929636279665  0.8291240218866823  0.12277173029743736  1.0000
  S   S154      1.0  0.35465956949968586  0.7317605874945269  0.12739783569164562  1.0000
  Fe  Fe78      1.0  0.24949323187085645  0.7762180096614835  0.08005494615111128  1.0000
  S   S155      1.0  0.24471363026471707  0.8356304932008273  0.08556095316555296  1.0000
  S   S156      1.0  0.2105715400201251  0.7437008606267339  0.05833801578997222  1.0000
  Fe  Fe79      1.0  0.297933745156006  0.8348982256169086  0.07323751631460691  1.0000
  S   S157      1.0  0.3229813157219074  0.8763879217363515  0.04479664359530022  1.0000
  Fe  Fe80      1.0  0.2619370979174577  0.8242137762876764  0.13454706466286934  1.0000
  S   S158      1.0  0.24069123009230964  0.8554824758586705  0.17491370663521283  1.0000
  S   S159      1.0  0.30128948476340844  0.7764048341257063  0.06280460500415264  1.0000
  S   S160      1.0  0.26294495702156234  0.7646109735320686  0.12995675169296994  1.0000
  Fe  Fe81      1.0  0.07164936074728967  0.6825003844842594  0.1580645780879154  1.0000
  S   S161      1.0  0.02729620502276675  0.6691174980597461  0.18659273742548543  1.0000
  S   S162      1.0  0.09332711264717264  0.7365711305184153  0.15450340024601553  1.0000
  Fe  Fe82      1.0  0.0838858963772775  0.6071626706173652  0.1362533377221669  1.0000
  S   S163      1.0  0.04075709585492415  0.5863534808947938  0.1619377072383449  1.0000
  S   S164      1.0  0.11919266187626487  0.574766307355345  0.10719989589704491  1.0000
  Fe  Fe83      1.0  0.01453294300677288  0.6360137026017548  0.14497290281712225  1.0000
  S   S165      1.0  0.9634343233509873  0.6308350492460684  0.1269964337876485  1.0000
  Fe  Fe84      1.0  0.057005804823686335  0.6206063479309775  0.2014509797355416  1.0000
  S   S166      1.0  0.06207421117181  0.5939461519767361  0.24851555101412698  1.0000
  S   S167      1.0  0.05634743001730236  0.6535367163129171  0.11517240225256882  1.0000
  S   S168      1.0  0.10256713797658601  0.6372860126151763  0.17700373581914164  1.0000
  Fe  Fe85      1.0  0.9698209604375024  0.7434351431513282  0.9463901133900037  1.0000
  S   S169      1.0  0.9555513059739279  0.6931069829699852  0.9232644583724996  1.0000
  S   S170      1.0  0.9315992259306656  0.7862737470248945  0.9557169787601714  1.0000
  Fe  Fe86      1.0  0.04106492740766887  0.7203047302036015  0.9481500439073366  1.0000
  S   S171      1.0  0.033227368332145346  0.6674551974752668  0.9249408252787239  1.0000
  S   S172      1.0  0.0869956641243137  0.7428341746807039  0.9668899890639562  1.0000
  Fe  Fe87      1.0  0.9998901290279509  0.6998861293187972  0.8933560003068243  1.0000
  S   S173      1.0  0.9916196567572355  0.6929754840592116  0.8418387558019971  1.0000
  Fe  Fe88      1.0  0.9894499281888824  0.66527854945545  0.9567815290302084  1.0000
  S   S174      1.0  0.9685232783681081  0.6170255724125104  0.9798915036685062  1.0000
  S   S175      1.0  0.011488522122695244  0.7528591098249241  0.9137049506505422  1.0000
  S   S176      1.0  0.00026375031572811736  0.7152900864094889  0.9825684603860829  1.0000
  Fe  Fe89      1.0  0.015626303691029797  0.6350833273612103  0.40576810029257643  1.0000
  S   S177      1.0  0.003892324941948244  0.5811674616913975  0.42471911036556104  1.0000
  S   S178      1.0  0.9886955563743345  0.66081421786689  0.3655524500867719  1.0000
  Fe  Fe90      1.0  0.0713963567356144  0.6442815081305756  0.4511761980831908  1.0000
  S   S179      1.0  0.06546449730447113  0.5906519403496036  0.47359826903361485  1.0000
  S   S180      1.0  0.10938849070379586  0.6830820557637719  0.4645374857912205  1.0000
  Fe  Fe91      1.0  0.05811786233406813  0.5713867151054123  0.4243455123308788  1.0000
  S   S181      1.0  0.07864103119225896  0.521083495928985  0.402254554295906  1.0000
  Fe  Fe92      1.0  0.011987903317195236  0.605319583310912  0.471960269077357  1.0000
  S   S182      1.0  0.9778696817369067  0.5930755057495896  0.5119320669820177  1.0000
  S   S183      1.0  0.06947121926223843  0.623868313971571  0.40208907839734914  1.0000
  S   S184      1.0  0.01841048998921546  0.660617572340367  0.45275583012627  1.0000
  Fe  Fe93      1.0  0.10459839519297098  0.6573689983144488  0.7104736591585353  1.0000
  S   S185      1.0  0.08323218700420543  0.6035759727569358  0.7037910091760586  1.0000
  S   S186      1.0  0.11872010676333211  0.6768977503004403  0.7580682220639008  1.0000
  Fe  Fe94      1.0  0.09884304044941117  0.6770422960393463  0.6415407155525752  1.0000
  S   S187      1.0  0.0763625344571448  0.6254293208851396  0.629156211814198  1.0000
  S   S188      1.0  0.10931086378714627  0.7218094973266536  0.6083046445164456  1.0000
  Fe  Fe95      1.0  0.04705783216123782  0.6328151263816378  0.6732339025131873  1.0000
  S   S189      1.0  0.9946529938466637  0.6163389492832257  0.6750777598258075  1.0000
  Fe  Fe96      1.0  0.11466800159033319  0.601119188777572  0.6606344508204997  1.0000
  S   S190      1.0  0.14140917794319718  0.5527370088796987  0.6418375015601081  1.0000
  S   S191      1.0  0.0662669287947737  0.6871565061138636  0.6827738152305513  1.0000
  S   S192      1.0  0.13950373851317388  0.6523356976968171  0.6700047725302077  1.0000
  Fe  Fe97      1.0  0.0679449719441545  0.2865967559363706  0.43572903208707403  1.0000
  S   S193      1.0  0.03816786848244469  0.3356250836951288  0.44864088837714255  1.0000
  S   S194      1.0  0.07489479019834056  0.27072629050448727  0.38569720382015094  1.0000
  Fe  Fe98      1.0  0.08078053543468267  0.2644150733049413  0.5024492392838951  1.0000
  S   S195      1.0  0.052194013828850805  0.3114172201522659  0.5216319443743114  1.0000
  S   S196      1.0  0.10525645220583302  0.2199406774920447  0.5302716334583806  1.0000
  Fe  Fe99      1.0  0.015708679276936532  0.3003320139762717  0.48466053767948897  1.0000
  S   S197      1.0  0.9621755115929813  0.30215439903388475  0.4960315247664736  1.0000
  Fe  Fe100     1.0  0.07715248112032769  0.34285418681840557  0.4844555275926567  1.0000
  S   S198      1.0  0.09386458603558889  0.3958248691839833  0.5008025291591661  1.0000
  S   S199      1.0  0.04177922580791327  0.2503700971770116  0.468488149615166  1.0000
  S   S200      1.0  0.10929906560841518  0.29700825300033096  0.4683721742422899  1.0000
  Fe  Fe101     1.0  0.056908298538232094  0.35868497929251886  0.6570452879239043  1.0000
  S   S201      1.0  0.05398497648173106  0.3017107581454585  0.6725028383856966  1.0000
  S   S202      1.0  0.0373395442742388  0.37938126379185083  0.6112866270575451  1.0000
  Fe  Fe102     1.0  0.09942875414724117  0.37902048466979177  0.7111199595759106  1.0000
  S   S203      1.0  0.10080171696091811  0.3239396034764722  0.7317740993581309  1.0000
  S   S204      1.0  0.12320098309193783  0.42420737222883814  0.7353461732827598  1.0000
  Fe  Fe103     1.0  0.10741041998633083  0.3055319519396934  0.682336678200489  1.0000
  S   S205      1.0  0.1418223077731644  0.26061669162728374  0.6686014813119857  1.0000
  Fe  Fe104     1.0  0.047490420644739295  0.3247148753540003  0.7205062892915258  1.0000
  S   S206      1.0  0.014532733404466036  0.2992845824045146  0.7553944024538255  1.0000
  S   S207      1.0  0.11117439679004626  0.3605402446393119  0.6624451585734541  1.0000
  S   S208      1.0  0.04519399016039061  0.38176573232962047  0.7041551984235942  1.0000
  Fe  Fe105     1.0  0.30750390001445743  0.11180942125053783  0.11957689565564457  1.0000
  S   S209      1.0  0.2754990275872367  0.06482434586312746  0.12360123961210617  1.0000
  S   S210      1.0  0.36064073848995465  0.09821241576825734  0.11460057687321863  1.0000
  Fe  Fe106     1.0  0.2501737959305262  0.16487938187899487  0.11835079977962619  1.0000
  S   S211      1.0  0.21313807306161353  0.12210458225282417  0.12147851826541547  1.0000
  S   S212      1.0  0.23653130848690437  0.22295390696329667  0.11187370156742554  1.0000
  Fe  Fe107     1.0  0.24702450690343963  0.09846903740893742  0.15793758292254567  1.0000
  S   S213      1.0  0.2314550104721043  0.07416678035062096  0.20377657119811413  1.0000
  Fe  Fe108     1.0  0.24555881105785127  0.09291634804688065  0.08691052077856788  1.0000
  S   S214      1.0  0.22944562709570732  0.06436832098851286  0.0437564233185217  1.0000
  S   S215      1.0  0.2821015077435187  0.1433626567895363  0.1572508745665383  1.0000
  S   S216      1.0  0.27951359046576857  0.1379953646832206  0.08049454072291232  1.0000
  Fe  Fe109     1.0  0.2383482951013893  0.12990367217211918  0.8569049786220484  1.0000
  S   S217      1.0  0.2915493244277544  0.11512183148638266  0.8539950424424448  1.0000
  S   S218      1.0  0.20452776038364556  0.09056643631034422  0.8363649773784737  1.0000
  Fe  Fe110     1.0  0.2506496640793663  0.20245311097584806  0.8840567081762586  1.0000
  S   S219      1.0  0.30520942813530594  0.19394115790092115  0.8828089062053226  1.0000
  S   S220      1.0  0.22842667892302781  0.25284199927135886  0.9043107149653709  1.0000
  Fe  Fe111     1.0  0.2967441200660806  0.17047018983687146  0.8353872615848685  1.0000
  S   S221      1.0  0.3286558462051644  0.17590297269944744  0.7927138493759981  1.0000
  Fe  Fe112     1.0  0.29471148540127334  0.13939548265065138  0.901360460879501  1.0000
  S   S222      1.0  0.3259853982186114  0.11270233883130043  0.9382568551592214  1.0000
  S   S223      1.0  0.24307955696248995  0.18390403302015446  0.8347840553797339  1.0000
  S   S224      1.0  0.2407131030239318  0.1496434583196784  0.9063603522564685  1.0000
  Fe  Fe113     1.0  0.05359016562373853  0.29419976560838573  0.9505370074207711  1.0000
  S   S225      1.0  0.07443632794115262  0.3464086944356368  0.9364531153124424  1.0000
  S   S226      1.0  0.07864515891300905  0.24234775848212742  0.9371225393280794  1.0000
  Fe  Fe114     1.0  0.9933499561518049  0.32910211138635925  0.9804142678629182  1.0000
  S   S227      1.0  0.009367645816176662  0.3843303667316413  0.9691050489115889  1.0000
  S   S228      1.0  0.9440348641869309  0.3235942792672827  0.0028295759473098148  1.0000
  Fe  Fe115     1.0  0.023312498666820947  0.36148627206978856  0.9223893004903699  1.0000
  S   S229      1.0  0.012634367922934375  0.3919586828729378  0.8780486600197493  1.0000
  Fe  Fe116     1.0  0.05863548008295538  0.36377596390406153  0.9844689943279439  1.0000
  S   S230      1.0  0.09213826223028443  0.3943573378200054  0.014882837375062685  1.0000
  S   S231      1.0  0.0033710841567362593  0.30775643523218715  0.9323015121530475  1.0000
  S   S232      1.0  0.0416728347798887  0.31013313936270814  1.1981326142329607e-05  1.0000
  Fe  Fe117     1.0  0.14378016769766844  0.4147639311741112  0.20453696900134083  1.0000
  S   S233      1.0  0.09342166178483735  0.435911577184688  0.21547870910733374  1.0000
  S   S234      1.0  0.18285001403770607  0.4523200728770345  0.19084419138919345  1.0000
  Fe  Fe118     1.0  0.1263467982939248  0.33776912478502397  0.21503590686856303  1.0000
  S   S235      1.0  0.07419741811747338  0.3522697837324806  0.22642819626703975  1.0000
  S   S236      1.0  0.14169691394228612  0.2798305249510845  0.21863395364109242  1.0000
  Fe  Fe119     1.0  0.07731971368736024  0.39055735986057655  0.1861533095057021  1.0000
  S   S237      1.0  0.036051052457988675  0.3972934484097847  0.15205813177186786  1.0000
  Fe  Fe120     1.0  0.09518448946639291  0.396037412639569  0.2547560171599295  1.0000
  S   S238      1.0  0.0807854894125748  0.4105042244434441  0.30401230342369395  1.0000
  S   S239      1.0  0.12772389853839972  0.3720532568761923  0.1719032764002877  1.0000
  S   S240      1.0  0.14727098428570407  0.37874273959434474  0.2465390691363018  1.0000
  Fe  Fe121     1.0  0.30304813681632525  0.14528521850067677  0.40785798441056903  1.0000
  S   S241      1.0  0.2820209909191339  0.19830499077287955  0.3920763896236401  1.0000
  S   S242      1.0  0.35448178408346287  0.13151440864835284  0.42189305835569124  1.0000
  Fe  Fe122     1.0  0.2388671586226773  0.10859745051871728  0.4041000891018247  1.0000
  S   S243      1.0  0.21136982572377566  0.15776051236752897  0.3878291478750525  1.0000
  S   S244      1.0  0.21595248879040133  0.057435338625522636  0.4182194098803824  1.0000
  Fe  Fe123     1.0  0.25497856593460866  0.16606463918243364  0.3571422576912453  1.0000
  S   S245      1.0  0.24903085557834131  0.18909657551230885  0.30882612784738017  1.0000
  Fe  Fe124     1.0  0.24023737254605407  0.18618266523585802  0.4238520580797881  1.0000
  S   S246      1.0  0.21396426354278603  0.22779491718406542  0.4527216843911098  1.0000
  S   S247      1.0  0.2801410433269878  0.11392345803612813  0.3698459126818979  1.0000
  S   S248      1.0  0.26379948423345195  0.13612652555892013  0.4432410531223266  1.0000
  Fe  Fe125     1.0  0.342922605146061  0.10876587819108896  0.5943234908265078  1.0000
  S   S249      1.0  0.31768282733798203  0.14085476678661202  0.63201342409966  1.0000
  S   S250      1.0  0.3967087125780574  0.1100824166165546  0.5855897890854476  1.0000
  Fe  Fe126     1.0  0.2816448993269824  0.07456671301742901  0.5731156699534645  1.0000
  S   S251      1.0  0.25054335719353393  0.10335848792926594  0.6084709540246397  1.0000
  S   S252      1.0  0.2587428190343662  0.03567621049277503  0.5410183625145051  1.0000
  Fe  Fe127     1.0  0.2793644198680054  0.15093772489356572  0.5956243117901732  1.0000
  S   S253      1.0  0.25164973520241335  0.20328236970013447  0.5938999324191441  1.0000
  Fe  Fe128     1.0  0.29113746198897567  0.09069603117393288  0.6418932339037337  1.0000
  S   S254      1.0  0.27631153135591324  0.07236152187076317  0.6898067521786846  1.0000
  S   S255      1.0  0.3069277218665757  0.12324873254959323  0.5566200340097055  1.0000
  S   S256      1.0  0.320033776331624  0.05737259608007261  0.6077909014922478  1.0000
  C   C1        1.0  0.22622607708736991  0.2249772899072615  0.49186581913598965  1.0000
  C   C2        1.0  0.20498855760008342  0.23689313185141647  0.5156306648217033  1.0000
  C   C3        1.0  0.21350982674807922  0.2316181130202417  0.5471685576778142  1.0000
  C   C4        1.0  0.24319169924329379  0.21442433330566568  0.5548408275266226  1.0000
  C   C5        1.0  0.26497738162894946  0.20398837524407099  0.5310772000684185  1.0000
  C   C6        1.0  0.25644894192885537  0.2090960006784306  0.49958223670769897  1.0000
  H   H1        1.0  0.18138596303476207  0.24871904144036328  0.5096126112273036  1.0000
  H   H2        1.0  0.19647611245085794  0.23920210749268023  0.5655435807680461  1.0000
  H   H3        1.0  0.28848390057065526  0.19214701171672366  0.5369383681284811  1.0000
  H   H4        1.0  0.27328254552188114  0.2008084311844569  0.481263320763949  1.0000
  C   C7        1.0  0.0754849234291386  0.39867674535048153  0.052437092834739296  1.0000
  C   C8        1.0  0.04299802106335249  0.3901773286649969  0.05810768489197726  1.0000
  C   C9        1.0  0.030474160193692423  0.3913498392516392  0.08870993864402058  1.0000
  C   C10       1.0  0.05060845557228166  0.4004331439079838  0.11363116970033933  1.0000
  C   C11       1.0  0.08273026478577661  0.4101771369825123  0.10778155061942818  1.0000
  C   C12       1.0  0.09514481905555194  0.4094060063995252  0.07716196224121541  1.0000
  H   H5        1.0  0.027645839256670746  0.3820835709574383  0.03902310398102449  1.0000
  H   H6        1.0  0.00556000424297709  0.3839222821573518  0.09319376570948541  1.0000
  H   H7        1.0  0.09800124668305599  0.418517315198663  0.12680716335508047  1.0000
  H   H8        1.0  0.12018502398563191  0.4164186197618081  0.07273333086534994  1.0000
  C   C13       1.0  0.31436317474826475  0.14700620806547082  0.7640250065447656  1.0000
  C   C14       1.0  0.332230239182775  0.14105104201719953  0.7364290112527462  1.0000
  C   C15       1.0  0.3208226843943486  0.11773667098157126  0.7136836623193987  1.0000
  C   C16       1.0  0.29152764447386814  0.10037000545285912  0.7184844667946139  1.0000
  C   C17       1.0  0.27384654216838344  0.10592449982772978  0.7461757873288155  1.0000
  C   C18       1.0  0.28518863115563525  0.1293376255451688  0.7688445174622676  1.0000
  H   H9        1.0  0.35501257562527433  0.15400917980201667  0.7325987256397928  1.0000
  H   H10       1.0  0.335102735225297  0.11261679353791765  0.6927428970865083  1.0000
  H   H11       1.0  0.25107546761132227  0.09260216842882407  0.7499374707004453  1.0000
  H   H12       1.0  0.2710352916080336  0.13380868799767343  0.7899047364631487  1.0000
  C   C19       1.0  0.12068910108995223  0.2446499294868787  0.9297587227185955  1.0000
  C   C20       1.0  0.13820585924585682  0.27405702741220406  0.9393705231984019  1.0000
  C   C21       1.0  0.17145466219761252  0.27620769873641726  0.9318232162777925  1.0000
  C   C22       1.0  0.18720685043254837  0.24904989594070792  0.9145333533383498  1.0000
  C   C23       1.0  0.16984368489159585  0.2193858445929111  0.9053515559818063  1.0000
  C   C24       1.0  0.13668713180150482  0.2170892911337745  0.9131626198260767  1.0000
  H   H13       1.0  0.1262106546587196  0.2950695996063595  0.9527476899707312  1.0000
  H   H14       1.0  0.1848858984737014  0.29912345678709307  0.9391106000977805  1.0000
  H   H15       1.0  0.18177461505257342  0.19839180008090618  0.8918487205344495  1.0000
  H   H16       1.0  0.12321276344358978  0.19425231030509882  0.9057276863563277  1.0000
  C   C25       1.0  0.2324975808941012  0.10627963883773073  0.23347555360167396  1.0000
  C   C26       1.0  0.2331454395064442  0.14251525698018352  0.22571088007852538  1.0000
  C   C27       1.0  0.23710976183290441  0.16801259231206123  0.2491297453204467  1.0000
  C   C28       1.0  0.2401743083213589  0.1573196396683707  0.2804581366512447  1.0000
  C   C29       1.0  0.23801454814848727  0.1212544452487061  0.2885027237186081  1.0000
  C   C30       1.0  0.23421652488131658  0.09571392519797128  0.2649974793776132  1.0000
  H   H17       1.0  0.2305979802858272  0.15094882652334762  0.20160704970670273  1.0000
  H   H18       1.0  0.23824858935658005  0.19595634681451846  0.2428148122639324  1.0000
  H   H19       1.0  0.2397231048283055  0.11292424318520022  0.3127378309293361  1.0000
  H   H20       1.0  0.23321870527211586  0.06782198847639909  0.2712870894612531  1.0000
  C   C31       1.0  0.21166774124713478  0.23902593597631472  0.14257600092447903  1.0000
  C   C32       1.0  0.20479570906145123  0.27571099581803693  0.14525946088684888  1.0000
  C   C33       1.0  0.1841158603170072  0.2886337954367908  0.16922565503578915  1.0000
  C   C34       1.0  0.16989327381298946  0.2648088996664267  0.19021724032857878  1.0000
  C   C35       1.0  0.1771674705145314  0.2282082292223309  0.18777731797449984  1.0000
  C   C36       1.0  0.19803239859437258  0.21534456057671258  0.1640022873642538  1.0000
  H   H21       1.0  0.21560280464657378  0.29414800853673373  0.128917469972171  1.0000
  H   H22       1.0  0.17917597395387053  0.3169639606004448  0.1713674588115701  1.0000
  H   H23       1.0  0.1663286964822266  0.209669460271473  0.20401949654849333  1.0000
  H   H24       1.0  0.20316321994559802  0.18703256633561782  0.1619992975394447  1.0000
  C   C37       1.0  0.258050788708666  0.07133237350334953  0.013824692815031403  1.0000
  C   C38       1.0  0.2904708010657326  0.07839203092800417  0.021120959852544585  1.0000
  C   C39       1.0  0.3119869767662733  0.08927348451796902  0.997515647828132  1.0000
  C   C40       1.0  0.3011504085524261  0.09277960448033129  0.966564773657586  1.0000
  C   C41       1.0  0.2695749935729688  0.08280690271880808  0.958916652595366  1.0000
  C   C42       1.0  0.24792773155570516  0.072372671633264  0.9825616466981967  1.0000
  H   H25       1.0  0.29883329801434894  0.07621358323629268  0.04508740824010937  1.0000
  H   H26       1.0  0.33657914641713077  0.09630322662670254  0.0034623314506361247  1.0000
  H   H27       1.0  0.26156701521442255  0.08405278735398647  0.9348660321452712  1.0000
  H   H28       1.0  0.2228774473211656  0.06701349469135431  0.9768160799249713  1.0000
  C   C43       1.0  0.013641514043233993  0.3248585025888277  0.7894636628909273  1.0000
  C   C44       1.0  0.012209291162932345  0.36208373712537395  0.7874958922383505  1.0000
  C   C45       1.0  0.011565476364646221  0.38252393699553605  0.8148737280960431  1.0000
  C   C46       1.0  0.013233327153787222  0.36579746771774213  0.8442237779034595  1.0000
  C   C47       1.0  0.015344436426524055  0.32853156011310586  0.8461699111471637  1.0000
  C   C48       1.0  0.014946884792715665  0.30804025851901373  0.8187996091926271  1.0000
  H   H29       1.0  0.011005646257735036  0.37515954707055993  0.7648773395618181  1.0000
  H   H30       1.0  0.010143729044199912  0.4113483022798363  0.8132862931681861  1.0000
  H   H31       1.0  0.017289368359934443  0.3154337599601644  0.8686500018637389  1.0000
  H   H32       1.0  0.01630326496317469  0.27920315523179945  0.8202898908122781  1.0000
  C   C49       1.0  0.11578090012243436  0.23137406436061325  0.5685550664372088  1.0000
  C   C50       1.0  0.1353753899232777  0.20793980774928578  0.586514575829481  1.0000
  C   C51       1.0  0.1437765941142195  0.2169110890721753  0.617245932324833  1.0000
  C   C52       1.0  0.13199168450595677  0.24900970697397848  0.6302100075729924  1.0000
  C   C53       1.0  0.11206298125930347  0.2721127957070249  0.6123598059996305  1.0000
  C   C54       1.0  0.10438602871368907  0.2635267567528488  0.581481723720552  1.0000
  H   H33       1.0  0.14436299839615407  0.18303727137114215  0.5766219992465202  1.0000
  H   H34       1.0  0.1590603373548718  0.19876734807727425  0.6308810935087839  1.0000
  H   H35       1.0  0.10296106598448707  0.29694435736539576  0.6221575868387246  1.0000
  H   H36       1.0  0.08969709412886684  0.281855550462872  0.5677758524019934  1.0000
  C   C55       1.0  0.07720839610140162  0.30943824352910826  0.3630996336925641  1.0000
  C   C56       1.0  0.06813534206143945  0.3088556289198135  0.3316065718221731  1.0000
  C   C57       1.0  0.06958625242545735  0.3398745660970871  0.31338061571383663  1.0000
  C   C58       1.0  0.08026926951783753  0.37144593909272533  0.3265507038651079  1.0000
  C   C59       1.0  0.08978450251668768  0.3719297092096031  0.35800848472351804  1.0000
  C   C60       1.0  0.08807725010367351  0.34093751721971305  0.3763736127541987  1.0000
  H   H37       1.0  0.05920376537390548  0.284646287377121  0.3214839907858279  1.0000
  H   H38       1.0  0.06143619975749415  0.33949681339510845  0.28941606298552985  1.0000
  H   H39       1.0  0.09871405554511514  0.3960755665038607  0.36811193681361726  1.0000
  H   H40       1.0  0.09560710398989403  0.3412570418839599  0.4006474093002393  1.0000
  C   C61       1.0  0.1406749782477148  0.5171012188563423  0.6685661182861169  1.0000
  C   C62       1.0  0.1356573255940503  0.5232964546222709  0.700546665678557  1.0000
  C   C63       1.0  0.13134306152986364  0.4945449681765802  0.721181513573658  1.0000
  C   C64       1.0  0.13162155611113824  0.4596127559361629  0.7097973269020676  1.0000
  C   C65       1.0  0.1376763367199627  0.4534246241910345  0.6779630787672498  1.0000
  C   C66       1.0  0.14255896309725613  0.48209667986032584  0.6574278178126286  1.0000
  H   H41       1.0  0.1351552406958354  0.5502110773230885  0.7094510072013643  1.0000
  H   H42       1.0  0.127127442785403  0.49943194562086  0.7458728957957375  1.0000
  H   H43       1.0  0.13902717511779894  0.4265693760253028  0.669209964816727  1.0000
  H   H44       1.0  0.14690104586834396  0.4772020640870238  0.6327733294970179  1.0000
  C   C67       1.0  0.08293735851023754  0.48624214032838886  0.4295908432124705  1.0000
  C   C68       1.0  0.09703452864471229  0.4534227678460836  0.42042741789507415  1.0000
  C   C69       1.0  0.0998661915190231  0.42509351546650265  0.44203347918943026  1.0000
  C   C70       1.0  0.0891620911563229  0.4299654273598982  0.472939840376596  1.0000
  C   C71       1.0  0.07528338549809344  0.4628261392041096  0.4820964858325511  1.0000
  C   C72       1.0  0.0717099898673943  0.49074601335906654  0.4603238684503959  1.0000
  H   H45       1.0  0.10595239556549929  0.4500490961366112  0.39671112088489396  1.0000
  H   H46       1.0  0.11091516991042605  0.39979286860589863  0.43498369217766264  1.0000
  H   H47       1.0  0.06704316081477235  0.4666233031922186  0.5060118945312619  1.0000
  H   H48       1.0  0.060313364060136765  0.5157314389750194  0.4674136416865253  1.0000
  C   C73       1.0  0.1071749546341878  0.6947395378596102  0.5042744394720209  1.0000
  C   C74       1.0  0.12550560903018426  0.7229850914624799  0.5151022854339866  1.0000
  C   C75       1.0  0.12483575414905146  0.7320158823542731  0.5469117899243244  1.0000
  C   C76       1.0  0.1066464681816024  0.7121753955331122  0.5682193771004135  1.0000
  C   C77       1.0  0.08787267418876676  0.6842349228665843  0.5573998554191506  1.0000
  C   C78       1.0  0.08791861330422313  0.6757100206092103  0.52536182248946  1.0000
  H   H49       1.0  0.1403768039039761  0.7378972810401305  0.49897549666497465  1.0000
  H   H50       1.0  0.1391966883967335  0.7538347515411836  0.5551101072850522  1.0000
  H   H51       1.0  0.07328590093357756  0.6692124776606252  0.5735735180646917  1.0000
  H   H52       1.0  0.07349873652178363  0.6540429429566614  0.5170911473723488  1.0000
  C   C79       1.0  0.02746689255037449  0.6902726097789812  0.8192059668797597  1.0000
  C   C80       1.0  0.05832380191009445  0.694094380707294  0.8325225591301937  1.0000
  C   C81       1.0  0.08650386012307565  0.6902309330023967  0.8137086432366203  1.0000
  C   C82       1.0  0.08379162903652548  0.681885708670602  0.7818641185884075  1.0000
  C   C83       1.0  0.05294040143516199  0.6776809568509101  0.7689004334230874  1.0000
  C   C84       1.0  0.024891788124173253  0.6826788083535383  0.7873052713718981  1.0000
  H   H53       1.0  0.06052202418865926  0.6999686771309158  0.8572081578546047  1.0000
  H   H54       1.0  0.11037698698074805  0.6931072273480946  0.8238699702204065  1.0000
  H   H55       1.0  0.05065981834653366  0.6704391201535707  0.7446855721928182  1.0000
  H   H56       1.0  0.0011630089714371739  0.680228421799065  0.7768513731207395  1.0000
  C   C85       1.0  0.13701353645403525  0.5409138099329884  0.1304666259898436  1.0000
  C   C86       1.0  0.12483869611697007  0.534371439815015  0.16055026199935504  1.0000
  C   C87       1.0  0.1388100789802693  0.5069799475071803  0.1789947567231754  1.0000
  C   C88       1.0  0.1655752572889273  0.4867502716851243  0.1678014766689939  1.0000
  C   C89       1.0  0.17837935858393061  0.4939983051081192  0.13805473330001158  1.0000
  C   C90       1.0  0.1638001133365503  0.5207635373356231  0.11919199345298512  1.0000
  H   H57       1.0  0.10444726052757813  0.5501120574399626  0.16961242490043785  1.0000
  H   H58       1.0  0.12906879462181875  0.5017999474238768  0.2020203423813364  1.0000
  H   H59       1.0  0.19903776692174713  0.47829225582184726  0.12932583871097142  1.0000
  H   H60       1.0  0.17330104123782064  0.5257925469914069  0.09593439357903998  1.0000
  C   C91       1.0  0.039415224337699506  0.6125030480941398  0.27978653123630903  1.0000
  C   C92       1.0  0.020950503581851132  0.6443730839616952  0.27657323290869285  1.0000
  C   C93       1.0  0.004280695381625899  0.6589778024653786  0.3026590643758257  1.0000
  C   C94       1.0  0.006226244885627841  0.6416630367949394  0.33182798105585637  1.0000
  C   C95       1.0  0.02384200882736809  0.6093672187957423  0.33462836560939807  1.0000
  C   C96       1.0  0.04051227141538383  0.5950082562863696  0.30882199023378004  1.0000
  H   H61       1.0  0.020002905192591625  0.6581058723281468  0.2542772727502861  1.0000
  H   H62       1.0  0.9906690850392889  0.6840304242150722  0.30041896008289243  1.0000
  H   H63       1.0  0.024849739036703067  0.5953842448201853  0.35681213339485  1.0000
  H   H64       1.0  0.054494269209397705  0.5704704246130055  0.3117114627043256  1.0000
  C   C97       1.0  0.9640008672169037  0.6279494261435112  0.0860758351638446  1.0000
  C   C98       1.0  0.9434452445401494  0.604555888536459  0.07084672652786406  1.0000
  C   C99       1.0  0.9452959848623659  0.6007324711297127  0.03817931631867166  1.0000
  C   C100      1.0  0.9673571379578392  0.6206890401877855  0.02075870362210641  1.0000
  C   C101      1.0  0.9878698196250998  0.6439398275903876  0.036065853544420046  1.0000
  C   C102      1.0  0.9858814799459963  0.6479235452756994  0.06860175063253515  1.0000
  H   H65       1.0  0.9265837495125634  0.5889142390042067  0.08434848619819957  1.0000
  H   H66       1.0  0.9295656945465129  0.5824680249193863  0.02640359342363241  1.0000
  H   H67       1.0  0.005844596138214753  0.6582393642722857  0.022974862312364674  1.0000
  H   H68       1.0  0.000983386788547591  0.6668566640021044  0.08007781714110464  1.0000
  C   C103      1.0  0.12529237657089065  0.7389953666741869  0.12711355294322718  1.0000
  C   C104      1.0  0.12783626364672762  0.7149857247197667  0.10217211877060399  1.0000
  C   C105      1.0  0.1530345903925463  0.7177855960358667  0.08003246661195713  1.0000
  C   C106      1.0  0.1767803533351198  0.7434195006932963  0.08369531118867654  1.0000
  C   C107      1.0  0.17432612069100675  0.767390066680037  0.10866611134003666  1.0000
  C   C108      1.0  0.14833062331477653  0.7655221193624718  0.13004447798907745  1.0000
  H   H69       1.0  0.11042222243538125  0.6942722678707358  0.0998249454043634  1.0000
  H   H70       1.0  0.1546457708701254  0.6993974280612688  0.06059012518878503  1.0000
  H   H71       1.0  0.1924206831105173  0.7874447115017227  0.11163475645561816  1.0000
  H   H72       1.0  0.14651694435867957  0.7841874404208146  0.14930177438743628  1.0000
  C   C109      1.0  0.19446140959252745  0.9920981023299302  0.8985372131992493  1.0000
  C   C110      1.0  0.1874087743472944  0.9906170534727105  0.8665129497677201  1.0000
  C   C111      1.0  0.1889700991687053  0.02141776997967204  0.8478323348174204  1.0000
  C   C112      1.0  0.1988956773339047  0.05345954940303477  0.8608266063240616  1.0000
  C   C113      1.0  0.2059072990864777  0.05499334368877151  0.892823346453059  1.0000
  C   C114      1.0  0.203224279037124  0.024475934658344523  0.9117347900297913  1.0000
  H   H73       1.0  0.1802404852058621  0.9658690879300433  0.856161015392077  1.0000
  H   H74       1.0  0.1830149166677435  0.020210612102635084  0.8231837196746626  1.0000
  H   H75       1.0  0.21296430486812257  0.07977772412047845  0.9030854445073964  1.0000
  H   H76       1.0  0.20849347727458853  0.0258619956036219  0.936405724757013  1.0000
  C   C115      1.0  0.15071847939572547  0.7757653988314448  0.8847330170462033  1.0000
  C   C116      1.0  0.13292835870990793  0.744616678051971  0.8831772746971179  1.0000
  C   C117      1.0  0.11253627232859986  0.7350349723704926  0.9080688262497687  1.0000
  C   C118      1.0  0.11063527294323938  0.7561398761809788  0.9349360108178599  1.0000
  C   C119      1.0  0.12818553058669413  0.7875137700135045  0.9364658762781731  1.0000
  C   C120      1.0  0.14786685441115255  0.7976239179421353  0.911128184477186  1.0000
  H   H77       1.0  0.13521581815734995  0.7276556696046005  0.8628486836732197  1.0000
  H   H78       1.0  0.09898577086291649  0.7107786289748991  0.9067943508011693  1.0000
  H   H79       1.0  0.126270413375829  0.8041566908755889  0.9570581039316807  1.0000
  H   H80       1.0  0.16103317810025053  0.8220987733317796  0.9121411476711392  1.0000
  C   C121      1.0  0.3213822336296837  0.8581693187855945  0.9393941656034508  1.0000
  C   C122      1.0  0.3001473235470878  0.8396066059194078  0.9588745498725835  1.0000
  C   C123      1.0  0.30077498344136194  0.8445677780737174  0.9914785049129595  1.0000
  C   C124      1.0  0.32239421953705155  0.8685780499047233  0.004421346980020502  1.0000
  C   C125      1.0  0.34317324629720924  0.8876155815839845  0.9848564300393752  1.0000
  C   C126      1.0  0.34283680535918565  0.882232838579393  0.9524076641956869  1.0000
  H   H81       1.0  0.2838335811384843  0.8209354495357379  0.9486868509721306  1.0000
  H   H82       1.0  0.2845100358822563  0.830058389210764  0.006561582127968979  1.0000
  H   H83       1.0  0.359667999280755  0.9064429831114782  0.9948294093848417  1.0000
  H   H84       1.0  0.3588620687556585  0.897141420274248  0.9374380907311238  1.0000
  C   C127      1.0  0.30997341509267134  0.929413478412873  0.5639455271812753  1.0000
  C   C128      1.0  0.2760396696412987  0.931202434458675  0.5603333364286872  1.0000
  C   C129      1.0  0.26030044309468237  0.9636341177287351  0.5520153074618496  1.0000
  C   C130      1.0  0.27840713889644886  0.9944084466635534  0.5483278544703746  1.0000
  C   C131      1.0  0.31232410799278865  0.9924845176006016  0.5517875425722282  1.0000
  C   C132      1.0  0.3281253382547633  0.9599291658750576  0.5591996404659626  1.0000
  H   H85       1.0  0.26182580051957144  0.9077692651214263  0.56411874074445  1.0000
  H   H86       1.0  0.23401744592786264  0.965118642145527  0.5494910419441847  1.0000
  H   H87       1.0  0.32645133272776367  0.01615941053115444  0.5489079416253677  1.0000
  H   H88       1.0  0.354343682858521  0.9586813692588795  0.5622625837471672  1.0000
  C   C133      1.0  0.19945166637517292  0.870267386086238  0.6917051667302544  1.0000
  C   C134      1.0  0.2261493218694351  0.8551806092437652  0.7080008477578122  1.0000
  C   C135      1.0  0.23622656854245389  0.8702120673839657  0.736220405474935  1.0000
  C   C136      1.0  0.21992195516326085  0.9007080261053123  0.7477675605543863  1.0000
  C   C137      1.0  0.19275005236276788  0.915208869584679  0.7319323932839843  1.0000
  C   C138      1.0  0.18220093295941908  0.8996461897470526  0.7041428591061102  1.0000
  H   H89       1.0  0.23948636680996274  0.8323011984582653  0.6985907098831282  1.0000
  H   H90       1.0  0.25766430880382174  0.8593708950347752  0.7481233060224917  1.0000
  H   H91       1.0  0.18037289103634538  0.9390538050934304  0.7407151639648978  1.0000
  H   H92       1.0  0.1616669708255496  0.9114224759867444  0.6915059246949902  1.0000
  C   C139      1.0  0.23416834370929793  0.9666767970104779  0.3490042408003341  1.0000
  C   C140      1.0  0.23887719260580567  0.0020107696047939605  0.3396075590040468  1.0000
  C   C141      1.0  0.23334575620995526  0.030029467250241026  0.36079591853575604  1.0000
  C   C142      1.0  0.2229702422075489  0.022769591192809413  0.39137699289646244  1.0000
  C   C143      1.0  0.218310373299457  0.9874472987152372  0.40079363883543423  1.0000
  C   C144      1.0  0.2240243576288986  0.9593876986874043  0.3796624593636796  1.0000
  H   H93       1.0  0.246750749722062  0.00778787682381199  0.3159533334044797  1.0000
  H   H94       1.0  0.23636861275866924  0.05725128685420788  0.3532121819112276  1.0000
  H   H95       1.0  0.21010036587610706  0.9817799362189518  0.4243937328020051  1.0000
  H   H96       1.0  0.2199490464186497  0.9322147352790315  0.3869299185840796  1.0000
  C   C145      1.0  0.2126837613490714  0.7942768516341  0.4722516999793233  1.0000
  C   C146      1.0  0.2002811005757669  0.7980043910862049  0.5027067696416848  1.0000
  C   C147      1.0  0.21497227187745965  0.7792237520355975  0.5276989864957156  1.0000
  C   C148      1.0  0.24198141605560303  0.75638630015743  0.5223194261771003  1.0000
  C   C149      1.0  0.2533181343949886  0.751074001473993  0.4916221005084625  1.0000
  C   C150      1.0  0.2387427962155051  0.7701119454963907  0.4665954398252479  1.0000
  H   H97       1.0  0.17980286692793204  0.8162247738285145  0.5071808561269481  1.0000
  H   H98       1.0  0.20548825765766446  0.7827154293446802  0.5512255562448477  1.0000
  H   H99       1.0  0.27403697193606336  0.7331537444803908  0.4873390522067326  1.0000
  H   H100      1.0  0.24805694008008491  0.7664850735823723  0.443099972382382  1.0000
  C   C151      1.0  0.21376712263498532  0.7886859532630789  0.2601306482606622  1.0000
  C   C152      1.0  0.215848188351836  0.8256661416245152  0.2622409010702195  1.0000
  C   C153      1.0  0.22321081756028435  0.8458941081542881  0.23573943287389218  1.0000
  C   C154      1.0  0.22791532702619346  0.8294574687031457  0.2067449063775274  1.0000
  C   C155      1.0  0.22354192991887228  0.792683148794358  0.2041051997614752  1.0000
  C   C156      1.0  0.21662924040350678  0.7721754996831043  0.23088526203726004  1.0000
  H   H101      1.0  0.21227849634775195  0.8388444690173281  0.2844630130871333  1.0000
  H   H102      1.0  0.22607629821950062  0.8741693894586946  0.23805405353765338  1.0000
  H   H103      1.0  0.22545769195420273  0.7800286148000148  0.18160036672508667  1.0000
  H   H104      1.0  0.21434689459742914  0.7436098963480313  0.22905327713823823  1.0000
  C   C157      1.0  0.9292456821169353  0.4113046764205518  0.6046866746478153  1.0000
  C   C158      1.0  0.9500045003938624  0.41414235302045854  0.5787545941769079  1.0000
  C   C159      1.0  0.9829484941946983  0.4037036072058292  0.5810743443660245  1.0000
  C   C160      1.0  0.9954846824071419  0.39041418537087286  0.6093772455268994  1.0000
  C   C161      1.0  0.9747356626923558  0.3869298322010614  0.6353641878446173  1.0000
  C   C162      1.0  0.9414779575964141  0.3973205431474174  0.6329829274918093  1.0000
  H   H105      1.0  0.9406111415714187  0.42420850794740317  0.5566702377133657  1.0000
  H   H106      1.0  0.9988394270351032  0.4060904984193183  0.5608570031961403  1.0000
  H   H107      1.0  0.9843039987062056  0.37653327094806166  0.6573081856212646  1.0000
  H   H108      1.0  0.9254681787356955  0.394914793479925  0.653081354943168  1.0000
  C   C163      1.0  0.9124040242910564  0.4043891654495493  0.45897963899224775  1.0000
  C   C164      1.0  0.8961078205349553  0.37220786948760515  0.4587693279175731  1.0000
  C   C165      1.0  0.9118827315297233  0.3407470551688794  0.4694041277190323  1.0000
  C   C166      1.0  0.9437949531957609  0.34141300877196634  0.48081183329192795  1.0000
  C   C167      1.0  0.9601995446479351  0.37360613982348423  0.4810430418423447  1.0000
  C   C168      1.0  0.9445158717663746  0.40508046821877786  0.4700516884164881  1.0000
  H   H109      1.0  0.8714995967090827  0.371344991251047  0.4499432563382147  1.0000
  H   H110      1.0  0.8995039990889939  0.31573788284729104  0.46841435269489407  1.0000
  H   H111      1.0  0.9847620558028941  0.374343717439376  0.4902166009859243  1.0000
  H   H112      1.0  0.9571899346906393  0.429944848941097  0.4704498025635731  1.0000
  C   C169      1.0  0.7558536418473232  0.34344114182028523  0.5195614938794731  1.0000
  C   C170      1.0  0.7535226716721511  0.37710414058823866  0.5335835312899989  1.0000
  C   C171      1.0  0.7495106014867787  0.3800091962563711  0.5662003283828628  1.0000
  C   C172      1.0  0.7469859717245174  0.3492222599158264  0.5846366219426232  1.0000
  C   C173      1.0  0.747341257892624  0.3157061482999981  0.5703743368848809  1.0000
  C   C174      1.0  0.7520648826074547  0.31279551198938355  0.5379189971736063  1.0000
  H   H113      1.0  0.7550506912736153  0.4009559901166925  0.519439659838606  1.0000
  H   H114      1.0  0.7486169618837596  0.40603104879187574  0.5770852636888485  1.0000
  H   H115      1.0  0.7450337622303667  0.29188530844979343  0.5845658597460504  1.0000
  H   H116      1.0  0.7535248582305202  0.2867250392568085  0.527169852894185  1.0000
  C   C175      1.0  0.7641361770524533  0.3673102748267139  0.283388640500536  1.0000
  C   C176      1.0  0.7584173019589523  0.40271304594826696  0.27388532256760945  1.0000
  C   C177      1.0  0.7573947058151042  0.4300854800322896  0.29612325154918423  1.0000
  C   C178      1.0  0.761815963730977  0.42206027916680977  0.32790952897287845  1.0000
  C   C179      1.0  0.7682315276442767  0.3868055899540645  0.3374155294021884  1.0000
  C   C180      1.0  0.769561420676564  0.3594490290040143  0.31511157936931733  1.0000
  H   H117      1.0  0.7552792345642523  0.409015770609852  0.24934262981870367  1.0000
  H   H118      1.0  0.7534729082378597  0.4574804321295083  0.2886676034274493  1.0000
  H   H119      1.0  0.7715932778012865  0.38045142644843477  0.36193479210884827  1.0000
  H   H120      1.0  0.7741024103278302  0.3320853879889642  0.32246815205259094  1.0000
  C   C181      1.0  0.88306788636775  0.2556875720466406  0.9387224588053358  1.0000
  C   C182      1.0  0.9156506876735867  0.24584074608716258  0.9447645141300595  1.0000
  C   C183      1.0  0.9343747631202788  0.2665190028457584  0.9647042558132539  1.0000
  C   C184      1.0  0.9204570440909687  0.2969301120529951  0.978806126967948  1.0000
  C   C185      1.0  0.8877488429409598  0.30654875509348645  0.9730950564541522  1.0000
  C   C186      1.0  0.8689731270889536  0.2858398751273583  0.9531960048550919  1.0000
  H   H121      1.0  0.92656848991684  0.22244100902123964  0.9336960147061488  1.0000
  H   H122      1.0  0.9595689972199322  0.2587848182800282  0.9693051671218155  1.0000
  H   H123      1.0  0.877287942039534  0.33067277369972725  0.983190394483397  1.0000
  H   H124      1.0  0.8439000311645265  0.2937714079287699  0.9483683262151017  1.0000
  C   C187      1.0  0.767340740391052  0.3004540423067792  0.7992567766582047  1.0000
  C   C188      1.0  0.761644169954891  0.31115906298419616  0.7682149742789446  1.0000
  C   C189      1.0  0.7876719103553697  0.32166384242838814  0.7491427408384091  1.0000
  C   C190      1.0  0.819322663932405  0.3223161420302858  0.7612702120580038  1.0000
  C   C191      1.0  0.825151002045433  0.3103515764181638  0.7918795263126918  1.0000
  C   C192      1.0  0.7992768733751874  0.29917753898436245  0.810794728678616  1.0000
  H   H125      1.0  0.7371007764932427  0.31152426020324436  0.7589571325048988  1.0000
  H   H126      1.0  0.7832226291468942  0.32900849222611633  0.7250371106358621  1.0000
  H   H127      1.0  0.8496789851049009  0.31018309166997154  0.8009670390852939  1.0000
  H   H128      1.0  0.804061801138476  0.2897797590986469  0.8343173053706264  1.0000
  C   C193      1.0  0.7310023979253418  0.30240199971681364  0.07222861976238472  1.0000
  C   C194      1.0  0.7331741787564618  0.3390903807153113  0.06691345109448665  1.0000
  C   C195      1.0  0.7370039924969015  0.3521395643375126  0.0362503711906097  1.0000
  C   C196      1.0  0.7379229597302318  0.328580442490748  0.010901568408531626  1.0000
  C   C197      1.0  0.7335659810666143  0.2921836389231852  0.01617611764261695  1.0000
  C   C198      1.0  0.730772521556196  0.2790096744047129  0.046844601318238865  1.0000
  H   H129      1.0  0.7331692940531436  0.3573254914089076  0.08647692716119618  1.0000
  H   H130      1.0  0.7400626908835518  0.38037736951872114  0.03226117486485203  1.0000
  H   H131      1.0  0.7330239495866803  0.27407042238519475  0.9967011728535051  1.0000
  H   H132      1.0  0.728913147534915  0.25065073735456117  0.0509435881800564  1.0000
  C   C199      1.0  0.6486873864162507  0.12672863634753484  0.8708400510633781  1.0000
  C   C200      1.0  0.6360800329473343  0.13190142004592187  0.9010444666883861  1.0000
  C   C201      1.0  0.6547395161109393  0.14791200009011174  0.9240925397207609  1.0000
  C   C202      1.0  0.6857862722648032  0.15996747787373988  0.9168019573758243  1.0000
  C   C203      1.0  0.6987564478126268  0.15447286150678985  0.8867240613199144  1.0000
  C   C204      1.0  0.6804045582345761  0.13719940985947665  0.8638939355734534  1.0000
  H   H133      1.0  0.6118168579399346  0.123789478028691  0.9068104967275397  1.0000
  H   H134      1.0  0.6446670218457807  0.15179007766240904  0.9473502389873514  1.0000
  H   H135      1.0  0.7230580484653487  0.1630480051916161  0.8812022537611736  1.0000
  H   H136      1.0  0.6905693767254785  0.13250174138275517  0.8407964124245375  1.0000
  C   C205      1.0  0.42962327164585734  0.14879099402558738  0.18314140334604642  1.0000
  C   C206      1.0  0.3989617367665444  0.16518353605671687  0.17773385675973868  1.0000
  C   C207      1.0  0.37667550811604955  0.14899901924922831  0.1577183747659158  1.0000
  C   C208      1.0  0.3852384583701506  0.11655046251685519  0.14331020947117226  1.0000
  C   C209      1.0  0.41540890464469826  0.09986015335851972  0.14959745725116153  1.0000
  C   C210      1.0  0.43751440275183934  0.11596831778876338  0.16937088726578717  1.0000
  H   H137      1.0  0.3930813023234481  0.19106118239463488  0.1876843487560674  1.0000
  H   H138      1.0  0.3536259793936513  0.16238325255885666  0.15226485864777603  1.0000
  H   H139      1.0  0.4219815575128028  0.07457108796970591  0.13882600502592832  1.0000
  H   H140      1.0  0.4608538312014135  0.10293240717392171  0.1736632277328059  1.0000
  C   C211      1.0  0.5855717075339298  0.2576188759694053  0.13062847416204426  1.0000
  C   C212      1.0  0.6145120995740929  0.2755931805911864  0.12641632862886684  1.0000
  C   C213      1.0  0.6232082775849968  0.3016500187650298  0.1477404327988357  1.0000
  C   C214      1.0  0.6025612953327654  0.31086115083267285  0.17275749750549096  1.0000
  C   C215      1.0  0.573208167156892  0.2932385489601067  0.17678359385850345  1.0000
  C   C216      1.0  0.5648849395846784  0.2662154607824064  0.1558786089023912  1.0000
  H   H141      1.0  0.6309206718036453  0.2684708385265908  0.10740834965564931  1.0000
  H   H142      1.0  0.6462281633480134  0.3141219697453562  0.14489666799745038  1.0000
  H   H143      1.0  0.5571925464545886  0.3003030459756388  0.19610444284346132  1.0000
  H   H144      1.0  0.5423484389266081  0.25235832839899536  0.1589978584397817  1.0000
  C   C217      1.0  0.5327910619945323  0.09080582465761955  0.05449603217653576  1.0000
  C   C218      1.0  0.5258216548803315  0.07644393381303671  0.02502911278375719  1.0000
  C   C219      1.0  0.5309184027471046  0.09665654253753919  0.9975369672405919  1.0000
  C   C220      1.0  0.5427131704414302  0.13124963503591913  0.9997715392950988  1.0000
  C   C221      1.0  0.5494521118046906  0.14531417076692166  0.029157745307727856  1.0000
  C   C222      1.0  0.5447985886641603  0.12514039186648418  0.05626556690258888  1.0000
  H   H145      1.0  0.5161877567459194  0.04995942396029096  0.02355052612938424  1.0000
  H   H146      1.0  0.525358429281404  0.08574332766050907  0.9748248412355296  1.0000
  H   H147      1.0  0.557818463940523  0.1722276794143971  0.031196528662871037  1.0000
  H   H148      1.0  0.5502839060287738  0.136656828135572  0.07856541632522447  1.0000
  C   C223      1.0  0.4378711965384415  0.21421623997747474  0.6193822242995496  1.0000
  C   C224      1.0  0.40506327201247816  0.2131861321277717  0.6105736015113978  1.0000
  C   C225      1.0  0.39178145363152356  0.18078738993832277  0.6014927309422952  1.0000
  C   C226      1.0  0.4115195133464177  0.1496434535201836  0.6007269783498551  1.0000
  C   C227      1.0  0.4439421503226865  0.15055560284893543  0.6104653271618969  1.0000
  C   C228      1.0  0.45692587400199947  0.18264825615251423  0.6201977372184337  1.0000
  H   H149      1.0  0.3901509853023971  0.2375126017879574  0.6101516490487868  1.0000
  H   H150      1.0  0.36664450339807775  0.1802558454300145  0.5939539241488815  1.0000
  H   H151      1.0  0.45914859894873095  0.12653795252801747  0.6105080820768364  1.0000
  H   H152      1.0  0.48182721707957643  0.18276244285460042  0.6281309289733532  1.0000
  C   C229      1.0  0.5560257793397927  0.2525261819269682  0.7566411702413702  1.0000
  C   C230      1.0  0.5516953556945801  0.2156783032385443  0.7582701359158934  1.0000
  C   C231      1.0  0.5314787446583723  0.20141155574388803  0.7815037408877268  1.0000
  C   C232      1.0  0.5143267665156397  0.22416481899281826  0.802091271586373  1.0000
  C   C233      1.0  0.5184870961017908  0.2609948738733687  0.8002736049945522  1.0000
  C   C234      1.0  0.5398976635806773  0.2750955064040572  0.7780268510930751  1.0000
  H   H153      1.0  0.564162800779617  0.19816328278645368  0.741741471565847  1.0000
  H   H154      1.0  0.5282052044145142  0.17295047209840164  0.7826942658381077  1.0000
  H   H155      1.0  0.5051930324888025  0.27863276260868686  0.816126346077756  1.0000
  H   H156      1.0  0.5430289912453393  0.30361227797959023  0.7766780804901737  1.0000
  C   C235      1.0  0.42910995733340296  0.18860330920242863  0.3618305846621614  1.0000
  C   C236      1.0  0.4389904699997264  0.1658269632910443  0.3863252683703558  1.0000
  C   C237      1.0  0.4159968182865914  0.14728553147679535  0.4037396752425116  1.0000
  C   C238      1.0  0.3827782313910466  0.15215245840733904  0.39740387590805165  1.0000
  C   C239      1.0  0.3726515659813163  0.17435731930141674  0.3725153832712766  1.0000
  C   C240      1.0  0.39587258774466816  0.19243241081017004  0.35457187339053386  1.0000
  H   H157      1.0  0.4643725639882631  0.16251114467109584  0.39222486124357453  1.0000
  H   H158      1.0  0.42406681795101464  0.12979831727459334  0.4226153271066157  1.0000
  H   H159      1.0  0.34697842661931366  0.1781666978747729  0.3674821915476031  1.0000
  H   H160      1.0  0.388047889433553  0.2103083935226353  0.3358982865377584  1.0000
  C   C241      1.0  0.5687494963885259  0.2947483581972352  0.4796002294773396  1.0000
  C   C242      1.0  0.5626633011819729  0.2623648815902566  0.4947609437071363  1.0000
  C   C243      1.0  0.5743145942171021  0.2559397165168902  0.5252959784293331  1.0000
  C   C244      1.0  0.5925635907224128  0.28164984003241655  0.5403867486873586  1.0000
  C   C245      1.0  0.5979174375049556  0.3143105940893858  0.5255067553582154  1.0000
  C   C246      1.0  0.5855394922271927  0.3210893589190593  0.4953965575199002  1.0000
  H   H161      1.0  0.5492438200701498  0.24211205558365423  0.4828970013157696  1.0000
  H   H162      1.0  0.5702197860550959  0.23059123920511215  0.5366545717982218  1.0000
  H   H163      1.0  0.6118205063614511  0.33431879017255994  0.5372111119127286  1.0000
  H   H164      1.0  0.5899256986675416  0.34629940356070654  0.4839071351673205  1.0000
  C   C247      1.0  0.6196447423478676  0.15847254386414988  0.31492059205963313  1.0000
  C   C248      1.0  0.6471913970728472  0.14102843612294258  0.3021761092350257  1.0000
  C   C249      1.0  0.6459559005228566  0.12603816516493205  0.2723183921535681  1.0000
  C   C250      1.0  0.6173502343272509  0.12895806341113203  0.25468138880372193  1.0000
  C   C251      1.0  0.5897911651024186  0.14712984686704322  0.26699019959059955  1.0000
  C   C252      1.0  0.5908588806291555  0.161687415169262  0.2973277017967023  1.0000
  H   H165      1.0  0.6693866087040724  0.1383432603128132  0.31578879015823547  1.0000
  H   H166      1.0  0.6672102465970846  0.11181944417433165  0.2630014016062478  1.0000
  H   H167      1.0  0.5674743319344748  0.14890276912887734  0.25358606979515447  1.0000
  H   H168      1.0  0.5694319745771014  0.17480075543982454  0.30735938497586296  1.0000
  C   C253      1.0  0.8377036980337615  0.5521351165302361  0.7825342348955506  1.0000
  C   C254      1.0  0.8050154285039319  0.5615828090383838  0.7767101947225593  1.0000
  C   C255      1.0  0.7875751417354254  0.5433280711448394  0.753993768930148  1.0000
  C   C256      1.0  0.8030587871509126  0.5164931917664252  0.736231264315981  1.0000
  C   C257      1.0  0.8357402607322536  0.5069686382177188  0.7421335993430089  1.0000
  C   C258      1.0  0.8529132633671221  0.5243563057965436  0.7656541491291059  1.0000
  H   H169      1.0  0.7931234589283925  0.5829763687908743  0.7897818065284027  1.0000
  H   H170      1.0  0.7622094668289568  0.5506104882110754  0.7497211907741527  1.0000
  H   H171      1.0  0.8480335956637004  0.4866767853450331  0.7283402829910045  1.0000
  H   H172      1.0  0.8782544928651119  0.5171111670009416  0.7699774416808551  1.0000
  C   C259      1.0  0.9270973782263564  0.6952265753237367  0.726934000625693  1.0000
  C   C260      1.0  0.9604581208520463  0.7012452060549721  0.7246730002361804  1.0000
  C   C261      1.0  0.9811879821787161  0.6766261489658101  0.7093548620732049  1.0000
  C   C262      1.0  0.9686580728599942  0.6465342135843747  0.6952268968077622  1.0000
  C   C263      1.0  0.9351612724107308  0.6405145810421651  0.6972919392151871  1.0000
  C   C264      1.0  0.9144119775598968  0.6647007884254079  0.7134121487627875  1.0000
  H   H173      1.0  0.9704428752545975  0.724545523491191  0.7354946710159365  1.0000
  H   H174      1.0  0.006894080852656526  0.6808934904643072  0.7088644343019724  1.0000
  H   H175      1.0  0.9252483905538811  0.6172734125497189  0.6863436202568945  1.0000
  H   H176      1.0  0.8885576553261801  0.6602316741036307  0.7146150061979722  1.0000
  C   C265      1.0  0.8080303540169179  0.5756986543127048  0.5588886407202778  1.0000
  C   C266      1.0  0.7885070526387729  0.5936468920402375  0.5368366499371171  1.0000
  C   C267      1.0  0.769273263707919  0.5746009324786564  0.5163112495920212  1.0000
  C   C268      1.0  0.7702672071997754  0.5373768047346696  0.5171841124985678  1.0000
  C   C269      1.0  0.7901730784938047  0.5191153461199493  0.5389517335830316  1.0000
  C   C270      1.0  0.8086903630535137  0.5383960832246785  0.5602622174239689  1.0000
  H   H177      1.0  0.7881884929383874  0.6222686056121555  0.5355015108603621  1.0000
  H   H178      1.0  0.7540157467734515  0.5888062428220769  0.49948243025524497  1.0000
  H   H179      1.0  0.7904813250313419  0.49026844080152454  0.5399564903106018  1.0000
  H   H180      1.0  0.8233989908687616  0.5244860086249319  0.5777402255052579  1.0000
  C   C271      1.0  0.9344898066235431  0.6969588095167325  0.5499315880480294  1.0000
  C   C272      1.0  0.9649283068020768  0.696820706575474  0.5350128381240941  1.0000
  C   C273      1.0  0.9798356559862903  0.6644084434531325  0.5257241052547051  1.0000
  C   C274      1.0  0.963891360361986  0.6323440441492707  0.5304244154953418  1.0000
  C   C275      1.0  0.9348151710540912  0.6323203919675559  0.5476437590087024  1.0000
  C   C276      1.0  0.9203381360921362  0.6645885395493665  0.5576733150095462  1.0000
  H   H181      1.0  0.9765314067463378  0.7216911649519894  0.5297352939529321  1.0000
  H   H182      1.0  0.0035055479961751956  0.6643114737362132  0.5146634256583121  1.0000
  H   H183      1.0  0.9228123663943273  0.6076049662834383  0.5524109708298461  1.0000
  H   H184      1.0  0.8978208805689663  0.6643042218601002  0.570891865076908  1.0000
  C   C277      1.0  0.7530447058602298  0.7423582227884221  0.659171969050625  1.0000
  C   C278      1.0  0.7805780799913958  0.7300279501999092  0.6756951358623224  1.0000
  C   C279      1.0  0.7770297874135892  0.7153921456323425  0.7057843857242727  1.0000
  C   C280      1.0  0.7458787493584323  0.7118173429389384  0.7188244694712461  1.0000
  C   C281      1.0  0.7183648306368612  0.7239822587177023  0.7022002142569974  1.0000
  C   C282      1.0  0.7219891355154884  0.7397580206925236  0.6725734264165267  1.0000
  H   H185      1.0  0.8046577908020334  0.7325973098420898  0.665601566462662  1.0000
  H   H186      1.0  0.7984254856767388  0.7066178633061194  0.7186974562476118  1.0000
  H   H187      1.0  0.6942606005820311  0.7212655165307548  0.7122160804546145  1.0000
  H   H188      1.0  0.700671402512696  0.7493299737442083  0.6598107058843188  1.0000
  C   C283      1.0  0.883024067455477  0.7770491509772214  0.051682917418979235  1.0000
  C   C284      1.0  0.9129800736276693  0.7593740026632559  0.046088387956010335  1.0000
  C   C285      1.0  0.9285320333812959  0.763056480183587  0.016984839269256202  1.0000
  C   C286      1.0  0.9147076550264511  0.7850498323477086  0.9936639964920234  1.0000
  C   C287      1.0  0.8859738134130688  0.8047595393494634  0.00017301056103713464  1.0000
  C   C288      1.0  0.8702060000950226  0.8008189054009699  0.029191011062633665  1.0000
  H   H189      1.0  0.9232618986089318  0.7413295852816434  0.06359038937686612  1.0000
  H   H190      1.0  0.9507128492770623  0.7481594149506069  0.012473125053594769  1.0000
  H   H191      1.0  0.8753845510935341  0.8223636668425474  0.9824987194348128  1.0000
  H   H192      1.0  0.8480658787858025  0.816157618284342  0.034088847191252825  1.0000
  C   C289      1.0  0.7641295431967887  0.7072577882246507  0.9605911697630266  1.0000
  C   C290      1.0  0.7740637211928696  0.6819480025533871  0.9381823051805548  1.0000
  C   C291      1.0  0.7905680643302607  0.6928184542139724  0.910952014005158  1.0000
  C   C292      1.0  0.796894693339455  0.7289536291736579  0.9062908960947208  1.0000
  C   C293      1.0  0.7856815484988181  0.7541674885372165  0.9280561225464419  1.0000
  C   C294      1.0  0.7689911848924946  0.7432806942060624  0.9548711245337048  1.0000
  H   H193      1.0  0.770032203061652  0.6539323978723816  0.9423702084532006  1.0000
  H   H194      1.0  0.7992255998958971  0.6731916609404645  0.8941639243740522  1.0000
  H   H195      1.0  0.7901192052058463  0.7822071215046313  0.9243728037951457  1.0000
  H   H196      1.0  0.7598594441445374  0.7628013571063972  0.9712325861397725  1.0000
  C   C295      1.0  0.7935554003457225  0.5119264052150919  0.22096585246222405  1.0000
  C   C296      1.0  0.7926793617416852  0.47484711876220237  0.21843348259051268  1.0000
  C   C297      1.0  0.7725781520351442  0.45954302913846057  0.19610711699960306  1.0000
  C   C298      1.0  0.7539298734469434  0.48128603870785086  0.17584134113403604  1.0000
  C   C299      1.0  0.7559695867520299  0.5184080638859744  0.17743472981340275  1.0000
  C   C300      1.0  0.7753976218353189  0.5337724301652772  0.20036990670156682  1.0000
  H   H197      1.0  0.806627500990496  0.4578934565480372  0.23442123784924607  1.0000
  H   H198      1.0  0.771013367794679  0.43091699138395856  0.1951092154594062  1.0000
  H   H199      1.0  0.7417153559686737  0.53525787335903  0.16161754565135877  1.0000
  H   H200      1.0  0.7765284898980545  0.56245240806366  0.20193824230854832  1.0000
  C   C301      1.0  0.7965627634142186  0.6364960539344015  0.40987066150415646  1.0000
  C   C302      1.0  0.8009368430752073  0.630288614527107  0.4419716187221045  1.0000
  C   C303      1.0  0.7931590935678734  0.6572932911692224  0.4635307819670834  1.0000
  C   C304      1.0  0.7813164106295971  0.6906093732367278  0.4530641698737841  1.0000
  C   C305      1.0  0.7768316835792685  0.6967820266691997  0.4209903275952805  1.0000
  C   C306      1.0  0.7846081234297063  0.669770689464367  0.3993877482920971  1.0000
  H   H201      1.0  0.8099469843253042  0.6044708296082278  0.4502289305487786  1.0000
  H   H202      1.0  0.7962156366735992  0.6522870389309814  0.4882556372036395  1.0000
  H   H203      1.0  0.7679118068080119  0.7226403787760771  0.41279565498150184  1.0000
  H   H204      1.0  0.7819729889952658  0.6750359800887995  0.3746396501297542  1.0000
  C   C307      1.0  0.7698176717185725  0.7210788348577051  0.22260661066411963  1.0000
  C   C308      1.0  0.7400049774849914  0.7045624709803286  0.2187877987098166  1.0000
  C   C309      1.0  0.7196896366380343  0.7139744492694066  0.19353452264883897  1.0000
  C   C310      1.0  0.7296066323945224  0.7393961267466012  0.17168139737339172  1.0000
  C   C311      1.0  0.7593865559810978  0.7560440952665339  0.17555469643019928  1.0000
  C   C312      1.0  0.7792404633737905  0.7473011998695829  0.2012880778351862  1.0000
  H   H205      1.0  0.732581328271176  0.6845075001738378  0.2352473020515829  1.0000
  H   H206      1.0  0.6967596899457579  0.7008570124178315  0.19042738926332992  1.0000
  H   H207      1.0  0.7670211942792625  0.7759506939207611  0.1589231856523483  1.0000
  H   H208      1.0  0.8020892566265168  0.7605131731464017  0.20436747407702827  1.0000
  C   C313      1.0  0.4182879076556015  0.7648959694992629  0.20895858809349213  1.0000
  C   C314      1.0  0.4266638349787475  0.7346033172945696  0.1914246657320831  1.0000
  C   C315      1.0  0.40676177393552004  0.7244441586388303  0.16659038225263273  1.0000
  C   C316      1.0  0.37870470354444674  0.744811910860749  0.15894531615806645  1.0000
  C   C317      1.0  0.3704221629741253  0.7752761686098935  0.17637379728503297  1.0000
  C   C318      1.0  0.3902096865097723  0.7853178692807785  0.20140114326151437  1.0000
  H   H209      1.0  0.4481852852256891  0.7185555507050835  0.19736439148228727  1.0000
  H   H210      1.0  0.41319990610391605  0.700785345765451  0.15321934826801378  1.0000
  H   H211      1.0  0.3486203027306075  0.7908571957570687  0.1708400047595585  1.0000
  H   H212      1.0  0.38388114039081156  0.8089948736127947  0.2147482944945647  1.0000
  C   C319      1.0  0.6081010835267063  0.66061201689685  0.2254655246701334  1.0000
  C   C320      1.0  0.5964246930782546  0.6590189436127598  0.2562770566665591  1.0000
  C   C321      1.0  0.6157683423875495  0.6429018074000588  0.27982294106291555  1.0000
  C   C322      1.0  0.6470641477352387  0.6290455766550089  0.2727570582354995  1.0000
  C   C323      1.0  0.6587251710580019  0.6305781525358477  0.24194989563564767  1.0000
  C   C324      1.0  0.6391131142537047  0.6460036515999766  0.21828802333802164  1.0000
  H   H213      1.0  0.5723507157106987  0.6699007703800395  0.2618517683726984  1.0000
  H   H214      1.0  0.6065633159822337  0.6415173195902394  0.30359805520161065  1.0000
  H   H215      1.0  0.6827162714315945  0.6197294143216093  0.23623213551295788  1.0000
  H   H216      1.0  0.6481763822030286  0.647194776280261  0.19443578590172564  1.0000
  C   C325      1.0  0.5199932670684545  0.9616417778538842  0.9419733529664494  1.0000
  C   C326      1.0  0.5116389883406923  0.9969766088627127  0.9496945672212861  1.0000
  C   C327      1.0  0.49810174893080106  0.020112822557586618  0.9269901137193389  1.0000
  C   C328      1.0  0.4919798824686515  0.007609983648347862  0.8968170507576076  1.0000
  C   C329      1.0  0.4987540203690883  0.9718593464821931  0.8895165234257226  1.0000
  C   C330      1.0  0.5126577021958416  0.9488298245720367  0.9121416203007845  1.0000
  H   H217      1.0  0.5162667883584285  0.006670088851486122  0.9730024143306987  1.0000
  H   H218      1.0  0.49257030327520673  0.04770140845685966  0.9327659722008598  1.0000
  H   H219      1.0  0.49466792178764435  0.9623674737991965  0.8659974278938032  1.0000
  H   H220      1.0  0.5183148250892782  0.9214105470518125  0.9062023030486792  1.0000
  C   C331      1.0  0.6799945185927437  0.8399677179265038  0.9401511106902614  1.0000
  C   C332      1.0  0.7090858103890422  0.8228740020989089  0.9495852657946032  1.0000
  C   C333      1.0  0.7238152112470563  0.8326195678421213  0.9776506676999015  1.0000
  C   C334      1.0  0.7097300513613148  0.8594858082824549  0.9962254371370736  1.0000
  C   C335      1.0  0.6817124885298403  0.8781840544495476  0.9858876607949424  1.0000
  C   C336      1.0  0.6668484858394438  0.8684004182567526  0.9577615635640175  1.0000
  H   H221      1.0  0.7194701974819203  0.8010667712569579  0.93605941924937  1.0000
  H   H222      1.0  0.7460423210726849  0.8192714530611026  0.9851539114469459  1.0000
  H   H223      1.0  0.6709102139345812  0.8992802374531959  6.429562096110786e-05  1.0000
  H   H224      1.0  0.644904291547728  0.8824585654330491  0.9499531328260492  1.0000
  C   C337      1.0  0.5444494910995773  0.7818299606615016  0.03800387883602663  1.0000
  C   C338      1.0  0.5455575240386733  0.7613140554732558  0.06557509986048715  1.0000
  C   C339      1.0  0.5442080740888922  0.7780051772756814  0.0949802379193319  1.0000
  C   C340      1.0  0.5416728461854587  0.8152289959309749  0.09675817089624714  1.0000
  C   C341      1.0  0.5405888770563655  0.8356532423091173  0.06920132788207334  1.0000
  C   C342      1.0  0.5418980292649843  0.8190090408070518  0.03990135761809599  1.0000
  H   H225      1.0  0.5474743557439037  0.7325086636973175  0.06421086073630411  1.0000
  H   H226      1.0  0.5452929721917162  0.7620610421738216  0.11618840531219757  1.0000
  H   H227      1.0  0.5384238781709888  0.8644665888190082  0.070455979182386  1.0000
  H   H228      1.0  0.5403406717028822  0.8350425977008927  0.018788134957758995  1.0000
  C   C343      1.0  0.3514031227505208  0.8871179995809294  0.7532005905342474  1.0000
  C   C344      1.0  0.34166035028897124  0.8562856282273759  0.7688411064939288  1.0000
  C   C345      1.0  0.33409246317929925  0.8257442704930635  0.7517322628910573  1.0000
  C   C346      1.0  0.3349352077123173  0.82638706697095  0.7189141053630899  1.0000
  C   C347      1.0  0.34340908902504524  0.8577561027378914  0.703327211990161  1.0000
  C   C348      1.0  0.35221582142060653  0.8878326859943487  0.7203952320250697  1.0000
  H   H229      1.0  0.3407198720770312  0.8556331343834195  0.7941874718086241  1.0000
  H   H230      1.0  0.3274235412783952  0.8016538855326801  0.7639520961149127  1.0000
  H   H231      1.0  0.3441669681691552  0.8584507930287156  0.6781163470248853  1.0000
  H   H232      1.0  0.35966941485965953  0.9115622559129346  0.7081806740207819  1.0000
  C   C349      1.0  0.47078958768638207  0.0954542610601743  0.7193864093799088  1.0000
  C   C350      1.0  0.4691165827508718  0.08314877591782488  0.6886303429456713  1.0000
  C   C351      1.0  0.49371034899440663  0.09094580163696464  0.667070020008735  1.0000
  C   C352      1.0  0.5192962464762769  0.11253836447419707  0.6756578115467345  1.0000
  C   C353      1.0  0.5201022592860405  0.12656565202859493  0.7060418572637699  1.0000
  C   C354      1.0  0.4958823659371508  0.11788165216720548  0.7279916224186744  1.0000
  H   H233      1.0  0.44899291026888394  0.06709460840038828  0.6814842261060025  1.0000
  H   H234      1.0  0.4927855973696722  0.08030288627324156  0.6437072797315238  1.0000
  H   H235      1.0  0.5399921487024395  0.1431236215824696  0.7128622442535414  1.0000
  H   H236      1.0  0.4973121390300802  0.12738335333399764  0.7518165538414849  1.0000
  C   C355      1.0  0.518490102251305  0.896359272294216  0.7747885560681058  1.0000
  C   C356      1.0  0.48921639593691774  0.8784452948114407  0.7776027306040904  1.0000
  C   C357      1.0  0.48515828617164936  0.8535252198224602  0.801765550981462  1.0000
  C   C358      1.0  0.509682788156397  0.847725112306124  0.8241349859749875  1.0000
  C   C359      1.0  0.5393442952913463  0.8648481249841062  0.8207447249264624  1.0000
  C   C360      1.0  0.5438678768429289  0.8889469606999535  0.7959167140714125  1.0000
  H   H237      1.0  0.46975280369029493  0.8835378658739161  0.7610390318622463  1.0000
  H   H238      1.0  0.46270868548066235  0.839338743658244  0.8034407772800412  1.0000
  H   H239      1.0  0.5588962442802495  0.8593503953109137  0.8370363425388508  1.0000
  H   H240      1.0  0.5667249405179635  0.9023816237046763  0.7935459816722372  1.0000
  C   C361      1.0  0.39042961163107776  0.8993614049060717  0.421303500173967  1.0000
  C   C362      1.0  0.3616842599056788  0.9055462183537591  0.4043366615810671  1.0000
  C   C363      1.0  0.34840847706383127  0.8778763714694732  0.3870278610989542  1.0000
  C   C364      1.0  0.3632173968034766  0.8437535876328259  0.3875738911279773  1.0000
  C   C365      1.0  0.3923996174775377  0.8378465462893238  0.4038208283405116  1.0000
  C   C366      1.0  0.40617046349021413  0.8657408757839686  0.4203481885153949  1.0000
  H   H241      1.0  0.34982469817662604  0.9317199983581449  0.4043510737776486  1.0000
  H   H242      1.0  0.32682166226403975  0.8830780175389896  0.3731282259206303  1.0000
  H   H243      1.0  0.40396063921064707  0.8115031511261959  0.40437601100253057  1.0000
  H   H244      1.0  0.42850531528357905  0.8607913411603015  0.4330610415523014  1.0000
  C   C367      1.0  0.5435382409555505  0.027152318695985667  0.43270067565952086  1.0000
  C   C368      1.0  0.5108325697351158  0.03281381057784816  0.44133998791559786  1.0000
  C   C369      1.0  0.4999574628146373  0.06617037206605247  0.4525042190027754  1.0000
  C   C370      1.0  0.5215507514733865  0.09423560934565534  0.4538060249765007  1.0000
  C   C371      1.0  0.5540525503769337  0.08891186479962654  0.4444239210353103  1.0000
  C   C372      1.0  0.565178793748169  0.0551657856591381  0.43439306017312174  1.0000
  H   H245      1.0  0.4936335027074574  0.01189044761217728  0.4383938821827943  1.0000
  H   H246      1.0  0.4745740344058987  0.07058759075212717  0.4588115362240692  1.0000
  H   H247      1.0  0.5707167356954699  0.11071839527771954  0.4453524655982283  1.0000
  H   H248      1.0  0.5905546824589126  0.05076462880842714  0.4280653670172602  1.0000
  C   C373      1.0  0.49429258062076803  0.9202019031819906  0.5729680771509047  1.0000
  C   C374      1.0  0.4992326662719121  0.9278757713045067  0.6046271174151113  1.0000
  C   C375      1.0  0.4735799252497524  0.9424314021302489  0.622768774799326  1.0000
  C   C376      1.0  0.4430185710770846  0.9494483596306879  0.6092124975130125  1.0000
  C   C377      1.0  0.43817103749097913  0.942102172916166  0.577489946694081  1.0000
  C   C378      1.0  0.4637462410447701  0.9273382710970419  0.5594011254112852  1.0000
  H   H249      1.0  0.5228428013917092  0.9222944040556086  0.615171438124361  1.0000
  H   H250      1.0  0.4774253135009409  0.9477038202574161  0.6473106199496061  1.0000
  H   H251      1.0  0.41449636079333135  0.9473110840418476  0.5669913935628076  1.0000
  H   H252      1.0  0.45967384650412  0.9210891941397401  0.5350478349282274  1.0000
  C   C379      1.0  0.5443691706326867  0.8177633746977262  0.37737466022125293  1.0000
  C   C380      1.0  0.5542343848217633  0.8514276513912269  0.36755860359347675  1.0000
  C   C381      1.0  0.5689046016883216  0.8556472384639267  0.3380368398702734  1.0000
  C   C382      1.0  0.5733654676106004  0.8263163332748442  0.3181531500963853  1.0000
  C   C383      1.0  0.5647466055644724  0.7923874036066583  0.3284890963410932  1.0000
  C   C384      1.0  0.5504225519616636  0.7881084018803671  0.3581581239913578  1.0000
  H   H253      1.0  0.5502094073990584  0.8743196248037169  0.382534052486403  1.0000
  H   H254      1.0  0.5758923621402915  0.8818583486671911  0.33025766140729035  1.0000
  H   H255      1.0  0.568636436088379  0.7695115740655945  0.31353464935791087  1.0000
  H   H256      1.0  0.5431044407962191  0.7619798046725  0.36585647839082924  1.0000
  N   N1        1.0  0.4318077500567834  0.13166155951679848  0.05137220600211845  1.0000
  C   C385      1.0  0.4212309451042167  0.160402463615001  0.0730737047644292  1.0000
  C   C386      1.0  0.40381816855068997  0.12122975191967877  0.03204579734112767  1.0000
  C   C387      1.0  0.4440672751833546  0.10039553668008772  0.06957018536467086  1.0000
  C   C388      1.0  0.45814423013154154  0.14459600739730538  0.03088678063479544  1.0000
  H   H257      1.0  0.44139794430998686  0.16793866422796389  0.08891522348199432  1.0000
  H   H258      1.0  0.4006956060139969  0.15197682833388737  0.08819887304919205  1.0000
  H   H259      1.0  0.4127037610266103  0.18477762437129264  0.06016392895116063  1.0000
  H   H260      1.0  0.41087111731873305  0.09930546564551568  0.01564424889050553  1.0000
  H   H261      1.0  0.38346588956018396  0.11154607357480106  0.046991893329710654  1.0000
  H   H262      1.0  0.3939334530715989  0.1440491478381567  0.017829857668053117  1.0000
  H   H263      1.0  0.4545584047621807  0.07912373687146013  0.054107118171774715  1.0000
  H   H264      1.0  0.42423691458507695  0.08836430503659254  0.08355346852728096  1.0000
  H   H265      1.0  0.4635775381250683  0.10771768559083528  0.08621451720877116  1.0000
  H   H266      1.0  0.4667571939225501  0.12364270304026603  0.014171728116648685  1.0000
  H   H267      1.0  0.47961970492165357  0.15243845730385353  0.04488365557015728  1.0000
  H   H268      1.0  0.44991840879144557  0.16824819139602787  0.016811326271519267  1.0000
  N   N2        1.0  0.9930641019574806  0.739345882258058  0.6244357720846796  1.0000
  C   C389      1.0  0.9741275003063676  0.7654429438832018  0.605208995941691  1.0000
  C   C390      1.0  0.9946347092646186  0.7523891440716621  0.6570075805538697  1.0000
  C   C391      1.0  0.026376088553452304  0.7350830080536077  0.6113091914034793  1.0000
  C   C392      1.0  0.9771448730365065  0.7044954007418962  0.6241655395407436  1.0000
  H   H269      1.0  0.9482149507768853  0.7678350597533898  0.6131274238218192  1.0000
  H   H270      1.0  0.9739392513752099  0.7574386464507756  0.5801680197279739  1.0000
  H   H271      1.0  0.9846522955157408  0.7924033606286578  0.6061286061920818  1.0000
  H   H272      1.0  0.009015086095068403  0.7336001964150223  0.6721387282322302  1.0000
  H   H273      1.0  0.0064031242830919766  0.7786955115517078  0.6581769368652477  1.0000
  H   H274      1.0  0.9698031779059038  0.7553704998513182  0.6676082155107873  1.0000
  H   H275      1.0  0.041027211830218624  0.7145936077374385  0.6243771152595806  1.0000
  H   H276      1.0  0.039860167452913764  0.7603901361765192  0.6121566874632193  1.0000
  H   H277      1.0  0.026008374915650334  0.7263345332062223  0.5864012165745645  1.0000
  H   H278      1.0  0.9905282154140828  0.684501776837981  0.6390485465207522  1.0000
  H   H279      1.0  0.9764547865639321  0.6932606658729693  0.6001699406033215  1.0000
  H   H280      1.0  0.951550690809058  0.7066747211994434  0.6330009535628682  1.0000
  N   N3        1.0  0.864719684872153  0.6842971531309899  0.1750867837630985  1.0000
  C   C393      1.0  0.8936068423237589  0.6629160924066198  0.16458265872090427  1.0000
  C   C394      1.0  0.8555540670246224  0.7107533110216666  0.15057306674745854  1.0000
  C   C395      1.0  0.8726031037864945  0.7030553333557602  0.20435479484385405  1.0000
  C   C396      1.0  0.8371669161686561  0.6605403764750374  0.18086192044632024  1.0000
  H   H281      1.0  0.9014204909347391  0.6427052690822128  0.18247963665215  1.0000
  H   H282      1.0  0.9148742706154077  0.6800017480028202  0.15990743917725586  1.0000
  H   H283      1.0  0.8887455550676255  0.6483633302397042  0.14249610664542997  1.0000
  H   H284      1.0  0.8756614476762783  0.7293814778750045  0.14579382956714454  1.0000
  H   H285      1.0  0.8497997497625143  0.6977019924299177  0.12797842716322672  1.0000
  H   H286      1.0  0.8336708864297664  0.7272476690521429  0.15748334173882084  1.0000
  H   H287      1.0  0.8515706621160058  0.7200230731527755  0.21261393955303876  1.0000
  H   H288      1.0  0.8936987078344176  0.7207044059521216  0.20104377986234695  1.0000
  H   H289      1.0  0.8787934797165401  0.6839081218972961  0.223643692396183  1.0000
  H   H290      1.0  0.8149584992804585  0.6759081587949265  0.18870291668473432  1.0000
  H   H291      1.0  0.8430870924142625  0.6404835019609338  0.19951770562246438  1.0000
  H   H292      1.0  0.830631821071036  0.6458087319924907  0.1593241769319497  1.0000
  N   N4        1.0  0.16004885506141875  0.25248936145897005  0.31380554353589  1.0000
  C   C397      1.0  0.1584193438737631  0.28181976480269744  0.3368231337348678  1.0000
  C   C398      1.0  0.1851235561008191  0.2598849461022186  0.2898068943786943  1.0000
  C   C399      1.0  0.12793916475547307  0.2495543298274372  0.2985492390875029  1.0000
  C   C400      1.0  0.1686778201186836  0.21864754084199944  0.33012918299303023  1.0000
  H   H293      1.0  0.15064261898486975  0.3075836383647885  0.3255979824806811  1.0000
  H   H294      1.0  0.18249689227110943  0.285494756328339  0.3481352434047025  1.0000
  H   H295      1.0  0.14057124846350444  0.27629564329165146  0.3558727664150892  1.0000
  H   H296      1.0  0.17968648677339827  0.28558102506105154  0.2773924090474169  1.0000
  H   H297      1.0  0.20985768489492762  0.26120145303674414  0.3003492678172685  1.0000
  H   H298      1.0  0.18640384225450246  0.23863530821445078  0.2716432500933139  1.0000
  H   H299      1.0  0.12847841664726034  0.22820927699139393  0.2805033668224562  1.0000
  H   H300      1.0  0.12046941959864754  0.274876988515141  0.2863886298564068  1.0000
  H   H301      1.0  0.10855932629421838  0.24340657931315568  0.3159706832218168  1.0000
  H   H302      1.0  0.17116822793071984  0.19605000920022753  0.31336922644930704  1.0000
  H   H303      1.0  0.14990944394813832  0.21180267342584513  0.3479556816973865  1.0000
  H   H304      1.0  0.19240846884947582  0.22036739165186492  0.34255496301994526  1.0000
  N   N5        1.0  0.10225870974453666  0.29191323375836864  0.09909149297122592  1.0000
  C   C401      1.0  0.11381240601405418  0.2739473155576755  0.12811511467132072  1.0000
  C   C402      1.0  0.12504755944278512  0.3200733116993316  0.09012276438553517  1.0000
  C   C403      1.0  0.0694149195397955  0.3080981257100718  0.10455091005729673  1.0000
  C   C404      1.0  0.1007192327510178  0.2655799504714889  0.07352674711647088  1.0000
  H   H305      1.0  0.0969806830588964  0.2529061870787193  0.13591636118500033  1.0000
  H   H306      1.0  0.11566882899286068  0.29317898014989563  0.1478012259485  1.0000
  H   H307      1.0  0.1383640030588007  0.2609414919765774  0.12480536360101227  1.0000
  H   H308      1.0  0.12603910020358677  0.34105033577480803  0.10839038201367045  1.0000
  H   H309      1.0  0.1503438092359335  0.30902116110941896  0.0868088804361439  1.0000
  H   H310      1.0  0.11744847913865719  0.3336413284268594  0.06786588102145874  1.0000
  H   H311      1.0  0.059946138841432406  0.3218532101814604  0.08310542238620741  1.0000
  H   H312      1.0  0.06969380818723292  0.32816957341152597  0.12370567920967739  1.0000
  H   H313      1.0  0.05151268234708417  0.2877301160144712  0.11139733923740121  1.0000
  H   H314      1.0  0.09212162965874215  0.2783760902418119  0.05126032344044185  1.0000
  H   H315      1.0  0.08360697182042687  0.2440166884192689  0.07938302901129349  1.0000
  H   H316      1.0  0.1251267798987845  0.2528082398485152  0.0688631479123385  1.0000
  N   N6        1.0  0.32012222549099634  0.7542605390774647  0.26543774316803026  1.0000
  C   C405      1.0  0.2950589263188159  0.7401739235347123  0.2867953298516525  1.0000
  C   C406      1.0  0.34506903037568826  0.7724550845133891  0.28391769628685853  1.0000
  C   C407      1.0  0.30453746880781996  0.7799031421898165  0.24319938665736765  1.0000
  C   C408      1.0  0.33573693453157416  0.7243911107461863  0.24787789278242894  1.0000
  H   H317      1.0  0.2752136028694683  0.7273133021874972  0.2736097092380226  1.0000
  H   H318      1.0  0.2832758567680338  0.7617954541004375  0.30096712059794173  1.0000
  H   H319      1.0  0.30567642991184374  0.7201784139473122  0.30353775086937723  1.0000
  H   H320      1.0  0.36486867185871263  0.7825579737570372  0.26860252310241106  1.0000
  H   H321      1.0  0.3342206808265582  0.7955897332211216  0.2969965573170568  1.0000
  H   H322      1.0  0.35664835248763804  0.7541582997050386  0.30157640355783305  1.0000
  H   H323      1.0  0.3227890980018857  0.7922095244070008  0.22748704408597112  1.0000
  H   H324      1.0  0.29110268231898995  0.801912134823441  0.2556486015688696  1.0000
  H   H325      1.0  0.28655728348785936  0.7667295558472699  0.22799306051480137  1.0000
  H   H326      1.0  0.3548829645787215  0.7338617236106683  0.23157823714644515  1.0000
  H   H327      1.0  0.317642024570181  0.710225254175044  0.23351412844790426  1.0000
  H   H328      1.0  0.34771248022176726  0.7045267876917096  0.26393297698262447  1.0000
  N   N7        1.0  0.8532225190764513  0.4869069540808917  0.332605143605422  1.0000
  C   C409      1.0  0.874773401653092  0.5020913050765689  0.356459535260987  1.0000
  C   C410      1.0  0.8698096991054283  0.48654327533378017  0.3017641390492207  1.0000
  C   C411      1.0  0.8228558115580644  0.5090390538853704  0.33053371775254053  1.0000
  C   C412      1.0  0.8452710693823767  0.450047584950682  0.3415896178226338  1.0000
  H   H329      1.0  0.8628044001668878  0.5026405305150253  0.3799659001899913  1.0000
  H   H330      1.0  0.8808908737261226  0.5300545344534932  0.35040631244343734  1.0000
  H   H331      1.0  0.8979812124334898  0.48617971213350164  0.3587500698383229  1.0000
  H   H332      1.0  0.8541071899869486  0.47487026233618607  0.28341207519212885  1.0000
  H   H333      1.0  0.8752881238626155  0.5140464033713594  0.2936993856009524  1.0000
  H   H334      1.0  0.8930968523244329  0.4705697285592485  0.3023748528269715  1.0000
  H   H335      1.0  0.8055164460562344  0.49780818950958533  0.3134010917235797  1.0000
  H   H336      1.0  0.8278578787825605  0.5367412531495921  0.32279942133695544  1.0000
  H   H337      1.0  0.8099987360802005  0.5108213797568862  0.353528927271182  1.0000
  H   H338      1.0  0.8291939010781798  0.43783362822286004  0.3238621291478414  1.0000
  H   H339      1.0  0.8320105981566849  0.44940646508759  0.36435382856053933  1.0000
  H   H340      1.0  0.8675737393502486  0.4325998855186362  0.3438316273986016  1.0000
  N   N8        1.0  0.903534074166784  0.5114923900568322  0.527182136055371  1.0000
  C   C413      1.0  0.8888866471301986  0.5439025809446343  0.512341391641509  1.0000
  C   C414      1.0  0.9332593444237416  0.500213803737318  0.50966029455398  1.0000
  C   C415      1.0  0.8798680995795141  0.48253222772923543  0.5266739574742295  1.0000
  C   C416      1.0  0.912171073329562  0.5193392836624969  0.5599936662313371  1.0000
  H   H341      1.0  0.8669581391050405  0.5538680775053424  0.5254826835236748  1.0000
  H   H342      1.0  0.8811722422356257  0.5386418659824083  0.48784819324789136  1.0000
  H   H343      1.0  0.9065332533151936  0.5658862225462987  0.511535586794584  1.0000
  H   H344      1.0  0.951702877470572  0.5214269456196539  0.5095637583390672  1.0000
  H   H345      1.0  0.9449842808825928  0.47581126119547784  0.5201188539058893  1.0000
  H   H346      1.0  0.9275311816028823  0.49418878007061334  0.48479865434187436  1.0000
  H   H347      1.0  0.857912084092929  0.4892436547613284  0.5410545851315703  1.0000
  H   H348      1.0  0.8906723304896679  0.4571770502618975  0.5362331504729216  1.0000
  H   H349      1.0  0.8714717400951505  0.4771923566693924  0.5024483399628078  1.0000
  H   H350      1.0  0.9221596853474295  0.4950839970980178  0.5722541734141052  1.0000
  H   H351      1.0  0.8904056286180363  0.5290940749816505  0.5735805398633211  1.0000
  H   H352      1.0  0.9307836067383981  0.5403278541300354  0.5611544302249342  1.0000
  N   N9        1.0  0.2842284882734134  0.011523724785877487  0.8084333192703473  1.0000
  C   C417      1.0  0.29990472895380216  0.9760211529231468  0.8033710985933293  1.0000
  C   C418      1.0  0.30583912541246305  0.03919009141396801  0.7962079170846988  1.0000
  C   C419      1.0  0.27849850529326403  0.01697151272792463  0.8423384598414901  1.0000
  C   C420      1.0  0.2526556263498705  0.013995390210497005  0.7918087290298536  1.0000
  H   H353      1.0  0.2851227325058008  0.9545012440158762  0.8134872075094179  1.0000
  H   H354      1.0  0.3243956042958467  0.9737030229013193  0.8144359359333271  1.0000
  H   H355      1.0  0.3029427958310027  0.9700195362692312  0.7779799958271683  1.0000
  H   H356      1.0  0.294982736459672  0.06624529272046686  0.8002750388177706  1.0000
  H   H357      1.0  0.33008587290884717  0.03775078991037084  0.807810277779056  1.0000
  H   H358      1.0  0.30987350452538176  0.0363217415000292  0.7704841738768208  1.0000
  H   H359      1.0  0.3016348089423193  0.015338557623128635  0.8558514924264037  1.0000
  H   H360      1.0  0.2619388834776317  0.9966675985230647  0.8521326787587488  1.0000
  H   H361      1.0  0.26644223314014237  0.04340618191207879  0.8469174535916608  1.0000
  H   H362      1.0  0.2555965966778264  0.00860318856432607  0.7663295065492454  1.0000
  H   H363      1.0  0.24066268868513352  0.040879018268899614  0.794430443864866  1.0000
  H   H364      1.0  0.23535464731208178  0.9943037778568639  0.8012775520584072  1.0000
  N   N10       1.0  0.22911273993694148  0.9648173073565585  0.22163539549241273  1.0000
  C   C421      1.0  0.2574042230254652  0.9415407640333812  0.23046895142019952  1.0000
  C   C422      1.0  0.1995329925522129  0.9433609896367078  0.21981865883654542  1.0000
  C   C423      1.0  0.23534552935631714  0.9814790754783514  0.1907727407530926  1.0000
  C   C424      1.0  0.22418215751187498  0.9928747514152444  0.24552700848039044  1.0000
  H   H365      1.0  0.2801324293995433  0.9569009822169848  0.23188772938246704  1.0000
  H   H366      1.0  0.2616489505040056  0.9197838160489566  0.2130932196754875  1.0000
  H   H367      1.0  0.25362811735295887  0.9288491104902655  0.25384261542540454  1.0000
  H   H368      1.0  0.17779164316663687  0.9601289765783514  0.21302850475877014  1.0000
  H   H369      1.0  0.20251478090290687  0.9216628611642834  0.20216863076536437  1.0000
  H   H370      1.0  0.19402629895260315  0.9306305931493395  0.24283565067060278  1.0000
  H   H371      1.0  0.21454615174906722  0.9994368866069621  0.1834575132484149  1.0000
  H   H372      1.0  0.23923851070137458  0.9610032881436265  0.1722141325166464  1.0000
  H   H373      1.0  0.2573345130011999  0.9981949562478204  0.19136816362889295  1.0000
  H   H374      1.0  0.20339082544739862  0.011410513198961914  0.23937585970303263  1.0000
  H   H375      1.0  0.24616771637207369  0.009360621036267336  0.2476799176035626  1.0000
  H   H376      1.0  0.21904914014317023  0.9811987307452478  0.26905464395676454  1.0000
  N   N11       1.0  0.16973629329993334  0.7759442581416239  0.7556702941253908  1.0000
  C   C425      1.0  0.17670403406180693  0.7471969407483671  0.7787886455093704  1.0000
  C   C426      1.0  0.13632975102091915  0.7723832833932063  0.7433721997464288  1.0000
  C   C427      1.0  0.19343451954044721  0.7731004423647424  0.7295099304729276  1.0000
  C   C428      1.0  0.1724015423158134  0.8110248303633297  0.7709748397153887  1.0000
  H   H377      1.0  0.15838456195425765  0.747647402841928  0.7981697396334543  1.0000
  H   H378      1.0  0.20114440320929236  0.749869390650848  0.7896610289178027  1.0000
  H   H379      1.0  0.1759365803148336  0.7203449369587299  0.7678739355423989  1.0000
  H   H380      1.0  0.12999064962545437  0.793980965148875  0.7262318130505492  1.0000
  H   H381      1.0  0.13372208572282784  0.7463952794853789  0.7312632204835249  1.0000
  H   H382      1.0  0.11786891479588602  0.773420150596009  0.7626090027918935  1.0000
  H   H383      1.0  0.18798765622612568  0.7935141049465767  0.7110186791367685  1.0000
  H   H384      1.0  0.19283045472393148  0.7465009195252976  0.7181183972075913  1.0000
  H   H385      1.0  0.21884363583830257  0.776988529433827  0.7377165841856915  1.0000
  H   H386      1.0  0.1675531001535835  0.8334055890555216  0.7541797950329117  1.0000
  H   H387      1.0  0.19725798504349287  0.814463533752529  0.7807672164977663  1.0000
  H   H388      1.0  0.15485551912006779  0.8140108675099266  0.7908751180702155  1.0000
  N   N12       1.0  0.6125836171435516  0.02102127297836165  0.9686683202679207  1.0000
  C   C429      1.0  0.6454698869860704  0.00460518814068922  0.9733906739442062  1.0000
  C   C430      1.0  0.6149573808164416  0.06021784968909749  0.9660026150816607  1.0000
  C   C431      1.0  0.5914872418537769  0.01222965173089996  0.995649290730275  1.0000
  C   C432      1.0  0.5983886128133441  0.006916410483169377  0.9396191857187793  1.0000
  H   H389      1.0  0.656892198390791  0.014432688634553159  0.9952098384341995  1.0000
  H   H390      1.0  0.6620729355476617  0.010785819644339778  0.9534827735332292  1.0000
  H   H391      1.0  0.644455852696905  0.9749953441826881  0.975319389364369  1.0000
  H   H392      1.0  0.5904990038278791  0.07345540524098126  0.9626949820728817  1.0000
  H   H393      1.0  0.6256511526673354  0.07177628123827784  0.9874780908172011  1.0000
  H   H394      1.0  0.6304567357301329  0.06790671816544291  0.9456922574369749  1.0000
  H   H395      1.0  0.5665368596333399  0.024172675898041618  0.9928149962252838  1.0000
  H   H396      1.0  0.60130337405579  0.022415323844772406  0.018064871474987143  1.0000
  H   H397      1.0  0.588781942962983  0.9828679455806949  0.9981885859953454  1.0000
  H   H398      1.0  0.5958960036920302  0.9774215284891455  0.9409410918693252  1.0000
  H   H399      1.0  0.6136102523985361  0.012994369202079747  0.9187090704374542  1.0000
  H   H400      1.0  0.5735613580697386  0.018629444983364163  0.9353421655488869  1.0000
  N   N13       1.0  0.6411011792017121  0.23406137502083046  0.008125350356970262  1.0000
  C   C433      1.0  0.6418507904173401  0.24205337329193144  0.9741544706187293  1.0000
  C   C434      1.0  0.6105900490122224  0.21595415751855507  0.016041929946242428  1.0000
  C   C435      1.0  0.6425842290502892  0.2676568741541949  0.02596725286864987  1.0000
  C   C436      1.0  0.6693940319004483  0.21048038339719422  0.016326707270345464  1.0000
  H   H401      1.0  0.6648790829867882  0.25514523982080606  0.9673002493968075  1.0000
  H   H402      1.0  0.620992783129878  0.25998920142027204  0.9671118311576007  1.0000
  H   H403      1.0  0.6405609435832477  0.2172448202581485  0.9600532481121284  1.0000
  H   H404      1.0  0.5886231704853867  0.23283722731751877  0.010131215041395247  1.0000
  H   H405      1.0  0.6085929954461609  0.1905143582835931  0.002899751579495069  1.0000
  H   H406      1.0  0.6091406150579518  0.2095638322540856  0.041562860190183404  1.0000
  H   H407      1.0  0.6649402273837974  0.28245520557051296  0.02006418449898506  1.0000
  H   H408      1.0  0.6428242036138966  0.26251272421215033  0.051695753721338056  1.0000
  H   H409      1.0  0.6211592170808855  0.2857229582379588  0.020951079303009212  1.0000
  H   H410      1.0  0.67025484513822  0.20475305804530097  0.041938459045028464  1.0000
  H   H411      1.0  0.6928323476792065  0.22266472369277035  0.009479338738090481  1.0000
  H   H412      1.0  0.6685279363055441  0.18451115396685402  0.0038592675045663327  1.0000
  N   N14       1.0  0.2865960098106328  0.9640922973168673  0.6706946977951742  1.0000
  C   C437      1.0  0.30653228515349573  0.984405349587857  0.6926998535563694  1.0000
  C   C438      1.0  0.308186002141843  0.946484401961181  0.6472236046137554  1.0000
  C   C439      1.0  0.26312494613962  0.988563469804889  0.6545416366774017  1.0000
  C   C440      1.0  0.2684606536391309  0.9370221875048171  0.6883783382606413  1.0000
  H   H413      1.0  0.29096092070849805  0.9986025741661634  0.7103522911198189  1.0000
  H   H414      1.0  0.3208171527927085  0.004942627203486039  0.6801621955864495  1.0000
  H   H415      1.0  0.32399997989208007  0.966525780844268  0.7056827475380198  1.0000
  H   H416      1.0  0.3259096658899672  0.9273447862937861  0.6584019625801867  1.0000
  H   H417      1.0  0.29389260896973646  0.9314486727969155  0.6298970762172286  1.0000
  H   H418      1.0  0.3225938710538074  0.9662330203713319  0.6338105068353085  1.0000
  H   H419      1.0  0.24789832527176783  0.9740768233959385  0.6375254090937064  1.0000
  H   H420      1.0  0.27587370512732673  0.009641344682196129  0.6412893968727911  1.0000
  H   H421      1.0  0.24636619218276176  0.0022957761597197646  0.6715251270833642  1.0000
  H   H422      1.0  0.25200507622717055  0.922080487228991  0.6728467662292813  1.0000
  H   H423      1.0  0.2528698586312976  0.9495137914798639  0.7069853794629926  1.0000
  H   H424      1.0  0.2852075457726584  0.9172242858584317  0.7001595871224527  1.0000
  N   N15       1.0  0.32754440254769296  0.026265540555532096  0.4553762616282971  1.0000
  C   C441      1.0  0.3008120985553587  0.04051101776781296  0.43530997749739603  1.0000
  C   C442      1.0  0.31872674358690495  0.9910553631968023  0.46804495159739934  1.0000
  C   C443      1.0  0.3326449736975199  0.05118114549342301  0.48151703408962926  1.0000
  C   C444      1.0  0.35788032894226146  0.022436305393273237  0.4366504228347555  1.0000
  H   H425      1.0  0.3067983104534644  0.06689907679053597  0.42508123319008373  1.0000
  H   H426      1.0  0.2777033307707733  0.04420739941531249  0.4489221336298777  1.0000
  H   H427      1.0  0.29567615921354595  0.02229607259802746  0.41552726447662164  1.0000
  H   H428      1.0  0.31485582066017126  0.9716584429314981  0.44887464086257456  1.0000
  H   H429      1.0  0.33829649837370734  0.979590116725387  0.4834996468773533  1.0000
  H   H430      1.0  0.2957611848570816  0.9930795117426002  0.48209958918419615  1.0000
  H   H431      1.0  0.352568828696431  0.041316057874373424  0.4972718690657  1.0000
  H   H432      1.0  0.3101363117905746  0.05473502634670102  0.4960451929030422  1.0000
  H   H433      1.0  0.3391601950435793  0.07807545751836309  0.4726939272397677  1.0000
  H   H434      1.0  0.37850583899003404  0.011358360918323207  0.45101899806936757  1.0000
  H   H435      1.0  0.3653155838700805  0.04861796278917119  0.42687682098583163  1.0000
  H   H436      1.0  0.3548501076647215  0.003942886024002501  0.41662323381510635  1.0000
  N   N16       1.0  0.673950815367719  0.2941146208376506  0.4544431568231825  1.0000
  C   C445      1.0  0.6782164377401515  0.3214345671645762  0.4788148987713289  1.0000
  C   C446      1.0  0.7061313298793414  0.2840828546898235  0.4407895764069207  1.0000
  C   C447      1.0  0.6522670183345145  0.3087114683886447  0.42955792160169287  1.0000
  C   C448      1.0  0.6592513505467016  0.26225835484707494  0.46860380169914073  1.0000
  H   H437      1.0  0.6544182891142134  0.33047073809394245  0.4890392382148668  1.0000
  H   H438      1.0  0.690306155538422  0.3453645505306351  0.46917545638269337  1.0000
  H   H439      1.0  0.6936613784625928  0.31094289838457856  0.49839389695704084  1.0000
  H   H440      1.0  0.7179154710061136  0.3075619257128126  0.4299325539481296  1.0000
  H   H441      1.0  0.7232347357394323  0.2734216086286678  0.4590433561532026  1.0000
  H   H442      1.0  0.7039730469150232  0.26341456284971887  0.42234889695896377  1.0000
  H   H443      1.0  0.6480570532585553  0.28861831507661195  0.4109959033274601  1.0000
  H   H444      1.0  0.6626722075471102  0.3326049443761563  0.4181428324335738  1.0000
  H   H445      1.0  0.6278486177829938  0.3168484191357859  0.4391085127933522  1.0000
  H   H446      1.0  0.6553879259084232  0.24119692332128229  0.4508154804139414  1.0000
  H   H447      1.0  0.6350020117925818  0.2689022787552249  0.4792063694912958  1.0000
  H   H448      1.0  0.6748617930337624  0.25051571110273163  0.48754464516438245  1.0000
  N   N17       1.0  0.4373527685820967  0.810076257395836  0.09502957757843311  1.0000
  C   C449      1.0  0.450271290674776  0.798128798359076  0.06430089836873143  1.0000
  C   C450      1.0  0.44727751280259054  0.847003772103892  0.10091462638496006  1.0000
  C   C451      1.0  0.45058603716035606  0.7863035473053714  0.11999319747051626  1.0000
  C   C452      1.0  0.401320550227408  0.8088412263038458  0.09492915680978527  1.0000
  H   H449      1.0  0.4773900658939425  0.7986019259958721  0.0635962235748595  1.0000
  H   H450      1.0  0.44092003795875523  0.8155475070413145  0.04488845684978493  1.0000
  H   H451      1.0  0.4432896504839221  0.7703180140415123  0.05912380693274977  1.0000
  H   H452      1.0  0.4380683534232128  0.8567806049089385  0.12399685598824432  1.0000
  H   H453      1.0  0.47435910287940153  0.8488614302237246  0.10117707407229712  1.0000
  H   H454      1.0  0.43775679998808503  0.8657361918423381  0.08252545916498782  1.0000
  H   H455      1.0  0.4412563307139812  0.7944062300049729  0.14352985998834725  1.0000
  H   H456      1.0  0.4777161720429358  0.7868068488680384  0.1208773495062182  1.0000
  H   H457      1.0  0.443717145240492  0.758150366817172  0.11625741238595488  1.0000
  H   H458      1.0  0.39034647499754965  0.8269310720797556  0.07672413320419122  1.0000
  H   H459      1.0  0.39078383506778985  0.8169491039462072  0.11798817052914051  1.0000
  H   H460      1.0  0.3930059178018152  0.7814124655851991  0.09012202437266378  1.0000
  N   N18       1.0  0.17779492170005545  0.1235915276669195  0.5052717493830119  1.0000
  C   C453      1.0  0.17403623512685454  0.14992074375686193  0.4795095964942886  1.0000
  C   C454      1.0  0.14564939577233504  0.11828961515439174  0.5200974024872896  1.0000
  C   C455      1.0  0.20069811348820207  0.13694231662708378  0.5288209595862483  1.0000
  C   C456      1.0  0.1907795898939216  0.08931049723114404  0.49270001729189034  1.0000
  H   H461      1.0  0.1644737486001644  0.1762558927086193  0.48820524456188386  1.0000
  H   H462      1.0  0.1569653030534066  0.1407942645480864  0.46121651110967776  1.0000
  H   H463      1.0  0.1977437434053017  0.1546817011230932  0.46776453168833326  1.0000
  H   H464      1.0  0.14757819388633028  0.09911948379242586  0.5400636641732364  1.0000
  H   H465      1.0  0.13495910798108346  0.14393012634424718  0.5291853344222228  1.0000
  H   H466      1.0  0.1279536532292056  0.10775858624442614  0.5030020302504324  1.0000
  H   H467      1.0  0.22498110555691117  0.14200802734439422  0.5181915115731011  1.0000
  H   H468      1.0  0.2046959611808988  0.1174230562886247  0.5482847606496287  1.0000
  H   H469      1.0  0.19139713095769686  0.1624425268475984  0.5392181999202778  1.0000
  H   H470      1.0  0.17452315782698527  0.07857503700034774  0.4743911934433086  1.0000
  H   H471      1.0  0.19377203298356319  0.06868775605290156  0.511456041364649  1.0000
  H   H472      1.0  0.21520405736336645  0.0923215878129997  0.4816789936217991  1.0000
  N   N19       1.0  0.41056436782742023  0.887932154073646  0.8641836092027022  1.0000
  C   C457      1.0  0.44077389503054903  0.9059189120357318  0.85508717777546  1.0000
  C   C458      1.0  0.4146177328020335  0.8722353965217384  0.8958602709085397  1.0000
  C   C459      1.0  0.4038910384488403  0.8592551275839333  0.8416851912888088  1.0000
  C   C460      1.0  0.3830332505794201  0.9143353530397438  0.8641078685587011  1.0000
  H   H473      1.0  0.43961309925112735  0.9160022840003769  0.8304840007939301  1.0000
  H   H474      1.0  0.46246167996915843  0.8875169049955813  0.8569348599996212  1.0000
  H   H475      1.0  0.4452785089110034  0.9289316317248519  0.870619544899857  1.0000
  H   H476      1.0  0.3925599708081483  0.8576528344374187  0.903158141290212  1.0000
  H   H477      1.0  0.4356992334410984  0.8526929166629877  0.8965917581773979  1.0000
  H   H478      1.0  0.41913954249648905  0.8930400996304182  0.9136757527238941  1.0000
  H   H479      1.0  0.3804318662615809  0.8462941518664344  0.8472758049047698  1.0000
  H   H480      1.0  0.42346669491671196  0.8380073911465911  0.8422998520320161  1.0000
  H   H481      1.0  0.4020633706180569  0.8697265505923697  0.8172277069984454  1.0000
  H   H482      1.0  0.35960985727605  0.9016591207351977  0.8699322638628346  1.0000
  H   H483      1.0  0.38000385126528236  0.9269806855106734  0.8405909958115847  1.0000
  H   H484      1.0  0.38673741918020854  0.935829997072653  0.8814660060518388  1.0000
  N   N20       1.0  0.45401820677995125  0.832799064184202  0.3241152333769077  1.0000
  C   C461      1.0  0.4607891710224398  0.8521562840403653  0.3533592297623251  1.0000
  C   C462      1.0  0.452718744658  0.8582139208540531  0.29748826769900777  1.0000
  C   C463      1.0  0.42246012352447815  0.8150302220951403  0.3269776859287053  1.0000
  C   C464      1.0  0.4802991660287619  0.8057362190761347  0.318564832814266  1.0000
  H   H485      1.0  0.4846222379802452  0.8655633806355162  0.35202222927749227  1.0000
  H   H486      1.0  0.46216467066221073  0.8337264462789289  0.3739514929655729  1.0000
  H   H487      1.0  0.4414947156010921  0.8728798888898659  0.35846516924098143  1.0000
  H   H488      1.0  0.4479793213229101  0.8443172571249076  0.27501529924934326  1.0000
  H   H489      1.0  0.4330769581667892  0.8790138138801633  0.30081266343200447  1.0000
  H   H490      1.0  0.4762517313534188  0.8720054977935736  0.2946612233995934  1.0000
  H   H491      1.0  0.42248999557135924  0.7959607812362004  0.3470914684796856  1.0000
  H   H492      1.0  0.4169725664779378  0.7997666745314336  0.3054263069404583  1.0000
  H   H493      1.0  0.4019875724147409  0.8347238012287953  0.3308464773099791  1.0000
  H   H494      1.0  0.47541312564250415  0.7893266071971401  0.2975853833610977  1.0000
  H   H495      1.0  0.48328407395646183  0.7872570157912352  0.33895809599157767  1.0000
  H   H496      1.0  0.5040020416241539  0.8185794659800415  0.3144420719878262  1.0000
  N   N21       1.0  0.4186434051213359  0.17858638852858855  0.5006787983178441  1.0000
  C   C465      1.0  0.3875041732910638  0.19183480768056296  0.5145757760534578  1.0000
  C   C466      1.0  0.41666756797440585  0.1399544867454403  0.49457050104266453  1.0000
  C   C467      1.0  0.4457200987876729  0.1847893557888907  0.5226135296022163  1.0000
  C   C468      1.0  0.4246472003379154  0.19765932464281177  0.4708905634453867  1.0000
  H   H497      1.0  0.3883639140708032  0.22068291614877203  0.520422979729424  1.0000
  H   H498      1.0  0.38178819662052704  0.17710278454519116  0.5365375999021442  1.0000
  H   H499      1.0  0.3667189957021679  0.18834066487258205  0.498222607503325  1.0000
  H   H500      1.0  0.43977204146017185  0.12903060821932688  0.4840801234793368  1.0000
  H   H501      1.0  0.4119468272927065  0.12479777731722443  0.5165662254915345  1.0000
  H   H502      1.0  0.3966150002871207  0.13447500805694168  0.4779056287626032  1.0000
  H   H503      1.0  0.46967280796378735  0.1758120836700188  0.5124945685077122  1.0000
  H   H504      1.0  0.44243017735010187  0.17014149213829133  0.545051634001667  1.0000
  H   H505      1.0  0.44750010228047726  0.2135851786591534  0.5283917475933435  1.0000
  H   H506      1.0  0.4276449865527312  0.22670355401517164  0.47470311451642655  1.0000
  H   H507      1.0  0.4041433070755527  0.1946739411426448  0.45414795864295093  1.0000
  H   H508      1.0  0.4472549084021082  0.1871018021764126  0.45916362199787447  1.0000
  N   N22       1.0  0.30851514652333356  0.8510807378056664  0.48293035182445704  1.0000
  C   C469      1.0  0.29542342819000694  0.885932276390983  0.4714751283733952  1.0000
  C   C470      1.0  0.28887508645429566  0.8393878193509509  0.5099952642504283  1.0000
  C   C471      1.0  0.34288247701281044  0.8546362456279664  0.4925231796273123  1.0000
  C   C472      1.0  0.30674668661226373  0.8243696649282509  0.4577427282199466  1.0000
  H   H509      1.0  0.3094772434160424  0.895392542215069  0.4508206526234326  1.0000
  H   H510      1.0  0.2965391881950266  0.9066504686674589  0.4900307233511442  1.0000
  H   H511      1.0  0.26938923163228295  0.8842446331772936  0.46429357933558457  1.0000
  H   H512      1.0  0.2978768015424858  0.8131373484502671  0.5194287189027795  1.0000
  H   H513      1.0  0.28957639735784674  0.8589685933016454  0.529364728060524  1.0000
  H   H514      1.0  0.2627811506016463  0.8365742916710518  0.5035521736289202  1.0000
  H   H515      1.0  0.35846638262012653  0.8628140416790688  0.4724646231994236  1.0000
  H   H516      1.0  0.3533183764337762  0.8290711111743491  0.5020233227100847  1.0000
  H   H517      1.0  0.3452202197189323  0.8751943620713355  0.5110229881693896  1.0000
  H   H518      1.0  0.28128075511744144  0.8219587785629846  0.4493395838070966  1.0000
  H   H519      1.0  0.31545313695150656  0.7974871097772575  0.46590125672251187  1.0000
  H   H520      1.0  0.32190772121062505  0.8317412894726439  0.43721169229356865  1.0000
  N   N23       1.0  0.7865722820375123  0.4287472520888862  0.7991505169174529  1.0000
  C   C473      1.0  0.8120324296050753  0.41734502876721546  0.776419485181061  1.0000
  C   C474      1.0  0.7981790521016957  0.45915669072667237  0.8174864050126291  1.0000
  C   C475      1.0  0.779496190109273  0.39866251123983265  0.8204468761422983  1.0000
  C   C476      1.0  0.7565695233754635  0.43972732917780055  0.7820366923555426  1.0000
  H   H521      1.0  0.8351764631464919  0.4087504207110186  0.7881888546311082  1.0000
  H   H522      1.0  0.8176465613646419  0.4390346795180386  0.7595681198259994  1.0000
  H   H523      1.0  0.8040165357077806  0.3944344498352095  0.7623912910500676  1.0000
  H   H524      1.0  0.7796031754089616  0.4684665404553424  0.834956086856757  1.0000
  H   H525      1.0  0.8209947868061579  0.45191670135966433  0.8304220583619293  1.0000
  H   H526      1.0  0.8035536816901745  0.48231217833590656  0.8020357183869617  1.0000
  H   H527      1.0  0.7607550083590089  0.40633289068306794  0.8383362578936608  1.0000
  H   H528      1.0  0.8017758058308504  0.38889739416257535  0.8330751809445442  1.0000
  H   H529      1.0  0.7700573690924338  0.37560052883878775  0.8073036659221883  1.0000
  H   H530      1.0  0.7366467081732354  0.4482595509035161  0.7983931484256087  1.0000
  H   H531      1.0  0.7474856460973288  0.41751237163142585  0.7675543669102287  1.0000
  H   H532      1.0  0.7610002976342434  0.46246213854748563  0.765800733352586  1.0000
  N   N24       1.0  0.7186053774279322  0.7641695621396264  0.8384718206608393  1.0000
  C   C477      1.0  0.6832063049390084  0.763948586801098  0.8452606785316807  1.0000
  C   C478      1.0  0.7344041678711088  0.7889544058654362  0.860095921337293  1.0000
  C   C479      1.0  0.7238840546853398  0.7758325768196772  0.8057131071429824  1.0000
  C   C480      1.0  0.7330041396191685  0.7278746070125717  0.8428527103044892  1.0000
  H   H533      1.0  0.6783921077457806  0.7556059009525817  0.8699069918119174  1.0000
  H   H534      1.0  0.6704372034244059  0.7454623693075816  0.8294663978345999  1.0000
  H   H535      1.0  0.67159183427933  0.7910303794702899  0.8423068945854624  1.0000
  H   H536      1.0  0.7610884996541731  0.7903401051075416  0.8553557502384227  1.0000
  H   H537      1.0  0.7234777096074319  0.8164510897775494  0.8582239749218117  1.0000
  H   H538      1.0  0.7315511460875598  0.7802586276400315  0.884896125329003  1.0000
  H   H539      1.0  0.7503728666094522  0.7761764239114006  0.7998133498356299  1.0000
  H   H540      1.0  0.7133104190396365  0.803114960168281  0.8014596701474173  1.0000
  H   H541      1.0  0.7124870322685541  0.7574589016479075  0.7887696344075885  1.0000
  H   H542      1.0  0.7597448784610394  0.7274583741458064  0.8383203345727607  1.0000
  H   H543      1.0  0.7221635019307787  0.7084981794212031  0.8264630907377734  1.0000
  H   H544      1.0  0.72941515877398  0.7179887326218446  0.8672455438030401  1.0000
  N   N25       1.0  0.6460660446433474  0.839159197784577  0.09895566803679445  1.0000
  C   C481      1.0  0.6794469144850783  0.84354636534945  0.11105543373584381  1.0000
  C   C482      1.0  0.6233419664851236  0.8647294427111961  0.11469804397447358  1.0000
  C   C483      1.0  0.6358252303319101  0.8023393535817627  0.10533339113176554  1.0000
  C   C484      1.0  0.64562461312865  0.8460879872539465  0.06478156295207738  1.0000
  H   H545      1.0  0.6806513339473336  0.8386744011519497  0.13680715149376166  1.0000
  H   H546      1.0  0.6883754720548452  0.8707677633660482  0.10610076997816775  1.0000
  H   H547      1.0  0.6970897353910113  0.824351912984622  0.09996287558090966  1.0000
  H   H548      1.0  0.5982298353935797  0.8632857180991973  0.10507281105567134  1.0000
  H   H549      1.0  0.6215977017464164  0.8591751453759343  0.1403208688654083  1.0000
  H   H550      1.0  0.6311184311848985  0.8926992939542923  0.11159377465363618  1.0000
  H   H551      1.0  0.6356608936079947  0.7963182024821319  0.1309520187061739  1.0000
  H   H552      1.0  0.6527489215007796  0.7822633972172984  0.09431531946894367  1.0000
  H   H553      1.0  0.6108334001390252  0.7979569104306151  0.09639917502460937  1.0000
  H   H554      1.0  0.6208388567510884  0.8427411208482444  0.054777797813353235  1.0000
  H   H555      1.0  0.6629455279486356  0.8278206015706046  0.05213106163566206  1.0000
  H   H556      1.0  0.6531711658743354  0.8737080427145554  0.059220673436177096  1.0000
  N   N26       1.0  0.22278514933873436  0.19457913793819137  0.693318654584759  1.0000
  C   C485      1.0  0.23109208683878144  0.1612062620250978  0.6764197679907931  1.0000
  C   C486      1.0  0.18899766131000506  0.1932310164161353  0.7054393116421144  1.0000
  C   C487      1.0  0.22554695674946945  0.22524764836840916  0.6716199802705348  1.0000
  C   C488      1.0  0.2455046368201288  0.1985816397670517  0.719806750365559  1.0000
  H   H557      1.0  0.22899086159188003  0.13736772676481568  0.6919117174353918  1.0000
  H   H558      1.0  0.2565448055398111  0.1611665418647128  0.6672817629213839  1.0000
  H   H559      1.0  0.21478062544206833  0.1577128214649015  0.655920401795687  1.0000
  H   H560      1.0  0.18162402553423865  0.21834732652120148  0.7177386402063023  1.0000
  H   H561      1.0  0.17120961160787362  0.18984366103846662  0.6861295108815236  1.0000
  H   H562      1.0  0.18611028615503028  0.17067030423791651  0.7222028927379858  1.0000
  H   H563      1.0  0.2186071133020872  0.2508833309923287  0.6832501451872984  1.0000
  H   H564      1.0  0.20916182561785115  0.2227871812688511  0.6510418994436928  1.0000
  H   H565      1.0  0.25081529941698316  0.2272588588538913  0.6622194660370113  1.0000
  H   H566      1.0  0.2713956016684228  0.19810687042360042  0.7117389057164001  1.0000
  H   H567      1.0  0.2430656881656401  0.17660840712865977  0.7371998112376036  1.0000
  H   H568      1.0  0.24067239963861783  0.224114611546292  0.7324154290548982  1.0000
  N   N27       1.0  0.22628720532224686  0.19716810394013895  0.00020127537303005205  1.0000
  C   C489      1.0  0.19340167748123954  0.19537732554527065  0.9862602948047461  1.0000
  C   C490      1.0  0.24126136403029672  0.1608919136581979  0.002024900259614437  1.0000
  C   C491      1.0  0.22371861112244426  0.2123082193041748  0.03205388313745705  1.0000
  C   C492      1.0  0.24687466048633153  0.21993230999435598  0.9803948378944238  1.0000
  H   H569      1.0  0.19460322554328519  0.18414409406846532  0.9621480536172464  1.0000
  H   H570      1.0  0.18129631186152903  0.22229654564244286  0.9843942648111087  1.0000
  H   H571      1.0  0.1772694025667958  0.17814834963116266  0.00044334207881435717  1.0000
  H   H572      1.0  0.2663703865958908  0.16109004257410775  0.011855653482480522  1.0000
  H   H573      1.0  0.226654283831863  0.14295225026610536  0.017117582636464013  1.0000
  H   H574      1.0  0.24317452876037804  0.14857141275433228  0.9784375787531597  1.0000
  H   H575      1.0  0.248139172261938  0.21388789223577787  0.04326926961498767  1.0000
  H   H576      1.0  0.2085974294085654  0.1956377155414799  0.04779080120177093  1.0000
  H   H577      1.0  0.2126015959367403  0.2397474829630728  0.03171516603601754  1.0000
  H   H578      1.0  0.2716082392112738  0.22267769933506745  0.9905923473080532  1.0000
  H   H579      1.0  0.2357324522453138  0.24720719283168127  0.9773864600510604  1.0000
  H   H580      1.0  0.2502071219767149  0.20856874693880514  0.9565075507050433  1.0000
  N   N28       1.0  0.1381259739552032  0.7479334492938151  0.3912660824439029  1.0000
  C   C493      1.0  0.15567508821475706  0.7398406277946561  0.3616677559923594  1.0000
  C   C494      1.0  0.1590306974480622  0.737419890026867  0.4181591226439044  1.0000
  C   C495      1.0  0.10759535031023604  0.727953329019723  0.392518755812413  1.0000
  C   C496      1.0  0.13019774676435114  0.7866024035635969  0.39280668804905156  1.0000
  H   H581      1.0  0.14074802649283136  0.7475640913397694  0.3408029907253289  1.0000
  H   H582      1.0  0.16206640608400225  0.7108766832668992  0.3597572375186191  1.0000
  H   H583      1.0  0.17880156428481464  0.7545655251226864  0.3599132326203325  1.0000
  H   H584      1.0  0.14717290701147734  0.7447734245755044  0.44085561371629434  1.0000
  H   H585      1.0  0.16406374127774992  0.7080885864572138  0.41887002305453874  1.0000
  H   H586      1.0  0.1828504981328818  0.750828800338175  0.4172909013321492  1.0000
  H   H587      1.0  0.09356871847607473  0.7339228776919859  0.41439191781413914  1.0000
  H   H588      1.0  0.11264959290732146  0.6985915114756412  0.3923473136972677  1.0000
  H   H589      1.0  0.09143026390451214  0.7346226162107008  0.37228120302658385  1.0000
  H   H590      1.0  0.11735534723094188  0.7936955772608453  0.41508191411486417  1.0000
  H   H591      1.0  0.11439703625596609  0.7955922950655168  0.37295148002300166  1.0000
  H   H592      1.0  0.15266801115601503  0.8024426383366005  0.39199325605854146  1.0000
  N   N29       1.0  0.16212883938714362  0.35179978075800955  0.5599215785848645  1.0000
  C   C497      1.0  0.1686070093747258  0.36462555869301017  0.5277157741379839  1.0000
  C   C498      1.0  0.12697647808439738  0.3567185916120646  0.5671541600187383  1.0000
  C   C499      1.0  0.18124818281176516  0.3722852103810203  0.582509014272551  1.0000
  C   C500      1.0  0.17167780413095146  0.3135499427424315  0.5622667515580045  1.0000
  H   H593      1.0  0.16141289969905603  0.39335791717446816  0.524891590392579  1.0000
  H   H594      1.0  0.15441220732532246  0.3497004571227593  0.5101366771936378  1.0000
  H   H595      1.0  0.1948753730576184  0.3613285403974672  0.5213510306555348  1.0000
  H   H596      1.0  0.11882227474599438  0.3852713700274775  0.5653434755882942  1.0000
  H   H597      1.0  0.1117950862048742  0.3417821925449401  0.5504991630835193  1.0000
  H   H598      1.0  0.12107358299675686  0.3474310442497603  0.5912285602409314  1.0000
  H   H599      1.0  0.17672999038291337  0.3632862933571226  0.6070524669420282  1.0000
  H   H600      1.0  0.1746535554943993  0.4012969647220155  0.5812284321709855  1.0000
  H   H601      1.0  0.20792409923689373  0.3690849813917047  0.5778633525823077  1.0000
  H   H602      1.0  0.19787444942824475  0.30876539738673514  0.55612390202034  1.0000
  H   H603      1.0  0.15711360666609275  0.2971789462667697  0.5460501774300203  1.0000
  H   H604      1.0  0.1680029389473212  0.30300599087163443  0.5864258475936848  1.0000
  N   N30       1.0  0.4292238005288192  0.2092995881095121  0.7246588769391912  1.0000
  C   C501      1.0  0.39833519438610476  0.2126073847757901  0.7425564411360104  1.0000
  C   C502      1.0  0.4565832946651066  0.20310577914269956  0.7466510153538731  1.0000
  C   C503      1.0  0.4343081951163876  0.24261822471473926  0.7068841149898993  1.0000
  C   C504      1.0  0.4278150252076168  0.1790249192221014  0.7026705795592613  1.0000
  H   H605      1.0  0.37698089320138295  0.2164716811053493  0.7267130293678548  1.0000
  H   H606      1.0  0.398369703978027  0.23568552628271844  0.7588628097485989  1.0000
  H   H607      1.0  0.39428241100783645  0.18841107296719484  0.7571092437149084  1.0000
  H   H608      1.0  0.48035599248335525  0.20060619413473857  0.7340450228036768  1.0000
  H   H609      1.0  0.45836053596165666  0.2254738109539498  0.76354792030063  1.0000
  H   H610      1.0  0.4537348472299705  0.17819035182995635  0.7605071970622449  1.0000
  H   H611      1.0  0.4579159050145448  0.241448110129161  0.6939593505164497  1.0000
  H   H612      1.0  0.43482285503703555  0.2661869474908911  0.7225727762100245  1.0000
  H   H613      1.0  0.4148051462655818  0.24764872130654703  0.68914085165957  1.0000
  H   H614      1.0  0.45121025843980933  0.1751924591059797  0.689515972634373  1.0000
  H   H615      1.0  0.40818884592457433  0.18332945202677897  0.6849371743962755  1.0000
  H   H616      1.0  0.4230754869950067  0.15355769356047877  0.7151960559965027  1.0000
  N   N31       1.0  0.047948197539995574  0.7698265456716323  0.05486990261024727  1.0000
  C   C505      1.0  0.047840620492627384  0.7924684077591833  0.026372429103347583  1.0000
  C   C506      1.0  0.0650029703641073  0.788092532611411  0.08036763609866382  1.0000
  C   C507      1.0  0.06505876559992574  0.7354143670415549  0.04818655719108711  1.0000
  C   C508      1.0  0.01398074164115859  0.7632695554270867  0.06464940591521695  1.0000
  H   H617      1.0  0.03530677201119792  0.8187691686603558  0.030499210455433357  1.0000
  H   H618      1.0  0.03513092497311021  0.7795443170889375  0.006629871141510479  1.0000
  H   H619      1.0  0.07314423664646497  0.7974224832132212  0.018128460321881867  1.0000
  H   H620      1.0  0.06445238677501153  0.7723133669024671  0.10252078544777166  1.0000
  H   H621      1.0  0.09115345622954552  0.7920394422058161  0.07444093589965473  1.0000
  H   H622      1.0  0.053489923457588295  0.814700667613515  0.08543046850542702  1.0000
  H   H623      1.0  0.05339263473276756  0.7211644460052945  0.028602018258431672  1.0000
  H   H624      1.0  0.06505778578927979  0.717471451021417  0.06901490109887631  1.0000
  H   H625      1.0  0.09091553797025709  0.7392973170842639  0.04110150336046403  1.0000
  H   H626      1.0  0.013249824102087082  0.7465536437916159  0.08631705948481883  1.0000
  H   H627      1.0  0.0005477054789999602  0.749036693588141  0.046169596994808826  1.0000
  H   H628      1.0  0.0001648672765983683  0.7886837965752543  0.06950627597139492  1.0000
  N   N32       1.0  0.040003619158666126  0.4979549717769605  0.6422831119702263  1.0000
  C   C509      1.0  0.013255336674462104  0.4729849410913485  0.64737973118941  1.0000
  C   C510      1.0  0.06586478631004744  0.4803736007692224  0.623062085612667  1.0000
  C   C511      1.0  0.053671497041761995  0.5081751095369842  0.6728439572909831  1.0000
  C   C512      1.0  0.027323397617484924  0.5303181910934497  0.6258524208268731  1.0000
  H   H629      1.0  0.9934223450502065  0.48508938678208524  0.6621095652467316  1.0000
  H   H630      1.0  0.022228800178712982  0.44803681598507983  0.6592753946404334  1.0000
  H   H631      1.0  0.002238734637672879  0.4649821414398092  0.6247731396106426  1.0000
  H   H632      1.0  0.05629292503716732  0.4716502407811009  0.6000358465391977  1.0000
  H   H633      1.0  0.0862968887328408  0.49864303523020514  0.6184031975323071  1.0000
  H   H634      1.0  0.07631935222196584  0.4561361126441507  0.6350292268311964  1.0000
  H   H635      1.0  0.07333264489336755  0.5277076095573229  0.6697587441892044  1.0000
  H   H636      1.0  0.06443382339099868  0.4846356750690693  0.6856249245750606  1.0000
  H   H637      1.0  0.03474534402363871  0.5209661547743701  0.6882131764530041  1.0000
  H   H638      1.0  0.04707463535152567  0.5495204091263505  0.6214802588224785  1.0000
  H   H639      1.0  0.008083995760386653  0.544624373891342  0.6399085617839121  1.0000
  H   H640      1.0  0.016649356949111738  0.5237426584987349  0.6027247788023035  1.0000
  N   N33       1.0  0.2256837915027069  0.7525986733228781  0.962408714500894  1.0000
  C   C513      1.0  0.23270052511572673  0.7560620931627536  0.9285063500436022  1.0000
  C   C514      1.0  0.2142251369149086  0.787462647891305  0.97499698763405  1.0000
  C   C515      1.0  0.2557569230273837  0.7405966235820245  0.9789203356755879  1.0000
  C   C516      1.0  0.20001321051589724  0.7262270900131964  0.9672656494664793  1.0000
  H   H641      1.0  0.210749876487347  0.7655644850051118  0.9153179128629328  1.0000
  H   H642      1.0  0.2407312208489933  0.7300739562012647  0.9181272262412775  1.0000
  H   H643      1.0  0.2522201586500355  0.7753841321690608  0.9238386445530808  1.0000
  H   H644      1.0  0.1916749043500349  0.7973825789278856  0.962993600716936  1.0000
  H   H645      1.0  0.2085014296672996  0.7855917676975134  0.0004916915902164476  1.0000
  H   H646      1.0  0.23286215040653574  0.8080897233845828  0.971975800584729  1.0000
  H   H647      1.0  0.2513618015209334  0.7375035835292992  0.004540043959626372  1.0000
  H   H648      1.0  0.27552765398534235  0.7600661749496499  0.9759638239424355  1.0000
  H   H649      1.0  0.26512261274769855  0.7143859792048555  0.9700048915880821  1.0000
  H   H650      1.0  0.19372915614363884  0.7233501791575635  0.9925829984836864  1.0000
  H   H651      1.0  0.20780698763869862  0.6994343251732773  0.9584329465433472  1.0000
  H   H652      1.0  0.1771132196475329  0.734297285245029  0.9547713663416051  1.0000
  N   N34       1.0  0.8663340059975648  0.6758817650711932  0.9964282043814854  1.0000
  C   C517      1.0  0.8809010262467332  0.6498871727052963  0.9740800372883388  1.0000
  C   C518      1.0  0.8339161280925402  0.6639777057265475  0.006660825058787845  1.0000
  C   C519      1.0  0.8627220628833622  0.7112134871191194  0.9810150912870572  1.0000
  C   C520      1.0  0.8878106242283504  0.6784302836947775  0.024018410097510934  1.0000
  H   H653      1.0  0.8654883576030818  0.6473583407325209  0.9528284721659878  1.0000
  H   H654      1.0  0.8841626695565257  0.6229296093718568  0.9849203646982911  1.0000
  H   H655      1.0  0.9055382281343252  0.6579971703298135  0.9661845667169501  1.0000
  H   H656      1.0  0.8217561905108681  0.6836988424071674  0.022674385116685958  1.0000
  H   H657      1.0  0.817342710095567  0.6606984751990281  0.9863890332381857  1.0000
  H   H658      1.0  0.8357079583443213  0.637913283546778  0.0192224568072763  1.0000
  H   H659      1.0  0.8866064882531588  0.7206977930739461  0.9723056426880715  1.0000
  H   H660      1.0  0.8526223296326743  0.7317628398366498  0.9974565050042292  1.0000
  H   H661      1.0  0.8459376612749425  0.7104912058579532  0.9605760564821662  1.0000
  H   H662      1.0  0.9125357583905642  0.6873414637283558  0.017188878271409358  1.0000
  H   H663      1.0  0.891202119675564  0.6522075227666624  0.036082454658990626  1.0000
  H   H664      1.0  0.8774482417059961  0.6976398120730604  0.04149812074640202  1.0000
  N   N35       1.0  0.8394247003234656  0.3122555823205922  0.0601408673781092  1.0000
  C   C521      1.0  0.8240257782909612  0.30647435044917093  0.029383992753565513  1.0000
  C   C522      1.0  0.8750083803103915  0.3158279271238371  0.055864295071775594  1.0000
  C   C523      1.0  0.8331532084769089  0.2815133874952647  0.08094100807030258  1.0000
  C   C524      1.0  0.825358317939203  0.3451535663964246  0.074402142691675  1.0000
  H   H665      1.0  0.7975676995963029  0.3018601344972516  0.032034823265806756  1.0000
  H   H666      1.0  0.8350387515303991  0.2827839532654071  0.01722955476450938  1.0000
  H   H667      1.0  0.8263892668119635  0.3299586070986159  0.01354434521497816  1.0000
  H   H668      1.0  0.8876046391435737  0.31967186818324317  0.07859490189378127  1.0000
  H   H669      1.0  0.8864469006046509  0.29178330722036583  0.044564134186997784  1.0000
  H   H670      1.0  0.8806238559682278  0.33908302661429246  0.040620834992112  1.0000
  H   H671      1.0  0.8444491079153079  0.2848535981761772  0.10438794049006472  1.0000
  H   H672      1.0  0.8431721504945814  0.2561697674319371  0.07075960277251925  1.0000
  H   H673      1.0  0.8064357902077103  0.2783177281959363  0.08479622413485077  1.0000
  H   H674      1.0  0.7986650866204204  0.3430481568466648  0.07851648731719818  1.0000
  H   H675      1.0  0.8288691089594256  0.36882765439751575  0.05901483164524235  1.0000
  H   H676      1.0  0.8367281087562107  0.35063226770866135  0.09746720642526485  1.0000
  N   N36       1.0  0.6448921136751348  0.7277036058966787  0.9926897677162477  1.0000
  C   C525      1.0  0.6303843641661113  0.753617286225147  0.01512461907140561  1.0000
  C   C526      1.0  0.6693309217896056  0.7455035639320392  0.9729397042828846  1.0000
  C   C527      1.0  0.6188526077029902  0.7139701587428238  0.9725971566635109  1.0000
  C   C528      1.0  0.6608516020661024  0.6977656713958771  0.010065551054059263  1.0000
  H   H677      1.0  0.6116189535329959  0.741097141715169  0.03021776567289658  1.0000
  H   H678      1.0  0.6180775491983233  0.7764720343289119  0.002706332298783032  1.0000
  H   H679      1.0  0.6491405890903745  0.7645820450444734  0.030706963324588887  1.0000
  H   H680      1.0  0.6811445396088553  0.726629145878631  0.9560141044856073  1.0000
  H   H681      1.0  0.6579999228763201  0.7680031679835689  0.9592624895416413  1.0000
  H   H682      1.0  0.6892211408246309  0.7565291142528248  0.9872991289269745  1.0000
  H   H683      1.0  0.6287215396606135  0.6942052050143057  0.9553935021331812  1.0000
  H   H684      1.0  0.6062906161279433  0.7359413783100911  0.9592298988523305  1.0000
  H   H685      1.0  0.5996681371940776  0.7008845450181391  0.9867994720580863  1.0000
  H   H686      1.0  0.6430885799227473  0.6835265327720965  0.025035359678656777  1.0000
  H   H687      1.0  0.6805360122690602  0.7071784526075515  0.02559843853234689  1.0000
  H   H688      1.0  0.672520494260877  0.6779610482591263  0.9938394814792546  1.0000
  N   N37       1.0  0.4173187406461237  0.8421047994334996  0.632988756726225  1.0000
  C   C529      1.0  0.40987857646993736  0.8219097209299652  0.6618936218037198  1.0000
  C   C530      1.0  0.39368049354224577  0.8724285226204861  0.6295526397432528  1.0000
  C   C531      1.0  0.41499953413668594  0.8184951602880801  0.6055179499568312  1.0000
  C   C532      1.0  0.4507176404829479  0.8556533503824129  0.6348487967860557  1.0000
  H   H689      1.0  0.4108733046791356  0.8391439242418964  0.683041370286336  1.0000
  H   H690      1.0  0.4274502238388821  0.7990672252555738  0.6655216618883341  1.0000
  H   H691      1.0  0.38499922982334334  0.810776200411169  0.6610717899718475  1.0000
  H   H692      1.0  0.3984595344421576  0.8883126024771951  0.607964280211272  1.0000
  H   H693      1.0  0.3682561554379837  0.8631534290264138  0.6278022316950224  1.0000
  H   H694      1.0  0.39471847860499076  0.8910103333494156  0.6497529554846535  1.0000
  H   H695      1.0  0.39014736514750264  0.8076513375927088  0.6034877168164773  1.0000
  H   H696      1.0  0.43272189715824927  0.7954727130585103  0.6071202073085616  1.0000
  H   H697      1.0  0.420084237364961  0.8331741290239839  0.5833171602609429  1.0000
  H   H698      1.0  0.4574818126555949  0.8696309647092982  0.6127954341707085  1.0000
  H   H699      1.0  0.46917772240219213  0.8336880476288059  0.638630671881906  1.0000
  H   H700      1.0  0.4530176482922073  0.8749480216436558  0.6544013283666767  1.0000
  N   N38       1.0  0.649778427670572  0.3318902618401538  0.6503151526847868  1.0000
  C   C533      1.0  0.6377158431697563  0.31201963445349845  0.6778294105491587  1.0000
  C   C534      1.0  0.6217552995277833  0.3454227168721198  0.6315332116032069  1.0000
  C   C535      1.0  0.670702782664756  0.3078325493581979  0.6309493791199496  1.0000
  C   C536      1.0  0.6689300856337277  0.3622854813687171  0.6609148567443777  1.0000
  H   H701      1.0  0.6214640866869268  0.3290604541417863  0.6928881938991049  1.0000
  H   H702      1.0  0.6581732202091135  0.30145996699577937  0.6926022137320093  1.0000
  H   H703      1.0  0.6232519007556437  0.28882945131573035  0.6705660696774992  1.0000
  H   H704      1.0  0.6057065137601373  0.36411561446602403  0.6452023893643603  1.0000
  H   H705      1.0  0.6299592375829036  0.3595547902410854  0.6100092634336125  1.0000
  H   H706      1.0  0.6064116207667202  0.3232888442317212  0.6237061323141851  1.0000
  H   H707      1.0  0.6930175112726301  0.2986218848765403  0.6438116365050853  1.0000
  H   H708      1.0  0.6789429627738106  0.3213640042316048  0.6091282264962843  1.0000
  H   H709      1.0  0.6575457494413606  0.28371014228588987  0.6237834134083897  1.0000
  H   H710      1.0  0.6781481328113493  0.37791802962389776  0.6406060839191501  1.0000
  H   H711      1.0  0.690722107149176  0.35304710783503523  0.6746056699860433  1.0000
  H   H712      1.0  0.6540871377726092  0.38077208374972815  0.6759240691119959  1.0000
  N   N39       1.0  0.9643284874733276  0.5939700649742894  0.7942242476199333  1.0000
  C   C537      1.0  0.9414875451435308  0.6252118809544891  0.7955266993919318  1.0000
  C   C538      1.0  0.9816716263378283  0.593584309175714  0.7637620195597271  1.0000
  C   C539      1.0  0.9457328581962916  0.5610219686404996  0.7977371884546696  1.0000
  C   C540      1.0  0.9882614449540092  0.5960059052072513  0.8199553593625072  1.0000
  H   H713      1.0  0.9279797517868481  0.6260307363509456  0.8182012271093454  1.0000
  H   H714      1.0  0.9230748637470603  0.6246369890122816  0.7764212083975013  1.0000
  H   H715      1.0  0.9544699082565475  0.6507242381551395  0.7933101227157254  1.0000
  H   H716      1.0  0.9996228371509196  0.5707950052295618  0.7622065327501983  1.0000
  H   H717      1.0  0.9643824789838132  0.5914431213937357  0.7438591135606429  1.0000
  H   H718      1.0  0.9953821823860636  0.6184294503886936  0.7600225727990314  1.0000
  H   H719      1.0  0.9620218669029466  0.5367618412492643  0.7967302568305189  1.0000
  H   H720      1.0  0.9270701338814624  0.558966108123224  0.778977767723496  1.0000
  H   H721      1.0  0.9323607911124664  0.5605151858619344  0.8205361669485798  1.0000
  H   H722      1.0  0.0033550730627531777  0.6199996740555531  0.8175395849427762  1.0000
  H   H723      1.0  0.005311266439774753  0.5723342427631914  0.820348967909314  1.0000
  H   H724      1.0  0.9759646455748325  0.5977858076868454  0.8432506519614293  1.0000
  N   N40       1.0  0.8580343767724359  0.3337266109930457  0.5497905157928707  1.0000
  C   C541      1.0  0.8465702788784438  0.32146827938033407  0.5189864718326835  1.0000
  C   C542      1.0  0.8567960704383597  0.3040535586259019  0.5726902875029701  1.0000
  C   C543      1.0  0.8366782256102574  0.3635999333557536  0.560592730577533  1.0000
  C   C544      1.0  0.8918935058053266  0.34583486007521036  0.5470256566738998  1.0000
  H   H725      1.0  0.8460725895005842  0.3434963676815257  0.5013645637050798  1.0000
  H   H726      1.0  0.8213249549623571  0.3114878747846772  0.5204907299962878  1.0000
  H   H727      1.0  0.8624983244210989  0.299400404449794  0.5096834277293714  1.0000
  H   H728      1.0  0.8656171417917853  0.31233964766525757  0.5961236011087995  1.0000
  H   H729      1.0  0.8313616596915794  0.29488499198192564  0.575854434541213  1.0000
  H   H730      1.0  0.8722057659756146  0.2807719103687696  0.564949696733493  1.0000
  H   H731      1.0  0.8447650686320524  0.3739672556551563  0.5834519491243455  1.0000
  H   H732      1.0  0.8113142443703278  0.35500330699816884  0.5638407111771624  1.0000
  H   H733      1.0  0.8363281192518942  0.38629715090607664  0.5436840619352095  1.0000
  H   H734      1.0  0.9013466822199142  0.35464067413254274  0.5700304629908665  1.0000
  H   H735      1.0  0.8935535900218673  0.3688889768918986  0.5305873666519796  1.0000
  H   H736      1.0  0.9086840507862691  0.3242073454529033  0.5383089020150046  1.0000
  N   N41       1.0  0.3445409526789464  0.15655476070891172  0.2653097200365726  1.0000
  C   C545      1.0  0.38064341472795626  0.15558118975222213  0.26409840790220157  1.0000
  C   C546      1.0  0.3334925651134353  0.13415587732582912  0.29170292533908954  1.0000
  C   C547      1.0  0.3314759102647666  0.14283324792537755  0.23558896866371845  1.0000
  C   C548      1.0  0.3324456865126611  0.1937155607063641  0.2699099287429388  1.0000
  H   H737      1.0  0.389918401718327  0.1726598937239736  0.24480022047524372  1.0000
  H   H738      1.0  0.39064635170384276  0.12805635824744854  0.25999801656397836  1.0000
  H   H739      1.0  0.39129667103979626  0.16525755107418028  0.28636594717100794  1.0000
  H   H740      1.0  0.3063952342991675  0.13495446698050184  0.29371289860162925  1.0000
  H   H741      1.0  0.34156000058741093  0.10577530820764891  0.28872329611609904  1.0000
  H   H742      1.0  0.34317670837436953  0.1434674652485286  0.3144854200993476  1.0000
  H   H743      1.0  0.33821483565322596  0.15990515926574678  0.2153017800840286  1.0000
  H   H744      1.0  0.3043225287889178  0.14206098118899546  0.23617424254084646  1.0000
  H   H745      1.0  0.34090779560373446  0.11527228184055294  0.23065035303288117  1.0000
  H   H746      1.0  0.3052774537224395  0.1955599866275537  0.2698146736906191  1.0000
  H   H747      1.0  0.34109629813495906  0.21164235079514504  0.25093916691764734  1.0000
  H   H748      1.0  0.34063078067142083  0.2045083986181797  0.2927338507598976  1.0000
  N   N42       1.0  0.11676821072336696  0.5094258481489429  0.28959353089776196  1.0000
  C   C549      1.0  0.0864045355667824  0.505173870007084  0.2715704192917654  1.0000
  C   C550      1.0  0.11001158003617406  0.5043966612211268  0.32340453028041605  1.0000
  C   C551      1.0  0.12903973461330254  0.545603586932238  0.28415573634612934  1.0000
  C   C552      1.0  0.14162480748582396  0.48255329677735725  0.2791897445098351  1.0000
  H   H749      1.0  0.09025855420044682  0.5101508358410052  0.24610701026982607  1.0000
  H   H750      1.0  0.06678464210780799  0.5242342381025138  0.2792500452617362  1.0000
  H   H751      1.0  0.07682899523431752  0.47795688155046806  0.27438551272214035  1.0000
  H   H752      1.0  0.13228962515214704  0.5075084128475693  0.3378217025602448  1.0000
  H   H753      1.0  0.09132366930077396  0.5241362137054015  0.33212447530492817  1.0000
  H   H754      1.0  0.10069623905197522  0.47740143064721424  0.3284176713462148  1.0000
  H   H755      1.0  0.13320047325744855  0.550770888082485  0.2587261006040348  1.0000
  H   H756      1.0  0.15236611157308388  0.5495263455930315  0.2967055360386649  1.0000
  H   H757      1.0  0.11119401361858516  0.5665034799053941  0.2924420597135288  1.0000
  H   H758      1.0  0.14742403521483238  0.4855029007331546  0.253799066465859  1.0000
  H   H759      1.0  0.13307833212187492  0.4549425295963286  0.28281718218206897  1.0000
  H   H760      1.0  0.16482429511564511  0.48478472347661866  0.2923590990490472  1.0000
  N   N43       1.0  0.11775423723391287  0.31713202698128784  0.843935032360987  1.0000
  C   C553      1.0  0.14428694994488933  0.32552493153155826  0.865798850549297  1.0000
  C   C554      1.0  0.09732304554289128  0.2893574706657287  0.8579765497831826  1.0000
  C   C555      1.0  0.1319381977217824  0.3038246539285123  0.8141527296565211  1.0000
  C   C556      1.0  0.09752568076964097  0.34972187952266354  0.8377109076329304  1.0000
  H   H761      1.0  0.15982111354617246  0.34691066445943575  0.8562925856633238  1.0000
  H   H762      1.0  0.16052729943508792  0.3017106980321502  0.8703138418232158  1.0000
  H   H763      1.0  0.1344127398022592  0.3347045858654847  0.8888462903976363  1.0000
  H   H764      1.0  0.11189988245427895  0.26448511722468826  0.8631342548809086  1.0000
  H   H765      1.0  0.08603067015510102  0.2983378186922021  0.8804723086555302  1.0000
  H   H766      1.0  0.07717066046600407  0.28215315738879143  0.8420602987356033  1.0000
  H   H767      1.0  0.11246782744915151  0.29639404595150576  0.7974738350628381  1.0000
  H   H768      1.0  0.14795849271215755  0.2796865215334925  0.8180589134524965  1.0000
  H   H769      1.0  0.1468043631202709  0.3244359433637416  0.8024233022362511  1.0000
  H   H770      1.0  0.11235457291510853  0.3716730918695299  0.8280937531934056  1.0000
  H   H771      1.0  0.08522710359957353  0.35977580677868204  0.8594284152181881  1.0000
  H   H772      1.0  0.07821094530312411  0.34469579565708863  0.8201720925343552  1.0000
  N   N44       1.0  0.5554004526971367  0.030434601266029704  0.7652920936277655  1.0000
  C   C557      1.0  0.5692918014807888  0.06576087767217564  0.7707976197148803  1.0000
  C   C558      1.0  0.5792204410901588  0.002171856463188293  0.7751230098398291  1.0000
  C   C559      1.0  0.5481993519463678  0.026621186806030428  0.7315571263312677  1.0000
  C   C560      1.0  0.524937040699655  0.0270997761401659  0.7836541929258694  1.0000
  H   H773      1.0  0.5761615356382711  0.06911184780184398  0.7958253043210373  1.0000
  H   H774      1.0  0.551611541627057  0.08773114855416497  0.7644869385887295  1.0000
  H   H775      1.0  0.5917638160302598  0.06950617426322503  0.7565663886771086  1.0000
  H   H776      1.0  0.5695175924289543  0.9751175326667745  0.7713459054542194  1.0000
  H   H777      1.0  0.6024384444842712  0.0036923826425960815  0.7616478260778456  1.0000
  H   H778      1.0  0.5851160688928404  0.00424892076979444  0.8004914729086264  1.0000
  H   H779      1.0  0.5384384058842498  0.9999233566587183  0.7264346756077636  1.0000
  H   H780      1.0  0.5704191570765474  0.029705955043625387  0.716841303906119  1.0000
  H   H781      1.0  0.5296785624806126  0.04695704568703429  0.7235218079600994  1.0000
  H   H782      1.0  0.5142213258456124  0.0004581280750215466  0.7802671863167825  1.0000
  H   H783      1.0  0.5061097939209452  0.04761758123676452  0.7765780853812041  1.0000
  H   H784      1.0  0.5292426710012236  0.030154067185800937  0.8092514820139387  1.0000
  N   N45       1.0  0.6455146783019394  0.23302769648062235  0.8173235911848641  1.0000
  C   C561      1.0  0.6164738047460743  0.21074515734350777  0.8152565882352963  1.0000
  C   C562      1.0  0.638953552750888  0.26738556633942456  0.8010197846430973  1.0000
  C   C563      1.0  0.6737024753474694  0.21430840157959552  0.80233380408566  1.0000
  C   C564      1.0  0.6530298893143843  0.23965631932101616  0.850617829117953  1.0000
  H   H785      1.0  0.6202407744380926  0.1850497798020605  0.8281076212464274  1.0000
  H   H786      1.0  0.6108604133514642  0.2041940922556578  0.7904970430452846  1.0000
  H   H787      1.0  0.5943971947868302  0.22447488259465165  0.8253801843903802  1.0000
  H   H788      1.0  0.6604532804760975  0.28483282244675795  0.8021937515451154  1.0000
  H   H789      1.0  0.6332253135611609  0.2632785058507906  0.7758116099526603  1.0000
  H   H790      1.0  0.6176702026418767  0.28218313831596864  0.8115178396920701  1.0000
  H   H791      1.0  0.6961867918577065  0.2301736884034216  0.8038781933371992  1.0000
  H   H792      1.0  0.6690724751112991  0.20922154925932812  0.7770883773590499  1.0000
  H   H793      1.0  0.6791093744850218  0.188116658210993  0.8138013319092542  1.0000
  H   H794      1.0  0.6580694690040723  0.2142373473180419  0.8636033289265665  1.0000
  H   H795      1.0  0.6323534698360157  0.25385406312634967  0.8626625512012562  1.0000
  H   H796      1.0  0.6750168857789683  0.25619015275601414  0.8529604481765968  1.0000
  N   N46       1.0  0.5820699934799332  0.052417143978765735  0.3373068656255398  1.0000
  C   C565      1.0  0.5874896939660981  0.05569832867115476  0.30312726868785006  1.0000
  C   C566      1.0  0.5909695065512167  0.08588519936007377  0.3527400320692181  1.0000
  C   C567      1.0  0.6025587038874373  0.022546356439796522  0.3498684559574562  1.0000
  C   C568      1.0  0.5472828904464209  0.04566273858853798  0.3435378679558649  1.0000
  H   H797      1.0  0.5721933776854511  0.07781516003318223  0.29282858669950157  1.0000
  H   H798      1.0  0.5814444339348389  0.030762604828205475  0.2906874745867588  1.0000
  H   H799      1.0  0.6133885308490742  0.06148880328631101  0.297602004749764  1.0000
  H   H800      1.0  0.5866685737028475  0.08484453770331157  0.3784472419673078  1.0000
  H   H801      1.0  0.6171939604760811  0.09165695134257068  0.3490660475911862  1.0000
  H   H802      1.0  0.576301939799026  0.10904802986196027  0.3435775784378632  1.0000
  H   H803      1.0  0.5998043604515778  0.020087589582086895  0.3757526323632559  1.0000
  H   H804      1.0  0.6288960035315349  0.026337577932370237  0.3448673380589273  1.0000
  H   H805      1.0  0.5956968103907981  0.9965646998945519  0.33970219349761854  1.0000
  H   H806      1.0  0.5423852176530193  0.0431964225173036  0.3691203444793814  1.0000
  H   H807      1.0  0.5397257021307565  0.020382805940827975  0.3325648601256296  1.0000
  H   H808      1.0  0.5311295956980633  0.06776400317073694  0.33447087275361764  1.0000
  N   N47       1.0  0.9076941124350225  0.6828418824739204  0.4454095851348612  1.0000
  C   C569      1.0  0.9172681157504144  0.6487995961897579  0.46097543853991735  1.0000
  C   C570      1.0  0.9146020129292075  0.7128326786589733  0.4664758827908023  1.0000
  C   C571      1.0  0.8724435609492905  0.6831210740626152  0.438169509026185  1.0000
  C   C572      1.0  0.9265473317588525  0.6865848418736715  0.416030903538257  1.0000
  H   H809      1.0  0.9120276606756532  0.6255212293594533  0.4459510825913049  1.0000
  H   H810      1.0  0.9040684115404531  0.6454445998277001  0.48362599109316895  1.0000
  H   H811      1.0  0.9438728647229976  0.6474640776203365  0.46620611941538537  1.0000
  H   H812      1.0  0.9410245699298321  0.7133564684996523  0.4723940377652852  1.0000
  H   H813      1.0  0.9076301917977111  0.7389896175458294  0.45558788603416384  1.0000
  H   H814      1.0  0.9009228562567171  0.7108161375640245  0.48900083720763676  1.0000
  H   H815      1.0  0.8642678634299946  0.7083920935596639  0.42638199840231633  1.0000
  H   H816      1.0  0.8575314401840582  0.6804874363118584  0.4598392974940665  1.0000
  H   H817      1.0  0.866308953664346  0.6607623075344048  0.42236208445525236  1.0000
  H   H818      1.0  0.9197205079802656  0.7116690694641901  0.4032800581850657  1.0000
  H   H819      1.0  0.9225782667383455  0.6640200087408508  0.3997392347823597  1.0000
  H   H820      1.0  0.9532546803212579  0.6870456795973767  0.4206367396823285  1.0000
  N   N48       1.0  0.0014540347018414668  0.25824368865107383  0.5905675297382318  1.0000
  C   C573      1.0  0.01669112477608148  0.23910786758420643  0.6174390497429791  1.0000
  C   C574      1.0  0.013718891765772012  0.24233738739274924  0.5609771093122453  1.0000
  C   C575      1.0  0.00966653372127535  0.2963192429304507  0.5917507076170142  1.0000
  C   C576      1.0  0.9656105791070272  0.2552859927110292  0.5921005084404858  1.0000
  H   H821      1.0  0.007791684092204765  0.25018386107571144  0.6402013881587009  1.0000
  H   H822      1.0  0.04377125719497221  0.24124503751299287  0.6170559694576037  1.0000
  H   H823      1.0  0.01131609623542773  0.2102066470612274  0.6172105636768742  1.0000
  H   H824      1.0  0.0028795872924327615  0.25621673305599807  0.540139722827249  1.0000
  H   H825      1.0  0.04071173011504614  0.24380935231441825  0.5590076015150321  1.0000
  H   H826      1.0  0.007792106023393641  0.21366725209977333  0.5592594950539019  1.0000
  H   H827      1.0  0.036511515069441725  0.2998536457202377  0.5910910479475239  1.0000
  H   H828      1.0  0.0005160171017606352  0.3091813117650282  0.6136831813572309  1.0000
  H   H829      1.0  0.9989006578484536  0.3117257188262528  0.571684275510852  1.0000
  H   H830      1.0  0.9536511323527258  0.2693427122588741  0.571880608852126  1.0000
  H   H831      1.0  0.9554765814715607  0.2672934577238813  0.6140370319318359  1.0000
  H   H832      1.0  0.958438287227572  0.22691208474416258  0.591479045603934  1.0000
  N   N49       1.0  0.4884036635248285  0.047923343185274137  0.5652771216115234  1.0000
  C   C577      1.0  0.46490161744666036  0.03871900602264766  0.5902549205328252  1.0000
  C   C578      1.0  0.5162187251529156  0.06649988834950715  0.5790407000259395  1.0000
  C   C579      1.0  0.47200181035092986  0.07157448166213332  0.5419563629004176  1.0000
  C   C580      1.0  0.5004853011986276  0.014892159663565163  0.5497510082460612  1.0000
  H   H833      1.0  0.44372366094622423  0.024394481798036827  0.580735805777353  1.0000
  H   H834      1.0  0.4547200498056567  0.0629133337295329  0.602192901517981  1.0000
  H   H835      1.0  0.4764516889411211  0.02118573977301308  0.6084943376205257  1.0000
  H   H836      1.0  0.5348075090667587  0.07293863672832024  0.5609279506139836  1.0000
  H   H837      1.0  0.5082535889013133  0.09217012233237076  0.5901004120066263  1.0000
  H   H838      1.0  0.5286658242903436  0.04999377466893695  0.5974874537181069  1.0000
  H   H839      1.0  0.4891026089075023  0.07930437868933637  0.5228637088581939  1.0000
  H   H840      1.0  0.4623597868079828  0.09657988984638077  0.5530528383666768  1.0000
  H   H841      1.0  0.45098548532964355  0.058349826796247894  0.5310094062171002  1.0000
  H   H842      1.0  0.5178632179497132  0.02069887108340618  0.5303611989998516  1.0000
  H   H843      1.0  0.48008989686043785  0.999929322109387  0.5395177334513226  1.0000
  H   H844      1.0  0.5133587634319476  0.9965524702888192  0.5665814682009344  1.0000
  N   N50       1.0  0.2012660266760811  0.6389689979206319  0.13402009296362882  1.0000
  C   C581      1.0  0.19190310561096066  0.6082678811331108  0.15364295180281906  1.0000
  C   C582      1.0  0.23718109923871378  0.6390027731806287  0.13065086516294522  1.0000
  C   C583      1.0  0.1897271456792423  0.6725765117016873  0.14896227861405387  1.0000
  C   C584      1.0  0.18627341278382248  0.6360371985704009  0.10271466684893071  1.0000
  H   H845      1.0  0.1649162615247175  0.6068634069355985  0.15575147668154155  1.0000
  H   H846      1.0  0.20196423682177214  0.6099072380612023  0.17774717857307154  1.0000
  H   H847      1.0  0.20070790010822379  0.5824737851374782  0.14334390238130523  1.0000
  H   H848      1.0  0.24503068858716232  0.6621035384094492  0.11617940111619873  1.0000
  H   H849      1.0  0.24933798813381813  0.6408535958732355  0.153841894064787  1.0000
  H   H850      1.0  0.24667348728412883  0.614225880753317  0.11906730892438122  1.0000
  H   H851      1.0  0.19658970663501854  0.6962788125766766  0.1348379188319193  1.0000
  H   H852      1.0  0.20022776940442097  0.6756218617281513  0.17276647062329809  1.0000
  H   H853      1.0  0.1626630950839103  0.673763627112988  0.15154266213117107  1.0000
  H   H854      1.0  0.15913650557216497  0.6383416895997824  0.10414690176391894  1.0000
  H   H855      1.0  0.192429991292038  0.6098228299198047  0.09169199270282191  1.0000
  H   H856      1.0  0.19460771816218195  0.6573472534733203  0.08655929884361946  1.0000
  N   N51       1.0  0.9183000221091777  0.7771956474598852  0.8518726917504733  1.0000
  C   C585      1.0  0.9116603874164355  0.7449757472918532  0.8705644339956856  1.0000
  C   C586      1.0  0.951332791191264  0.7893823318420903  0.8592387303017899  1.0000
  C   C587      1.0  0.8938353820126649  0.8055548108746715  0.8597523018772947  1.0000
  C   C588      1.0  0.9163868433705405  0.7686346039928739  0.8181554199609377  1.0000
  H   H857      1.0  0.9293795746384409  0.7228520667592464  0.8649209627206212  1.0000
  H   H858      1.0  0.8868975622977124  0.7352082034918097  0.8658825790329868  1.0000
  H   H859      1.0  0.9129624870795283  0.75046133191429  0.8961388689222687  1.0000
  H   H860      1.0  0.9535981701218582  0.7958044317802249  0.8846127742961043  1.0000
  H   H861      1.0  0.9703357339298612  0.7684605060040332  0.853610910861182  1.0000
  H   H862      1.0  0.9572757321070582  0.813718150377494  0.8456104204553656  1.0000
  H   H863      1.0  0.8946322773503936  0.8122305868161522  0.8851894734052757  1.0000
  H   H864      1.0  0.8686093293218252  0.7970289310439952  0.854645668453635  1.0000
  H   H865      1.0  0.8980544418785339  0.8304115861494412  0.8461824913481798  1.0000
  H   H866      1.0  0.9342509986413863  0.7468366269943241  0.8116290882693403  1.0000
  H   H867      1.0  0.9216453100770825  0.792119057849634  0.8031387352519777  1.0000
  H   H868      1.0  0.8917010112611798  0.7595464515548302  0.8117365298005063  1.0000
  N   N52       1.0  0.2473493368999371  0.9554609716886073  0.006218483585179957  1.0000
  C   C589      1.0  0.25643106973177554  0.9382098938917712  0.9762166596234735  1.0000
  C   C590      1.0  0.2397823335503062  0.9278675449490372  0.02979887320637276  1.0000
  C   C591      1.0  0.21829975937549162  0.9791826512309414  0.001491843707556839  1.0000
  C   C592      1.0  0.2748322577390405  0.9766008732368413  0.01735380206786874  1.0000
  H   H869      1.0  0.26039422305119064  0.9583298090186324  0.957374585701165  1.0000
  H   H870      1.0  0.23691860481867755  0.9206045101176905  0.9679098836038772  1.0000
  H   H871      1.0  0.27919258315354556  0.9215584112996213  0.978446746976982  1.0000
  H   H872      1.0  0.2335475986480373  0.9400085115582079  0.052896836228964135  1.0000
  H   H873      1.0  0.21877477452395855  0.9118609391312237  0.022379902505576643  1.0000
  H   H874      1.0  0.2609529155805874  0.9090757111061453  0.03350420940814547  1.0000
  H   H875      1.0  0.21031918072937805  0.992260229581278  0.023725701503335195  1.0000
  H   H876      1.0  0.19736874910115398  0.9643861305621416  0.9920513411406462  1.0000
  H   H877      1.0  0.22344234236557114  0.0007821499766793583  0.984454107737367  1.0000
  H   H878      1.0  0.296856675462573  0.9592728379633221  0.022185026596873048  1.0000
  H   H879      1.0  0.26836990698265795  0.9911044471562672  0.03936092598562513  1.0000
  H   H880      1.0  0.2817506317828986  0.9970364092783169  0.9996913664946705  1.0000
  N   N53       1.0  0.6733485842218085  0.5073965907651962  0.23587731322645816  1.0000
  C   C593      1.0  0.7026092999441443  0.48452652345005054  0.24219008361298813  1.0000
  C   C594      1.0  0.6804474095774445  0.5328594238122836  0.2103357806878472  1.0000
  C   C595      1.0  0.6643088835740416  0.527310593823159  0.2645520474494518  1.0000
  C   C596      1.0  0.6461702440707255  0.4848267935882148  0.22640343553627384  1.0000
  H   H881      1.0  0.70950473758081  0.46844325462155195  0.22131456557932194  1.0000
  H   H882      1.0  0.6983931407122903  0.4654180370796161  0.2617569557275114  1.0000
  H   H883      1.0  0.7240805737418673  0.500564157460612  0.24831746884801006  1.0000
  H   H884      1.0  0.6591095726976994  0.5511237522288468  0.2054427968095532  1.0000
  H   H885      1.0  0.701448899472961  0.5496721716177887  0.2162869487336784  1.0000
  H   H886      1.0  0.6866886546009543  0.5186275489379715  0.1881338117749286  1.0000
  H   H887      1.0  0.6429475684797845  0.5458598937205765  0.2605602019617262  1.0000
  H   H888      1.0  0.6848371609437844  0.5436784798546104  0.27259342373480755  1.0000
  H   H889      1.0  0.6580393976855219  0.5090173707288238  0.28414836353812767  1.0000
  H   H890      1.0  0.623561498806782  0.5011452500315506  0.2216603523691549  1.0000
  H   H891      1.0  0.6404577901822108  0.4648464394724462  0.24488306493313036  1.0000
  H   H892      1.0  0.652377743660273  0.4696729085072898  0.20462626225569794  1.0000
  N   N54       1.0  0.19864431151470563  0.6566843472138922  0.5816881410289946  1.0000
  C   C597      1.0  0.19580219803291188  0.6936288666014784  0.5935740961646159  1.0000
  C   C598      1.0  0.21026429524369505  0.6325120849851649  0.6070629569427591  1.0000
  C   C599      1.0  0.22212323723902383  0.6552342509407616  0.5552974475989843  1.0000
  C   C600      1.0  0.16641610196360634  0.6453705591671625  0.5707481120196246  1.0000
  H   H893      1.0  0.2197089573120543  0.7030897108166484  0.6019580019294314  1.0000
  H   H894      1.0  0.17809566786929087  0.6959720692721584  0.6133648640712586  1.0000
  H   H895      1.0  0.18727722252440926  0.7126122958409687  0.574951367868705  1.0000
  H   H896      1.0  0.21295978884756428  0.6044456979549723  0.5988429829181164  1.0000
  H   H897      1.0  0.23432314824529765  0.6405854370437954  0.6162232944437386  1.0000
  H   H898      1.0  0.19281945778115306  0.6325140480617645  0.627100262617169  1.0000
  H   H899      1.0  0.24695918044879694  0.6626005002754332  0.5629646717237855  1.0000
  H   H900      1.0  0.214749897427003  0.6743621869112807  0.5363064019919193  1.0000
  H   H901      1.0  0.224067104865181  0.6281095228184905  0.544928946024785  1.0000
  H   H902      1.0  0.1476261753823256  0.6480271292085101  0.5896028960228986  1.0000
  H   H903      1.0  0.16720692091210432  0.6170338317071941  0.5631149315995279  1.0000
  H   H904      1.0  0.15778863982801794  0.6618357609858204  0.5504607904837036  1.0000
  N   N55       1.0  0.5096570655471294  0.24364119832218378  0.26165119981201423  1.0000
  C   C601      1.0  0.5023367909489838  0.20642699473973036  0.2700957279718059  1.0000
  C   C602      1.0  0.5454227449829567  0.24784277232388963  0.26106241656464124  1.0000
  C   C603      1.0  0.4947966183278695  0.2680895128603984  0.2851257365988677  1.0000
  C   C604      1.0  0.4959536178930219  0.2522164891879235  0.23038947721652828  1.0000
  H   H905      1.0  0.5128931959952209  0.18718008114485207  0.2527864691493744  1.0000
  H   H906      1.0  0.47551902083569025  0.2023706890736543  0.2708186610681868  1.0000
  H   H907      1.0  0.512025075624474  0.19907986976291348  0.2936815780858876  1.0000
  H   H908      1.0  0.5564593922081359  0.24168758876288732  0.2843812588608295  1.0000
  H   H909      1.0  0.5574603609938144  0.22968369778711928  0.24370674428157776  1.0000
  H   H910      1.0  0.5518547995784158  0.2756112277324001  0.25465098051538076  1.0000
  H   H911      1.0  0.49963002154886915  0.2964578581025241  0.27950773080011465  1.0000
  H   H912      1.0  0.5044984510482248  0.2623540731066316  0.3090314970717841  1.0000
  H   H913      1.0  0.467850219615209  0.2652183209362653  0.28654119189863286  1.0000
  H   H914      1.0  0.5009263661459229  0.28010267563976043  0.22317562533726334  1.0000
  H   H915      1.0  0.4690335358557914  0.24892378643386803  0.23002052909438434  1.0000
  H   H916      1.0  0.5064209739836083  0.23419165611947657  0.2120798358093435  1.0000
  N   N56       1.0  0.7090841830298037  0.5664135519148008  0.4078964402223966  1.0000
  C   C605      1.0  0.7082777812611591  0.5905604459039608  0.38039974098723134  1.0000
  C   C606      1.0  0.677293975671691  0.5492010748497311  0.4112443406382819  1.0000
  C   C607      1.0  0.7157139906477237  0.5871826173740984  0.4363789701275616  1.0000
  C   C608      1.0  0.735082974767736  0.5386449259891032  0.40357182588956925  1.0000
  H   H917      1.0  0.7320804112410992  0.6036746118043895  0.3771367395200537  1.0000
  H   H918      1.0  0.6890763539165066  0.6120132180591566  0.38279877988924266  1.0000
  H   H919      1.0  0.7029484566704559  0.5758422094370006  0.35853209502021116  1.0000
  H   H920      1.0  0.6772427330778065  0.5308128393679814  0.4318861608791142  1.0000
  H   H921      1.0  0.6570446368574433  0.569318604493698  0.41447297847705383  1.0000
  H   H922      1.0  0.6716949109186613  0.5331596323203115  0.39015325552171504  1.0000
  H   H923      1.0  0.7402133932742788  0.5990812671137107  0.43522236012635585  1.0000
  H   H924      1.0  0.7152245070558738  0.5700803390091539  0.4577386496705879  1.0000
  H   H925      1.0  0.697368594994756  0.6093147626390133  0.4397222696559218  1.0000
  H   H926      1.0  0.7359035513100438  0.5195107919472631  0.42361046934464414  1.0000
  H   H927      1.0  0.7595891227821516  0.5504539955611562  0.4017927506932905  1.0000
  H   H928      1.0  0.7313408308457273  0.5229893709683237  0.38185479355488694  1.0000
  N   N57       1.0  0.789700551380375  0.6112091488537367  0.6695968418228557  1.0000
  C   C609      1.0  0.8209233871027555  0.6299496251504486  0.6696628398655349  1.0000
  C   C610      1.0  0.7742998116063433  0.6139904403120797  0.7008771988100551  1.0000
  C   C611      1.0  0.7959503419769125  0.5731617178025982  0.6621050610713141  1.0000
  C   C612      1.0  0.7675967502211913  0.6276685847677436  0.645932002180887  1.0000
  H   H929      1.0  0.8171295628930311  0.6587323049062125  0.6752209578683552  1.0000
  H   H930      1.0  0.8332745577563996  0.6282291747015983  0.6464248632222211  1.0000
  H   H931      1.0  0.8381574571990601  0.6182317901976584  0.6872956160499026  1.0000
  H   H932      1.0  0.7515621943989761  0.5985733606065738  0.702280089597593  1.0000
  H   H933      1.0  0.7910562214585615  0.6037510324007153  0.7194561646694834  1.0000
  H   H934      1.0  0.7676936536417684  0.6420623038132937  0.7067702129109569  1.0000
  H   H935      1.0  0.7730102445350188  0.5580129510319829  0.6622571822168023  1.0000
  H   H936      1.0  0.8127985555484548  0.5600884370275847  0.6793683413541247  1.0000
  H   H937      1.0  0.8072218542065794  0.5697341551617132  0.6385546296160975  1.0000
  H   H938      1.0  0.7437507610469378  0.614290647358257  0.6454570697782337  1.0000
  H   H939      1.0  0.7783095924898064  0.6257315050108222  0.6219759960110006  1.0000
  H   H940      1.0  0.7626022937094662  0.6564935738773493  0.6508239808921071  1.0000
  N   N58       1.0  0.6708212390808901  0.20231565173065502  0.1831489860327615  1.0000
  C   C613      1.0  0.6557219055388926  0.22715751985315724  0.2061909425832895  1.0000
  C   C614      1.0  0.6903941925317756  0.17448289143897155  0.19985515754527117  1.0000
  C   C615      1.0  0.6920953994348075  0.22214264902278646  0.16155659508551684  1.0000
  C   C616      1.0  0.6449505214478864  0.18534519521787263  0.1650243929614825  1.0000
  H   H941      1.0  0.639580545900207  0.21297221246826625  0.22287352989454892  1.0000
  H   H942      1.0  0.6406210305896604  0.24844903415654038  0.19441967857665335  1.0000
  H   H943      1.0  0.6745395302235627  0.24065650387807147  0.22021494392962046  1.0000
  H   H944      1.0  0.7023419295517734  0.15540924277127477  0.18318732981268587  1.0000
  H   H945      1.0  0.7098579957880711  0.18635734504498472  0.21423653328487804  1.0000
  H   H946      1.0  0.6748519415684472  0.15866152456571458  0.2158964916765919  1.0000
  H   H947      1.0  0.7029120209815035  0.204587243224557  0.14306964160685834  1.0000
  H   H948      1.0  0.7126863469744459  0.23424299883926425  0.1741869836377879  1.0000
  H   H949      1.0  0.6783654831140794  0.24428159224467108  0.14942475336026378  1.0000
  H   H950      1.0  0.6552763216404709  0.16587256672591288  0.14779019204081106  1.0000
  H   H951      1.0  0.6299920239522163  0.2054400348922929  0.15176742347761218  1.0000
  H   H952      1.0  0.628145470209335  0.17069733057706293  0.1806386040663907  1.0000
  N   N59       1.0  0.9167381963844123  0.31289957247211997  0.8581348077698214  1.0000
  C   C617      1.0  0.9341882182072765  0.2780239712102996  0.8616986549421599  1.0000
  C   C618      1.0  0.9223474481037626  0.32702017408539774  0.826177886611395  1.0000
  C   C619      1.0  0.929002738761901  0.3380448930821758  0.881607112121515  1.0000
  C   C620      1.0  0.88138369544045  0.308372741378623  0.8631413458929053  1.0000
  H   H953      1.0  0.9298509019049661  0.26622325776586997  0.8852435052007439  1.0000
  H   H954      1.0  0.9610085656509539  0.28051526013371586  0.8588140587526949  1.0000
  H   H955      1.0  0.9259291116607372  0.2584284614431277  0.8441409811192853  1.0000
  H   H956      1.0  0.948741128288965  0.330825684233616  0.8216031811718592  1.0000
  H   H957      1.0  0.9134963673310642  0.3085584400836606  0.80791615006827  1.0000
  H   H958      1.0  0.9096449801535105  0.3533414297346376  0.8225372528727498  1.0000
  H   H959      1.0  0.9161904702911703  0.36455445289722943  0.8799673668373531  1.0000
  H   H960      1.0  0.9555076735158203  0.34248946828881655  0.8783942313483608  1.0000
  H   H961      1.0  0.9257157374987528  0.3277479855555461  0.9059720531456992  1.0000
  H   H962      1.0  0.8720063264260725  0.28632638886814354  0.8486605867527489  1.0000
  H   H963      1.0  0.866971079086644  0.33316342612230415  0.8575295187094433  1.0000
  H   H964      1.0  0.8759784228630257  0.3014837248361559  0.8879160486092402  1.0000
  N   N60       1.0  0.7156615189457479  0.7996122645363354  0.5366465311177262  1.0000
  C   C621      1.0  0.7292261265109311  0.820700074996005  0.5624395586491704  1.0000
  C   C622      1.0  0.6809909223256241  0.8102181496477684  0.5318524152969066  1.0000
  C   C623      1.0  0.7182162068022788  0.7613034298377351  0.5448222477935482  1.0000
  C   C624      1.0  0.7343328699180838  0.8060437679565057  0.5075256958847733  1.0000
  H   H965      1.0  0.716059399242479  0.8159764234772023  0.5849296306131141  1.0000
  H   H966      1.0  0.7276639937817786  0.849806735726799  0.5572767877542124  1.0000
  H   H967      1.0  0.7553664766662008  0.8132015119960107  0.5667402431554228  1.0000
  H   H968      1.0  0.6781101851175361  0.8390285894685439  0.5256564206789355  1.0000
  H   H969      1.0  0.6700269313710612  0.7947207979891459  0.5125742443290452  1.0000
  H   H970      1.0  0.6662664823952142  0.8055917746469418  0.5534283212220393  1.0000
  H   H971      1.0  0.7086035347085771  0.7443447918044535  0.5258295710670473  1.0000
  H   H972      1.0  0.7048479102884722  0.7553215141494717  0.5669343262122053  1.0000
  H   H973      1.0  0.7440648619761181  0.7527441417131149  0.5485431685884581  1.0000
  H   H974      1.0  0.7251414187868982  0.7899775821765006  0.487703957735356  1.0000
  H   H975      1.0  0.7606173532911721  0.7982383743293936  0.5104075908401539  1.0000
  H   H976      1.0  0.7328969668211458  0.8346320875875474  0.5004135117536902  1.0000
  N   N61       1.0  0.6610030285549237  0.7499147245913864  0.27347775436836713  1.0000
  C   C625      1.0  0.6267428657946461  0.7406213551800408  0.2681839817042027  1.0000
  C   C626      1.0  0.6812864105417566  0.7167955206986114  0.2761875235627008  1.0000
  C   C627      1.0  0.6632687491470175  0.7706588128519367  0.3027006030439426  1.0000
  C   C628      1.0  0.6725127053622832  0.7714762972149171  0.2467160150976019  1.0000
  H   H977      1.0  0.6239965666395548  0.7264443498476911  0.24557241508167307  1.0000
  H   H978      1.0  0.6105680274456126  0.7647765314381199  0.2670173984196986  1.0000
  H   H979      1.0  0.6174052514338075  0.7233043458734637  0.28727058972516895  1.0000
  H   H980      1.0  0.7075192504221387  0.7225952847237281  0.279630806600211  1.0000
  H   H981      1.0  0.6733901379720634  0.6999226270690166  0.296242616101103  1.0000
  H   H982      1.0  0.6793848762758746  0.7003754745898095  0.2546821893327952  1.0000
  H   H983      1.0  0.6889015274345288  0.7778513480480006  0.30752280888403977  1.0000
  H   H984      1.0  0.6541969337116771  0.7553662290557659  0.3232384993438317  1.0000
  H   H985      1.0  0.648309398617825  0.7959564961876759  0.3013023550234614  1.0000
  H   H986      1.0  0.6986456174342508  0.7781547727226605  0.24933418365252796  1.0000
  H   H987      1.0  0.6579219707748531  0.79694043724544  0.24442292822571793  1.0000
  H   H988      1.0  0.6702562184817125  0.7569240479695923  0.22415880389592505  1.0000
  N   N62       1.0  0.0035506653228800644  0.42656798513585753  0.3854745284971207  1.0000
  C   C629      1.0  0.018074368065130964  0.4207900951006458  0.41678133782066185  1.0000
  C   C630      1.0  0.9992903088255867  0.3916756405666462  0.37027388381053133  1.0000
  C   C631      1.0  0.02543107521208654  0.44849719824062967  0.36620718118523055  1.0000
  C   C632      1.0  0.9714671911674064  0.44528342671913734  0.388809525122317  1.0000
  H   H989      1.0  0.022123458419277542  0.44647636973113547  0.4289014488561538  1.0000
  H   H990      1.0  0.04210192596032103  0.4062947920387286  0.4150402793454343  1.0000
  H   H991      1.0  0.0022248060894114463  0.4045687754525408  0.43207245519475085  1.0000
  H   H992      1.0  0.989200087496799  0.3948581232143488  0.34620551720285697  1.0000
  H   H993      1.0  0.022931356534028113  0.37650657348871186  0.3680670529735228  1.0000
  H   H994      1.0  0.9826440653622552  0.3746156371260164  0.3840848124836842  1.0000
  H   H995      1.0  0.0284241991527443  0.47539191659695573  0.37656525965902726  1.0000
  H   H996      1.0  0.016175292705639555  0.4521698516046675  0.3418799192983796  1.0000
  H   H997      1.0  0.05026207429633067  0.43588876327890375  0.3643439633751065  1.0000
  H   H998      1.0  0.9542758907765216  0.42932027383403043  0.40305451157624395  1.0000
  H   H999      1.0  0.9600305837555609  0.450434720760262  0.36556373851909907  1.0000
  H   H1000     1.0  0.9738188417221038  0.47143739857375166  0.4007174112209492  1.0000
  N   N63       1.0  0.03789590215403593  0.5161303033794388  0.07983568527490052  1.0000
  C   C633      1.0  0.029038511023477875  0.5546265105337688  0.07785598490694484  1.0000
  C   C634      1.0  0.04624331109227264  0.5065720387940695  0.11257551420153335  1.0000
  C   C635      1.0  0.06633532372953899  0.5081525837436864  0.05932327630770229  1.0000
  C   C636      1.0  0.009992320563750434  0.49508606395185545  0.06960931661873837  1.0000
  H   H1001     1.0  0.02200204462274402  0.5627349943218795  0.053579522844973804  1.0000
  H   H1002     1.0  0.04981822206969033  0.5712395554404198  0.08487175975525042  1.0000
  H   H1003     1.0  0.008053576433801002  0.5617602659664621  0.0935310831315357  1.0000
  H   H1004     1.0  0.06747094925969788  0.5216110135560085  0.1209216141306037  1.0000
  H   H1005     1.0  0.02545609170618479  0.5123872608349506  0.1288142219048354  1.0000
  H   H1006     1.0  0.05281929198211488  0.47770578612545556  0.11502492417457648  1.0000
  H   H1007     1.0  0.06107774644058028  0.5153556720670687  0.034462435931713165  1.0000
  H   H1008     1.0  0.07344192294827478  0.4792673380979952  0.05998347189507314  1.0000
  H   H1009     1.0  0.08804407912372003  0.5231348101835717  0.06666726650341803  1.0000
  H   H1010     1.0  0.0030943239450158533  0.5015199406676688  0.04494341163380988  1.0000
  H   H1011     1.0  0.9881205522594515  0.5003940450420497  0.08462749406852339  1.0000
  H   H1012     1.0  0.015930061106994575  0.4659130016262065  0.07086226204185708  1.0000
  N   N64       1.0  0.4054239272821217  0.11760299337850122  0.8339094900875628  1.0000
  C   C637      1.0  0.4393398224831062  0.11596949633435183  0.822076113938769  1.0000
  C   C638      1.0  0.40306824840199146  0.09576235980835723  0.8627668960071456  1.0000
  C   C639      1.0  0.3835615897427324  0.10363008919504146  0.8097267958037381  1.0000
  C   C640      1.0  0.3958814967791176  0.15504528766622228  0.8410052664706471  1.0000
  H   H1013     1.0  0.44173075745448254  0.13090190505792365  0.7996476993610088  1.0000
  H   H1014     1.0  0.44798452202751887  0.08793206293262479  0.8178186722071045  1.0000
  H   H1015     1.0  0.45625737641672476  0.12793290633922472  0.8389171610558434  1.0000
  H   H1016     1.0  0.3778658560271008  0.09685848374122097  0.8727067547790097  1.0000
  H   H1017     1.0  0.4099883679364925  0.06728296205774242  0.8582632166423172  1.0000
  H   H1018     1.0  0.41978251578148457  0.10515995009719625  0.8812696475512204  1.0000
  H   H1019     1.0  0.3848364619728265  0.11952951579992699  0.7876436388794679  1.0000
  H   H1020     1.0  0.35767433395511766  0.10465932581486515  0.8176653789265885  1.0000
  H   H1021     1.0  0.3904999414718079  0.07557616414486601  0.8035964697773643  1.0000
  H   H1022     1.0  0.37036203383713767  0.1573457479733491  0.850000894376124  1.0000
  H   H1023     1.0  0.39727557666024804  0.17228578910570125  0.8197502283345298  1.0000
  H   H1024     1.0  0.4121251463334261  0.16647051601167595  0.8589959772305551  1.0000
