data_image0
_chemical_formula_structural       HFeS2C2H2S3FeSCHFeS2FeS2FeSFeS3HC7H5C7H4CFeNH6C4HCHNC4H12C2HSCHCH4FeNCH4CH2CHC3HNH2CH5CHSH7CHCH4SH2FeSC2FeH2SFeSFeHFeS2HCHCHSFeS2FeS2FeSFeS3CH2C6H6NSH3C7H5SC4HCH3NH4CHC3HCHFeCHCNHCHCH6C2H3SCH6NCHCH7CH4C2HCHCNCH6FeC2SCFeCHCFeS2FeSHFeSFeS3FeSHFeS2FeSFeS3C2H4SH2C6H5CNCH2C3H6C2H2CHC2H10NHCHCSHCH2C2H2C2H3NCHCHCH2SCHNCH7C2HCNCFeS2FeSHFeSFeS3FeS2FeS2FeSFeS3C2HC3HCH5C3H2CHC2H3C6H4NHCHCHCH5CH4CHCH5CH5NCH3NHCHCHCH4CH3C2H2CHCHCH5CHCHC3NH3CH4SH3CHCH3FeS2HC4SFeS2H2SFeS2FeS2FeHFeS3CHSCHFeC6H7NC6H4CH3C2H3CHCH3FeSNC4H14CFeCHC2H2C3HSCHFeS2FeSNCH4FeS2H5SFeS2FeS2FeSFeS3CH2C7H4CH3CH3C6H5FeH2SC2HC4HCHCH3NHCH4NHC2FeNC2HCH5C2SHCSCH2CH4CH3CH5CSHC3HFeS2FeSCFeSFeS5CHSH3SCH6FeC6H4C2H2SH2C3HCH3CH3C5NHCH2CHFeC3H2CHCH2NCH2N2C4H13C2SH4CHC3H3CH4CHSH5CNSFeSHFeS2FeSFeS3FeSCSHCS3HNCH3C6H4C2H3CH4C2H2C2HC3H4NC4H12C2H4C2HCH2CH3C3H2SNH3CH2C2HSHC2H3SCHFeHNH5NFeS2FeS2FeHFeHS2FeS2FeS2FeSFeS3CH2CH4C6H4C2H3CH2C2H2C3H3C4H3C2H3CNC3NH3CHCH2SHCH2CH6NHCHCH2NCH4CHCHCH8CHCHCH2C3HC3H3CH6CHFeS2FeS2FeCFeS3FeS2FeNHFeCFeS3H2CH2C5HC3H2SH6C6H4C2SH6CH5SH2CH2C2HCHCHNH2S2H3CH2CH3C2H2CNCHFeS2FeS2FeSFeS3HSCSHNH2CH4CH3C7H4C4NH2CSHC3H2CFeCSH10C3HCHNH4C2HC2H4SH2CH4CH2CSHCHCH2C2FeHNHCH2NHC2HFeHCH2CHSC2HCH3CH3FeS2FeS2FeSFeS3HSCNH2C6H7C3H4C2FeH7C2HFeH6CH2FeHSHNH3C3H2SCHC2NH3CSC2H3CHCHC2H4C2H3CH2C3HCSCHCHCHCH2C2H2FeS2FeSCFeSFeS3FeHSFeSCHS3FeSHSC4H2C4HC6H4SNHSFeH2CH3CH2C2H3NC4H13CHCHFeCHSFeSH2CHCSH2C2HCH3C3HFeS2FeS2FeSFeS3CSHSFeSC2SHFeHSFeS2H2SHSC4NHCNC6H4C2HC2H3C2FeH2C5H3C2HC3H3FeH6C2SH3C4H3CH6CH3CH2CNCH2CH10NH2CH6C2HFeHC3FeSNFeS2FeSFeS3FeS2FeS2FeSFeS3CHC2H3CNH3CNC8H4C3H2C2H8CHC2HCH6CH2CH2NHCHNHCHCHCH5CHC2H3C3HCH4CHCH3SHC2H3C3H2SH4CHFeSHFeS2FeSFeS2FeS2FeS2FeSFeS3CHC2N3H4CH3C6H4C2H3C4H8SCH2CHSH3C2H3NHC2HNC2HC2H3CH7CH3CH4CH2CHCHFeS2FeS2FeSFeS3HSHCFeHFeSFeS2H3CFeHS2HSC6HCH7C6H4CH2C2H3FeH6CHCH2C2FeH3NC3H9CH2CHCNHCH3CH4CNC2HCSH3C3SCH2CHFeH3NHSC2H7C3FeS2FeS2FeSFeS3FeS2FeHFeSH3C2SHNH2C4H2CH3CFeC7H4C3H2CH3CH2C3SH2CH2NH3SH4NC2HCNCH3CHSH2CHCH5C2FeH4C2HSHCSHCHFeHCH4C2SH4C3H4CHSCH3SH3FeS2FeS2FeSFeS3C2H2CH3C6H5C6H4NH5C3H3FeCH2CSH4CNH4C2HSCHFeCNH3CH2SHNH2C2HCH3CHCSH3CHCH4C2H2CH4CHCH2FeS2FeS2FeSFeS5C2HFeSH2C6H4C6H4C2H3SCHC3HCH2CNC3H11CH13NHNCHC2HFeH3NC2H3C2HSH3SCH4CH2CHFeS2FeHSFeHFeHS2FeS2FeS2FeSFeS3C2NHCH3CHC6H5C3HNH2CHC2H5CHCHC4H6C2HC3NH2CHCHCH3C2H7S2H7CH2CHC2H2CH3CH2FeS2FeS2FeSFeHS2FeS2FeS2FeSFeS3CNCH2C2HCH5CHC2HC2H2NHC7H5C3H2CH2C2NH3CH2CHC2HCHCSC2H5CH4C2H2C2H8NCH6CH3C2HC3HCFeSH2FeS2FeS2FeSFeS4CH3C6H4C3HCH3C6H2C2HCHNSHCHNC4H11CSHCH3C2H4NCHCH4CHCH3C2NH4CNH3CHSH2CHCHCH4CH8FeSHFeS2FeSFeS3NHSHCH4SCHCNSCH2C6H3SC6H4CH3CSH4C2NC4H12SHCH8CHC3FeHSFeHCH
_chemical_formula_sum              "H1536 Fe192 S384 C960 N96"
_cell_length_a       62.65
_cell_length_b       62.0954
_cell_length_c       61.4561
_cell_angle_alpha    85.6755
_cell_angle_beta     85.0453
_cell_angle_gamma    86.485

_space_group_name_H-M_alt    "P 1"
_space_group_IT_number       1

loop_
  _space_group_symop_operation_xyz
  'x, y, z'

loop_
  _atom_site_type_symbol
  _atom_site_label
  _atom_site_symmetry_multiplicity
  _atom_site_fract_x
  _atom_site_fract_y
  _atom_site_fract_z
  _atom_site_occupancy
  H   H1        1.0  0.06763  0.17092  0.30529  1.0000
  Fe  Fe1       1.0  0.21064  0.24335  0.14060  1.0000
  S   S1        1.0  0.22694  0.21100  0.13344  1.0000
  S   S2        1.0  0.17594  0.24136  0.15409  1.0000
  C   C1        1.0  0.10850  0.33421  0.31169  1.0000
  C   C2        1.0  0.21041  0.02240  0.21763  1.0000
  H   H2        1.0  0.19484  0.02037  0.21082  1.0000
  H   H3        1.0  0.20631  0.07691  0.22113  1.0000
  S   S3        1.0  0.22284  0.25957  0.10814  1.0000
  S   S4        1.0  0.23779  0.07709  0.31044  1.0000
  S   S5        1.0  0.21641  0.09173  0.26500  1.0000
  Fe  Fe2       1.0  0.22533  0.10832  0.29371  1.0000
  S   S6        1.0  0.20614  0.13511  0.31134  1.0000
  C   C3        1.0  0.24023  0.22378  0.04350  1.0000
  H   H4        1.0  0.18533  0.05927  0.21748  1.0000
  Fe  Fe3       1.0  0.08650  0.25156  0.31128  1.0000
  S   S7        1.0  0.07002  0.22156  0.30482  1.0000
  S   S8        1.0  0.07452  0.26923  0.34158  1.0000
  Fe  Fe4       1.0  0.11066  0.25382  0.26587  1.0000
  S   S9        1.0  0.09525  0.22506  0.25564  1.0000
  S   S10       1.0  0.13646  0.27280  0.24604  1.0000
  Fe  Fe5       1.0  0.06424  0.23851  0.27223  1.0000
  S   S11       1.0  0.03260  0.24063  0.25593  1.0000
  Fe  Fe6       1.0  0.10220  0.21007  0.28894  1.0000
  S   S12       1.0  0.11354  0.17449  0.28852  1.0000
  S   S13       1.0  0.07917  0.26899  0.27922  1.0000
  S   S14       1.0  0.11922  0.23836  0.29857  1.0000
  H   H5        1.0  0.23069  0.09807  0.37861  1.0000
  C   C4        1.0  0.02635  0.16150  0.27537  1.0000
  C   C5        1.0  0.18118  0.14666  0.30310  1.0000
  C   C6        1.0  0.16818  0.13550  0.29089  1.0000
  C   C7        1.0  0.14767  0.14439  0.28626  1.0000
  C   C8        1.0  0.14012  0.16473  0.29329  1.0000
  C   C9        1.0  0.15344  0.17624  0.30479  1.0000
  C   C10       1.0  0.17374  0.16711  0.30989  1.0000
  H   H6        1.0  0.17360  0.11966  0.28573  1.0000
  H   H7        1.0  0.13747  0.13529  0.27746  1.0000
  H   H8        1.0  0.14779  0.19182  0.31046  1.0000
  H   H9        1.0  0.18359  0.17585  0.31943  1.0000
  H   H10       1.0  0.07414  0.18497  0.26653  1.0000
  C   C11       1.0  0.10530  0.32326  0.37341  1.0000
  C   C12       1.0  0.16566  0.24996  0.17992  1.0000
  C   C13       1.0  0.17672  0.26366  0.19150  1.0000
  C   C14       1.0  0.16764  0.27054  0.21177  1.0000
  C   C15       1.0  0.14768  0.26345  0.22081  1.0000
  C   C16       1.0  0.13689  0.24938  0.20943  1.0000
  C   C17       1.0  0.14575  0.24286  0.18899  1.0000
  H   H11       1.0  0.19198  0.26938  0.18458  1.0000
  H   H12       1.0  0.17604  0.28151  0.22042  1.0000
  H   H13       1.0  0.12141  0.24402  0.21604  1.0000
  H   H14       1.0  0.13704  0.23238  0.18007  1.0000
  C   C18       1.0  0.12069  0.29869  0.30080  1.0000
  Fe  Fe7       1.0  0.23218  0.06109  0.27991  1.0000
  N   N1        1.0  0.21736  0.04476  0.21317  1.0000
  H   H15       1.0  0.08331  0.31562  0.28650  1.0000
  H   H16       1.0  0.12119  0.33421  0.32333  1.0000
  H   H17       1.0  0.13554  0.30685  0.36370  1.0000
  H   H18       1.0  0.14840  0.32989  0.29178  1.0000
  H   H19       1.0  0.09408  0.32758  0.32117  1.0000
  H   H20       1.0  0.23714  0.04280  0.24002  1.0000
  C   C19       1.0  0.11828  0.30678  0.36361  1.0000
  C   C20       1.0  0.10911  0.29005  0.35397  1.0000
  C   C21       1.0  0.08682  0.28982  0.35371  1.0000
  C   C22       1.0  0.07382  0.30611  0.36382  1.0000
  H   H21       1.0  0.01608  0.17632  0.27891  1.0000
  C   C23       1.0  0.00328  0.22041  0.28643  1.0000
  H   H22       1.0  0.11925  0.27713  0.34707  1.0000
  N   N2        1.0  0.19815  0.19655  0.21538  1.0000
  C   C24       1.0  0.20384  0.20586  0.19292  1.0000
  C   C25       1.0  0.17669  0.20546  0.22334  1.0000
  C   C26       1.0  0.21421  0.20213  0.22999  1.0000
  C   C27       1.0  0.19789  0.17277  0.21529  1.0000
  H   H23       1.0  0.19193  0.20226  0.18142  1.0000
  H   H24       1.0  0.21987  0.19943  0.18631  1.0000
  H   H25       1.0  0.20436  0.22378  0.19239  1.0000
  H   H26       1.0  0.17163  0.19850  0.24010  1.0000
  H   H27       1.0  0.17645  0.22334  0.22402  1.0000
  H   H28       1.0  0.16423  0.20208  0.21236  1.0000
  H   H29       1.0  0.23061  0.19581  0.22431  1.0000
  H   H30       1.0  0.21051  0.19521  0.24705  1.0000
  H   H31       1.0  0.21474  0.21998  0.23050  1.0000
  H   H32       1.0  0.18609  0.16799  0.20425  1.0000
  H   H33       1.0  0.19356  0.16519  0.23198  1.0000
  H   H34       1.0  0.21391  0.16553  0.20956  1.0000
  C   C28       1.0  0.05071  0.16847  0.30212  1.0000
  C   C29       1.0  0.06223  0.14453  0.27371  1.0000
  H   H35       1.0  0.13329  0.29763  0.31258  1.0000
  S   S15       1.0  0.21610  0.02884  0.28091  1.0000
  C   C30       1.0  0.24192  0.13853  0.36735  1.0000
  H   H36       1.0  0.07941  0.14624  0.27644  1.0000
  C   C31       1.0  0.08299  0.32281  0.37355  1.0000
  H   H37       1.0  0.23968  0.27873  0.04971  1.0000
  H   H38       1.0  0.05673  0.13017  0.28414  1.0000
  H   H39       1.0  0.01971  0.14783  0.28608  1.0000
  H   H40       1.0  0.24531  0.08565  0.35599  1.0000
  Fe  Fe8       1.0  0.24140  0.22822  0.10241  1.0000
  N   N3        1.0  0.04902  0.16431  0.27897  1.0000
  C   C32       1.0  0.09830  0.32189  0.27789  1.0000
  H   H41       1.0  0.05533  0.18068  0.24708  1.0000
  H   H42       1.0  0.05655  0.30589  0.36401  1.0000
  H   H43       1.0  0.14066  0.32073  0.26668  1.0000
  H   H44       1.0  0.01651  0.21652  0.29648  1.0000
  C   C33       1.0  0.05692  0.18282  0.26467  1.0000
  H   H45       1.0  0.20201  0.25737  0.02036  1.0000
  H   H46       1.0  0.02452  0.15826  0.25808  1.0000
  C   C34       1.0  0.22273  0.23878  0.04198  1.0000
  H   H47       1.0  0.20821  0.01798  0.23557  1.0000
  C   C35       1.0  0.21569  0.24594  0.02131  1.0000
  C   C36       1.0  0.13499  0.33026  0.28097  1.0000
  C   C37       1.0  0.21943  0.05038  0.18932  1.0000
  H   H48       1.0  0.21447  0.24470  0.05673  1.0000
  N   N4        1.0  0.11561  0.32130  0.29285  1.0000
  H   H49       1.0  0.04783  0.19816  0.26865  1.0000
  H   H50       1.0  0.04091  0.18325  0.30670  1.0000
  C   C38       1.0  0.00673  0.23244  0.26636  1.0000
  H   H51       1.0  0.04512  0.15473  0.31342  1.0000
  H   H52       1.0  0.07281  0.33537  0.38104  1.0000
  H   H53       1.0  0.20388  0.04946  0.18205  1.0000
  H   H54       1.0  0.06160  0.14106  0.25628  1.0000
  H   H55       1.0  0.10296  0.31176  0.26381  1.0000
  C   C39       1.0  0.23833  0.04645  0.22202  1.0000
  H   H56       1.0  0.10625  0.29113  0.30912  1.0000
  S   S16       1.0  0.23700  0.25454  0.15882  1.0000
  H   H57       1.0  0.19931  0.05594  0.24189  1.0000
  H   H58       1.0  0.12666  0.28859  0.28715  1.0000
  H   H59       1.0  0.22247  0.01039  0.21057  1.0000
  H   H60       1.0  0.24747  0.12798  0.32591  1.0000
  H   H61       1.0  0.22803  0.14389  0.35765  1.0000
  H   H62       1.0  0.22377  0.10547  0.35114  1.0000
  H   H63       1.0  0.22480  0.06717  0.18558  1.0000
  C   C40       1.0  0.20135  0.05991  0.22384  1.0000
  H   H64       1.0  0.23566  0.13617  0.38482  1.0000
  C   C41       1.0  0.23747  0.10116  0.36140  1.0000
  H   H65       1.0  0.25079  0.03492  0.21482  1.0000
  H   H66       1.0  0.23144  0.03927  0.18079  1.0000
  H   H67       1.0  0.24210  0.13381  0.17371  1.0000
  H   H68       1.0  0.00714  0.33478  0.44708  1.0000
  S   S17       1.0  0.25041  0.21487  0.06899  1.0000
  H   H69       1.0  0.24976  0.17126  0.15940  1.0000
  H   H70       1.0  0.24422  0.06304  0.21875  1.0000
  Fe  Fe9       1.0  0.24947  0.09903  0.25038  1.0000
  S   S18       1.0  0.24971  0.10953  0.21420  1.0000
  C   C42       1.0  0.24945  0.14430  0.18383  1.0000
  C   C43       1.0  0.25056  0.21607  0.02411  1.0000
  Fe  Fe10      1.0  0.25108  0.26758  0.12584  1.0000
  H   H71       1.0  0.25104  0.29065  0.07155  1.0000
  H   H72       1.0  0.17954  0.29372  0.91469  1.0000
  S   S19       1.0  0.21487  0.22701  0.91724  1.0000
  Fe  Fe11      1.0  0.22517  0.25543  0.89504  1.0000
  S   S20       1.0  0.20196  0.27432  0.87335  1.0000
  Fe  Fe12      1.0  0.23285  0.24122  0.94256  1.0000
  H   H73       1.0  0.14095  0.29772  0.92723  1.0000
  Fe  Fe13      1.0  0.21047  0.10238  0.76516  1.0000
  S   S21       1.0  0.22485  0.09432  0.79715  1.0000
  S   S22       1.0  0.17457  0.10880  0.76567  1.0000
  H   H74       1.0  0.19512  0.27031  0.92372  1.0000
  C   C44       1.0  0.22610  0.23831  0.00192  1.0000
  H   H75       1.0  0.03849  0.26016  0.75111  1.0000
  C   C45       1.0  0.09553  0.30722  0.68465  1.0000
  H   H76       1.0  0.18330  0.15136  0.69679  1.0000
  S   S23       1.0  0.22827  0.07490  0.74854  1.0000
  Fe  Fe14      1.0  0.06975  0.23135  0.77906  1.0000
  S   S24       1.0  0.08449  0.24173  0.74547  1.0000
  S   S25       1.0  0.03439  0.22632  0.78999  1.0000
  Fe  Fe15      1.0  0.11192  0.23745  0.80094  1.0000
  S   S26       1.0  0.12881  0.24952  0.76912  1.0000
  S   S27       1.0  0.12867  0.22794  0.83209  1.0000
  Fe  Fe16      1.0  0.09785  0.26823  0.76221  1.0000
  S   S28       1.0  0.09247  0.30386  0.75130  1.0000
  Fe  Fe17      1.0  0.11409  0.22191  0.75530  1.0000
  S   S29       1.0  0.13775  0.20232  0.73363  1.0000
  S   S30       1.0  0.08218  0.25861  0.79557  1.0000
  S   S31       1.0  0.09827  0.20905  0.78733  1.0000
  C   C46       1.0  0.01084  0.22701  0.77559  1.0000
  H   H77       1.0  0.18295  0.03022  0.76906  1.0000
  H   H78       1.0  0.02700  0.22406  0.74351  1.0000
  C   C47       1.0  0.16462  0.13534  0.75803  1.0000
  C   C48       1.0  0.17803  0.15041  0.74684  1.0000
  C   C49       1.0  0.16960  0.17087  0.73946  1.0000
  C   C50       1.0  0.14781  0.17681  0.74397  1.0000
  C   C51       1.0  0.13449  0.16211  0.75596  1.0000
  C   C52       1.0  0.14283  0.14132  0.76270  1.0000
  H   H79       1.0  0.19483  0.14626  0.74356  1.0000
  H   H80       1.0  0.18000  0.18225  0.73034  1.0000
  H   H81       1.0  0.11762  0.16652  0.75943  1.0000
  H   H82       1.0  0.13228  0.12982  0.77140  1.0000
  H   H83       1.0  0.15197  0.07109  0.80189  1.0000
  H   H84       1.0  0.18666  0.29021  0.94267  1.0000
  N   N5        1.0  0.16186  0.27005  0.93513  1.0000
  S   S32       1.0  0.23448  0.12616  0.75214  1.0000
  H   H85       1.0  0.20940  0.16457  0.80634  1.0000
  H   H86       1.0  0.19549  0.10304  0.69518  1.0000
  H   H87       1.0  0.18506  0.21923  0.81744  1.0000
  C   C53       1.0  0.19195  0.14524  0.68166  1.0000
  C   C54       1.0  0.18284  0.26082  0.86055  1.0000
  C   C55       1.0  0.17839  0.23938  0.86701  1.0000
  C   C56       1.0  0.16156  0.22975  0.85834  1.0000
  C   C57       1.0  0.14971  0.24100  0.84225  1.0000
  C   C58       1.0  0.15472  0.26215  0.83508  1.0000
  C   C59       1.0  0.17099  0.27213  0.84448  1.0000
  H   H88       1.0  0.18753  0.23037  0.87913  1.0000
  H   H89       1.0  0.15767  0.21349  0.86421  1.0000
  H   H90       1.0  0.14567  0.27101  0.82275  1.0000
  H   H91       1.0  0.17434  0.28872  0.83935  1.0000
  H   H92       1.0  0.10051  0.29672  0.67165  1.0000
  S   S33       1.0  0.21650  0.24779  0.97631  1.0000
  C   C60       1.0  0.09645  0.29921  0.70662  1.0000
  C   C61       1.0  0.09062  0.31282  0.72351  1.0000
  C   C62       1.0  0.02818  0.31451  0.74741  1.0000
  C   C63       1.0  0.15640  0.25839  0.91643  1.0000
  H   H93       1.0  0.23116  0.16003  0.68488  1.0000
  C   C64       1.0  0.18159  0.28168  0.92884  1.0000
  H   H94       1.0  0.02260  0.31624  0.73063  1.0000
  H   H95       1.0  0.16930  0.24606  0.91185  1.0000
  H   H96       1.0  0.20513  0.17703  0.77968  1.0000
  N   N6        1.0  0.02602  0.29225  0.75737  1.0000
  H   H97       1.0  0.12892  0.27753  0.94608  1.0000
  H   H98       1.0  0.19542  0.15955  0.67015  1.0000
  H   H99       1.0  0.14128  0.24985  0.92025  1.0000
  H   H100      1.0  0.19815  0.11906  0.71772  1.0000
  C   C65       1.0  0.08853  0.32877  0.67940  1.0000
  H   H101      1.0  0.22404  0.02731  0.75794  1.0000
  C   C66       1.0  0.20638  0.11376  0.70210  1.0000
  C   C67       1.0  0.14407  0.28576  0.94120  1.0000
  C   C68       1.0  0.03860  0.27693  0.74336  1.0000
  H   H102      1.0  0.10206  0.28264  0.71046  1.0000
  C   C69       1.0  0.15814  0.02743  0.80713  1.0000
  H   H103      1.0  0.15443  0.26958  0.90159  1.0000
  Fe  Fe18      1.0  0.24495  0.06865  0.77921  1.0000
  C   C70       1.0  0.16546  0.25440  0.95399  1.0000
  H   H104      1.0  0.17886  0.24233  0.94997  1.0000
  C   C71       1.0  0.03424  0.29050  0.77930  1.0000
  N   N7        1.0  0.17438  0.04341  0.80022  1.0000
  H   H105      1.0  0.18909  0.05799  0.77032  1.0000
  C   C72       1.0  0.22638  0.14611  0.69637  1.0000
  H   H106      1.0  0.15570  0.02510  0.82529  1.0000
  C   C73       1.0  0.22267  0.12434  0.66619  1.0000
  H   H107      1.0  0.05566  0.28116  0.74052  1.0000
  H   H108      1.0  0.24142  0.13682  0.70064  1.0000
  H   H109      1.0  0.03304  0.27380  0.78721  1.0000
  H   H110      1.0  0.14777  0.29491  0.95519  1.0000
  H   H111      1.0  0.16020  0.19103  0.83376  1.0000
  H   H112      1.0  0.17354  0.20210  0.77425  1.0000
  C   C74       1.0  0.17173  0.17883  0.82622  1.0000
  C   C75       1.0  0.19677  0.17085  0.79542  1.0000
  H   H113      1.0  0.18760  0.15687  0.79192  1.0000
  H   H114      1.0  0.21870  0.15281  0.71158  1.0000
  H   H115      1.0  0.20080  0.01978  0.80322  1.0000
  S   S34       1.0  0.24131  0.27092  0.92092  1.0000
  C   C76       1.0  0.01166  0.22604  0.75285  1.0000
  H   H116      1.0  0.05146  0.29433  0.77833  1.0000
  H   H117      1.0  0.22100  0.10372  0.70620  1.0000
  H   H118      1.0  0.20771  0.20065  0.82158  1.0000
  H   H119      1.0  0.18349  0.17338  0.83835  1.0000
  H   H120      1.0  0.20384  0.21312  0.79474  1.0000
  H   H121      1.0  0.04525  0.31894  0.74603  1.0000
  N   N8        1.0  0.18253  0.18789  0.80550  1.0000
  C   C77       1.0  0.19537  0.20600  0.81001  1.0000
  H   H122      1.0  0.16235  0.16476  0.82347  1.0000
  C   C78       1.0  0.16615  0.19587  0.79044  1.0000
  H   H123      1.0  0.15549  0.18288  0.78756  1.0000
  H   H124      1.0  0.15561  0.20928  0.79722  1.0000
  H   H125      1.0  0.24988  0.20145  0.85346  1.0000
  H   H126      1.0  0.15095  0.24528  0.95926  1.0000
  H   H127      1.0  0.20778  0.04728  0.80369  1.0000
  H   H128      1.0  0.16996  0.26257  0.96834  1.0000
  H   H129      1.0  0.22703  0.13791  0.65404  1.0000
  C   C79       1.0  0.17722  0.04579  0.77605  1.0000
  H   H130      1.0  0.16310  0.01133  0.80086  1.0000
  H   H131      1.0  0.21230  0.11377  0.65836  1.0000
  H   H132      1.0  0.02512  0.30172  0.79043  1.0000
  H   H133      1.0  0.16194  0.05138  0.76887  1.0000
  C   C80       1.0  0.25063  0.18443  0.85068  1.0000
  C   C81       1.0  0.19500  0.03587  0.80897  1.0000
  H   H134      1.0  0.19365  0.03427  0.82718  1.0000
  C   C82       1.0  0.22943  0.01170  0.76500  1.0000
  H   H135      1.0  0.03215  0.27674  0.72707  1.0000
  C   C83       1.0  0.16718  0.06456  0.80868  1.0000
  N   N9        1.0  0.21183  0.13237  0.68659  1.0000
  C   C84       1.0  0.24357  0.01036  0.78154  1.0000
  H   H136      1.0  0.01874  0.32653  0.75742  1.0000
  H   H137      1.0  0.17927  0.07686  0.80401  1.0000
  H   H138      1.0  0.14233  0.03265  0.80088  1.0000
  H   H139      1.0  0.18064  0.13544  0.67412  1.0000
  H   H140      1.0  0.16448  0.06339  0.82685  1.0000
  H   H141      1.0  0.23782  0.11468  0.66945  1.0000
  Fe  Fe19      1.0  0.24653  0.21136  0.90508  1.0000
  C   C85       1.0  0.08335  0.33428  0.71828  1.0000
  C   C86       1.0  0.00319  0.28702  0.75939  1.0000
  S   S35       1.0  0.25044  0.17645  0.89578  1.0000
  C   C87       1.0  0.24366  0.22339  0.00344  1.0000
  Fe  Fe20      1.0  0.24992  0.11720  0.78355  1.0000
  C   C88       1.0  0.25031  0.16898  0.86847  1.0000
  H   H142      1.0  0.25071  0.13486  0.87813  1.0000
  C   C89       1.0  0.25098  0.14693  0.86447  1.0000
  Fe  Fe21      1.0  0.07738  0.37793  0.45082  1.0000
  S   S36       1.0  0.07509  0.41361  0.44315  1.0000
  S   S37       1.0  0.06416  0.36354  0.48390  1.0000
  Fe  Fe22      1.0  0.10025  0.36957  0.40574  1.0000
  S   S38       1.0  0.09999  0.40521  0.39487  1.0000
  H   H143      1.0  0.13832  0.62954  0.48040  1.0000
  Fe  Fe23      1.0  0.10889  0.40985  0.42872  1.0000
  S   S39       1.0  0.13069  0.43357  0.44000  1.0000
  Fe  Fe24      1.0  0.06623  0.40597  0.41035  1.0000
  S   S40       1.0  0.03888  0.42776  0.39914  1.0000
  S   S41       1.0  0.11210  0.37430  0.43864  1.0000
  S   S42       1.0  0.06562  0.37014  0.41887  1.0000
  Fe  Fe25      1.0  0.10252  0.57902  0.46150  1.0000
  S   S43       1.0  0.11856  0.58608  0.42775  1.0000
  H   H144      1.0  0.04724  0.49786  0.44749  1.0000
  Fe  Fe26      1.0  0.06228  0.56485  0.44382  1.0000
  S   S44       1.0  0.07436  0.57205  0.40882  1.0000
  S   S45       1.0  0.03229  0.54706  0.45178  1.0000
  Fe  Fe27      1.0  0.10491  0.55529  0.41950  1.0000
  S   S46       1.0  0.11977  0.52962  0.39792  1.0000
  Fe  Fe28      1.0  0.08666  0.60214  0.42026  1.0000
  S   S47       1.0  0.08448  0.63707  0.40634  1.0000
  S   S48       1.0  0.09213  0.54665  0.45393  1.0000
  S   S49       1.0  0.07123  0.59647  0.45466  1.0000
  C   C90       1.0  0.09010  0.64504  0.37824  1.0000
  C   C91       1.0  0.09757  0.63014  0.36298  1.0000
  H   H145      1.0  0.09986  0.61320  0.36824  1.0000
  H   H146      1.0  0.13591  0.43191  0.48979  1.0000
  H   H147      1.0  0.02436  0.59337  0.45366  1.0000
  H   H148      1.0  0.02381  0.35012  0.42724  1.0000
  S   S50       1.0  0.12084  0.58342  0.49082  1.0000
  H   H149      1.0  0.09351  0.66151  0.26211  1.0000
  H   H150      1.0  0.11382  0.37828  0.49020  1.0000
  C   C92       1.0  0.12697  0.46019  0.42836  1.0000
  C   C93       1.0  0.12720  0.47766  0.44151  1.0000
  C   C94       1.0  0.12461  0.49903  0.43240  1.0000
  C   C95       1.0  0.12242  0.50303  0.40997  1.0000
  C   C96       1.0  0.12250  0.48554  0.39679  1.0000
  C   C97       1.0  0.12441  0.46416  0.40601  1.0000
  H   H151      1.0  0.12941  0.47469  0.45875  1.0000
  H   H152      1.0  0.12507  0.51240  0.44259  1.0000
  H   H153      1.0  0.12101  0.48854  0.37939  1.0000
  H   H154      1.0  0.12450  0.45076  0.39571  1.0000
  H   H155      1.0  0.13181  0.34734  0.27470  1.0000
  C   C98       1.0  0.10210  0.63721  0.34082  1.0000
  N   N10       1.0  0.12674  0.64849  0.45258  1.0000
  C   C99       1.0  0.06429  0.51385  0.40891  1.0000
  H   H156      1.0  0.12946  0.63490  0.42118  1.0000
  H   H157      1.0  0.07973  0.47322  0.40066  1.0000
  C   C100      1.0  0.03846  0.49461  0.43318  1.0000
  C   C101      1.0  0.01631  0.34967  0.44435  1.0000
  C   C102      1.0  0.00912  0.56401  0.44925  1.0000
  H   H158      1.0  0.03020  0.47927  0.43719  1.0000
  H   H159      1.0  0.04338  0.38739  0.37837  1.0000
  H   H160      1.0  0.14795  0.65542  0.42371  1.0000
  H   H161      1.0  0.16307  0.40782  0.47296  1.0000
  H   H162      1.0  0.14737  0.63742  0.22183  1.0000
  H   H163      1.0  0.10215  0.62650  0.45110  1.0000
  C   C103      1.0  0.06905  0.47513  0.41589  1.0000
  C   C104      1.0  0.13676  0.66127  0.25607  1.0000
  H   H164      1.0  0.07029  0.40884  0.48853  1.0000
  H   H165      1.0  0.09264  0.65414  0.45079  1.0000
  C   C105      1.0  0.01166  0.38144  0.36997  1.0000
  H   H166      1.0  0.05271  0.52809  0.40712  1.0000
  C   C106      1.0  0.14167  0.63182  0.46228  1.0000
  C   C107      1.0  0.10448  0.64210  0.45795  1.0000
  H   H167      1.0  0.02849  0.50389  0.39172  1.0000
  H   H168      1.0  0.12146  0.62679  0.22074  1.0000
  H   H169      1.0  0.07543  0.51370  0.39377  1.0000
  H   H170      1.0  0.03196  0.47504  0.39703  1.0000
  H   H171      1.0  0.14011  0.61577  0.45578  1.0000
  H   H172      1.0  0.09049  0.64012  0.24477  1.0000
  H   H173      1.0  0.10542  0.66414  0.21333  1.0000
  H   H174      1.0  0.10039  0.64005  0.47596  1.0000
  H   H175      1.0  0.13617  0.62055  0.24452  1.0000
  H   H176      1.0  0.02586  0.50793  0.43136  1.0000
  N   N11       1.0  0.12191  0.65287  0.24174  1.0000
  H   H177      1.0  0.02303  0.39050  0.42834  1.0000
  C   C108      1.0  0.00957  0.58632  0.45093  1.0000
  H   H178      1.0  0.10517  0.63518  0.26882  1.0000
  C   C109      1.0  0.13218  0.63351  0.23175  1.0000
  S   S51       1.0  0.11772  0.34441  0.38446  1.0000
  H   H179      1.0  0.14061  0.64924  0.26974  1.0000
  C   C110      1.0  0.08725  0.66700  0.37116  1.0000
  H   H180      1.0  0.06116  0.45958  0.41984  1.0000
  H   H181      1.0  0.02953  0.34797  0.45553  1.0000
  C   C111      1.0  0.09915  0.65918  0.33371  1.0000
  C   C112      1.0  0.02679  0.39341  0.37860  1.0000
  H   H182      1.0  0.10789  0.62559  0.32913  1.0000
  H   H183      1.0  0.05123  0.48917  0.37894  1.0000
  C   C113      1.0  0.02047  0.41325  0.38720  1.0000
  C   C114      1.0  0.13134  0.65049  0.42851  1.0000
  H   H184      1.0  0.07941  0.47740  0.42929  1.0000
  H   H185      1.0  0.02821  0.38737  0.45672  1.0000
  H   H186      1.0  0.10427  0.35135  0.30637  1.0000
  N   N12       1.0  0.05312  0.49347  0.41308  1.0000
  C   C115      1.0  0.10190  0.64708  0.25484  1.0000
  H   H187      1.0  0.07408  0.51664  0.42260  1.0000
  C   C116      1.0  0.04062  0.49028  0.39436  1.0000
  H   H188      1.0  0.01653  0.36607  0.36334  1.0000
  C   C117      1.0  0.12588  0.41809  0.49564  1.0000
  H   H189      1.0  0.11388  0.41716  0.48342  1.0000
  H   H190      1.0  0.15866  0.63607  0.45876  1.0000
  S   S52       1.0  0.10505  0.66733  0.30567  1.0000
  C   C118      1.0  0.15246  0.39418  0.47762  1.0000
  H   H191      1.0  0.00525  0.40364  0.44810  1.0000
  N   N13       1.0  0.13905  0.39761  0.49819  1.0000
  C   C119      1.0  0.01527  0.38854  0.44526  1.0000
  H   H192      1.0  0.14238  0.39322  0.46373  1.0000
  H   H193      1.0  0.16269  0.37894  0.47888  1.0000
  H   H194      1.0  0.07941  0.60695  0.49897  1.0000
  H   H195      1.0  0.12002  0.66260  0.42061  1.0000
  H   H196      1.0  0.12583  0.66848  0.47973  1.0000
  H   H197      1.0  0.09436  0.33865  0.27113  1.0000
  H   H198      1.0  0.15207  0.66586  0.24682  1.0000
  C   C120      1.0  0.11684  0.66967  0.22433  1.0000
  C   C121      1.0  0.12931  0.66949  0.46160  1.0000
  H   H199      1.0  0.00410  0.36584  0.48304  1.0000
  C   C122      1.0  0.12485  0.37942  0.50331  1.0000
  N   N14       1.0  0.00229  0.36928  0.44815  1.0000
  C   C123      1.0  0.07116  0.40021  0.50431  1.0000
  Fe  Fe29      1.0  0.09584  0.41956  0.64239  1.0000
  S   S53       1.0  0.07194  0.43380  0.61975  1.0000
  S   S54       1.0  0.11558  0.44033  0.66023  1.0000
  Fe  Fe30      1.0  0.08187  0.37378  0.64052  1.0000
  S   S55       1.0  0.05638  0.38417  0.61746  1.0000
  H   H200      1.0  0.06313  0.54840  0.53448  1.0000
  Fe  Fe31      1.0  0.08133  0.40522  0.59987  1.0000
  S   S56       1.0  0.08709  0.41448  0.56357  1.0000
  Fe  Fe32      1.0  0.04933  0.41185  0.63903  1.0000
  S   S57       1.0  0.01736  0.42535  0.65236  1.0000
  S   S58       1.0  0.10757  0.39276  0.62117  1.0000
  S   S59       1.0  0.07238  0.39970  0.66343  1.0000
  Fe  Fe33      1.0  0.10593  0.56221  0.62723  1.0000
  S   S60       1.0  0.11352  0.59740  0.62357  1.0000
  S   S61       1.0  0.12657  0.53417  0.61437  1.0000
  Fe  Fe34      1.0  0.05917  0.57214  0.64231  1.0000
  S   S62       1.0  0.06235  0.60795  0.64005  1.0000
  S   S63       1.0  0.02843  0.55626  0.65319  1.0000
  Fe  Fe35      1.0  0.08201  0.60234  0.60831  1.0000
  S   S64       1.0  0.07393  0.62080  0.57678  1.0000
  Fe  Fe36      1.0  0.09330  0.60019  0.65577  1.0000
  S   S65       1.0  0.10074  0.61466  0.68718  1.0000
  S   S66       1.0  0.07617  0.56717  0.60959  1.0000
  S   S67       1.0  0.08842  0.56426  0.66038  1.0000
  C   C124      1.0  0.10384  0.64210  0.69189  1.0000
  C   C125      1.0  0.10425  0.53390  0.52618  1.0000
  H   H201      1.0  0.07415  0.46578  0.66531  1.0000
  C   C126      1.0  0.08715  0.61078  0.55284  1.0000
  C   C127      1.0  0.10739  0.60000  0.55325  1.0000
  C   C128      1.0  0.05874  0.50505  0.67722  1.0000
  H   H202      1.0  0.21226  0.62081  0.89080  1.0000
  C   C129      1.0  0.07727  0.61350  0.53310  1.0000
  H   H203      1.0  0.11519  0.59797  0.56837  1.0000
  H   H204      1.0  0.06161  0.62184  0.53272  1.0000
  H   H205      1.0  0.07710  0.66801  0.75156  1.0000
  H   H206      1.0  0.02053  0.51125  0.65981  1.0000
  H   H207      1.0  0.03227  0.57105  0.60711  1.0000
  C   C130      1.0  0.07726  0.40047  0.54292  1.0000
  C   C131      1.0  0.07316  0.37848  0.54580  1.0000
  C   C132      1.0  0.06839  0.36733  0.52778  1.0000
  H   H208      1.0  0.07145  0.50854  0.53762  1.0000
  H   H209      1.0  0.11683  0.52050  0.52504  1.0000
  C   C133      1.0  0.07565  0.41135  0.52226  1.0000
  H   H210      1.0  0.07440  0.36991  0.56168  1.0000
  C   C134      1.0  0.08183  0.51116  0.55091  1.0000
  C   C135      1.0  0.21760  0.65359  0.91557  1.0000
  H   H211      1.0  0.07834  0.42845  0.52001  1.0000
  H   H212      1.0  0.16321  0.38365  0.51861  1.0000
  H   H213      1.0  0.02488  0.42364  0.60557  1.0000
  C   C136      1.0  0.11754  0.46657  0.64750  1.0000
  C   C137      1.0  0.11882  0.48418  0.66024  1.0000
  C   C138      1.0  0.12053  0.50520  0.65024  1.0000
  C   C139      1.0  0.12180  0.50852  0.62741  1.0000
  C   C140      1.0  0.12043  0.49091  0.61469  1.0000
  C   C141      1.0  0.11785  0.47005  0.62473  1.0000
  H   H214      1.0  0.11863  0.48157  0.67786  1.0000
  H   H215      1.0  0.12186  0.51870  0.66012  1.0000
  H   H216      1.0  0.12162  0.49334  0.59704  1.0000
  H   H217      1.0  0.11696  0.45652  0.61478  1.0000
  N   N15       1.0  0.09132  0.53249  0.54748  1.0000
  H   H218      1.0  0.04248  0.65338  0.72497  1.0000
  C   C142      1.0  0.11112  0.66870  0.71744  1.0000
  H   H219      1.0  0.09413  0.53343  0.51221  1.0000
  C   C143      1.0  0.08736  0.60510  0.51395  1.0000
  H   H220      1.0  0.07620  0.35862  0.69256  1.0000
  C   C144      1.0  0.11778  0.59224  0.53395  1.0000
  H   H221      1.0  0.22908  0.63962  0.91923  1.0000
  H   H222      1.0  0.01941  0.48949  0.68074  1.0000
  H   H223      1.0  0.06578  0.35021  0.52992  1.0000
  H   H224      1.0  0.05068  0.46299  0.68399  1.0000
  H   H225      1.0  0.05288  0.50056  0.69446  1.0000
  C   C145      1.0  0.01046  0.55739  0.63276  1.0000
  H   H226      1.0  0.14799  0.37287  0.71515  1.0000
  H   H227      1.0  0.11035  0.37266  0.67185  1.0000
  H   H228      1.0  0.11908  0.52302  0.56514  1.0000
  H   H229      1.0  0.00849  0.60131  0.63629  1.0000
  C   C146      1.0  0.23292  0.65689  0.87813  1.0000
  H   H230      1.0  0.09625  0.53318  0.58162  1.0000
  C   C147      1.0  0.10769  0.59450  0.51432  1.0000
  H   H231      1.0  0.11701  0.42216  0.51138  1.0000
  H   H232      1.0  0.11070  0.63425  0.72543  1.0000
  H   H233      1.0  0.20286  0.65178  0.92685  1.0000
  H   H234      1.0  0.05403  0.65378  0.76252  1.0000
  H   H235      1.0  0.07659  0.50344  0.67601  1.0000
  C   C148      1.0  0.02613  0.49416  0.66382  1.0000
  H   H236      1.0  0.11267  0.54923  0.52372  1.0000
  H   H237      1.0  0.09448  0.49775  0.55124  1.0000
  H   H238      1.0  0.11190  0.55143  0.56387  1.0000
  H   H239      1.0  0.07178  0.50965  0.56675  1.0000
  H   H240      1.0  0.15224  0.39258  0.65613  1.0000
  N   N16       1.0  0.14233  0.36884  0.68175  1.0000
  C   C149      1.0  0.06792  0.37808  0.50684  1.0000
  H   H241      1.0  0.15806  0.33701  0.68420  1.0000
  H   H242      1.0  0.24422  0.64262  0.88110  1.0000
  H   H243      1.0  0.14324  0.40125  0.53204  1.0000
  N   N17       1.0  0.04982  0.49150  0.66180  1.0000
  H   H244      1.0  0.01894  0.48391  0.65256  1.0000
  C   C150      1.0  0.05640  0.46854  0.66697  1.0000
  H   H245      1.0  0.22525  0.66828  0.91974  1.0000
  C   C151      1.0  0.05802  0.49821  0.63918  1.0000
  H   H246      1.0  0.08061  0.56604  0.54505  1.0000
  C   C152      1.0  0.08204  0.34215  0.69634  1.0000
  H   H247      1.0  0.11227  0.37473  0.70059  1.0000
  H   H248      1.0  0.05176  0.48823  0.62710  1.0000
  H   H249      1.0  0.15558  0.39502  0.69609  1.0000
  H   H250      1.0  0.01185  0.61983  0.65642  1.0000
  C   C153      1.0  0.15503  0.37707  0.69820  1.0000
  H   H251      1.0  0.14305  0.36835  0.64677  1.0000
  H   H252      1.0  0.05328  0.51550  0.63483  1.0000
  H   H253      1.0  0.07870  0.34487  0.73128  1.0000
  C   C154      1.0  0.14168  0.34504  0.68521  1.0000
  C   C155      1.0  0.15215  0.37467  0.65950  1.0000
  H   H254      1.0  0.04967  0.45784  0.65586  1.0000
  H   H255      1.0  0.17186  0.37012  0.69691  1.0000
  C   C156      1.0  0.12028  0.37867  0.68402  1.0000
  H   H256      1.0  0.07586  0.49648  0.63714  1.0000
  C   C157      1.0  0.20195  0.63578  0.88767  1.0000
  H   H257      1.0  0.06409  0.54940  0.56362  1.0000
  C   C158      1.0  0.15297  0.39879  0.51625  1.0000
  H   H258      1.0  0.01398  0.62874  0.62780  1.0000
  H   H259      1.0  0.11470  0.38137  0.51889  1.0000
  H   H260      1.0  0.05414  0.52250  0.67375  1.0000
  H   H261      1.0  0.09779  0.65523  0.65946  1.0000
  H   H262      1.0  0.18659  0.63412  0.89804  1.0000
  C   C159      1.0  0.10863  0.64715  0.71281  1.0000
  H   H263      1.0  0.16898  0.36792  0.65723  1.0000
  C   C160      1.0  0.10142  0.65888  0.67564  1.0000
  H   H264      1.0  0.13357  0.58417  0.53435  1.0000
  C   C161      1.0  0.10522  0.53511  0.56523  1.0000
  C   C162      1.0  0.01637  0.56562  0.61141  1.0000
  C   C163      1.0  0.07399  0.54977  0.54767  1.0000
  N   N18       1.0  0.21274  0.65522  0.89237  1.0000
  H   H265      1.0  0.12004  0.39662  0.68131  1.0000
  H   H266      1.0  0.22992  0.65831  0.86047  1.0000
  H   H267      1.0  0.16372  0.41250  0.51297  1.0000
  C   C164      1.0  0.00812  0.42808  0.60960  1.0000
  H   H268      1.0  0.00585  0.57458  0.57931  1.0000
  H   H269      1.0  0.01266  0.35730  0.62920  1.0000
  H   H270      1.0  0.19811  0.63654  0.87025  1.0000
  H   H271      1.0  0.00343  0.38233  0.61557  1.0000
  S   S68       1.0  0.08938  0.33864  0.65157  1.0000
  H   H272      1.0  0.13417  0.36365  0.50503  1.0000
  H   H273      1.0  0.06517  0.66805  0.71399  1.0000
  H   H274      1.0  0.13355  0.34006  0.70152  1.0000
  C   C165      1.0  0.00501  0.61829  0.64053  1.0000
  H   H275      1.0  0.00547  0.38055  0.64454  1.0000
  C   C166      1.0  0.04834  0.66993  0.72136  1.0000
  H   H276      1.0  0.01725  0.66863  0.75405  1.0000
  H   H277      1.0  0.13262  0.33832  0.67266  1.0000
  H   H278      1.0  0.16663  0.82184  0.34318  1.0000
  Fe  Fe37      1.0  0.23189  0.71649  0.15158  1.0000
  S   S69       1.0  0.21762  0.74339  0.13016  1.0000
  S   S70       1.0  0.21403  0.69945  0.18100  1.0000
  H   H279      1.0  0.19972  0.98642  0.28746  1.0000
  C   C167      1.0  0.09169  0.67405  0.34899  1.0000
  C   C168      1.0  0.18111  0.87403  0.33849  1.0000
  C   C169      1.0  0.00944  0.72413  0.26108  1.0000
  C   C170      1.0  0.23815  0.82367  0.17978  1.0000
  S   S71       1.0  0.22839  0.72036  0.06912  1.0000
  Fe  Fe38      1.0  0.21218  0.86655  0.27566  1.0000
  S   S72       1.0  0.22860  0.87961  0.24384  1.0000
  S   S73       1.0  0.17707  0.85890  0.27656  1.0000
  H   H280      1.0  0.10935  0.68460  0.23138  1.0000
  H   H281      1.0  0.13150  0.67447  0.21400  1.0000
  S   S74       1.0  0.22438  0.89206  0.29517  1.0000
  Fe  Fe39      1.0  0.11297  0.74934  0.28928  1.0000
  S   S75       1.0  0.12718  0.71923  0.27446  1.0000
  S   S76       1.0  0.13913  0.76719  0.30294  1.0000
  Fe  Fe40      1.0  0.06701  0.73894  0.27997  1.0000
  S   S77       1.0  0.07865  0.70859  0.26391  1.0000
  S   S78       1.0  0.03144  0.75025  0.28570  1.0000
  Fe  Fe41      1.0  0.09942  0.70221  0.29212  1.0000
  H   H282      1.0  0.20063  0.84451  0.31347  1.0000
  Fe  Fe42      1.0  0.10560  0.72807  0.24779  1.0000
  S   S79       1.0  0.11736  0.72689  0.21186  1.0000
  S   S80       1.0  0.08659  0.73153  0.30927  1.0000
  S   S81       1.0  0.09251  0.75927  0.26148  1.0000
  C   C171      1.0  0.21542  0.98468  0.27874  1.0000
  H   H283      1.0  0.02490  0.71649  0.25614  1.0000
  S   S82       1.0  0.23875  0.79522  0.14758  1.0000
  C   C172      1.0  0.00826  0.74089  0.27522  1.0000
  H   H284      1.0  0.08145  0.67864  0.38284  1.0000
  Fe  Fe43      1.0  0.24340  0.90292  0.26387  1.0000
  C   C173      1.0  0.16771  0.83233  0.28028  1.0000
  C   C174      1.0  0.18082  0.81466  0.28758  1.0000
  C   C175      1.0  0.17197  0.79456  0.29368  1.0000
  C   C176      1.0  0.15015  0.79163  0.29175  1.0000
  C   C177      1.0  0.13731  0.80896  0.28330  1.0000
  C   C178      1.0  0.14601  0.82928  0.27787  1.0000
  H   H285      1.0  0.19759  0.81658  0.28927  1.0000
  H   H286      1.0  0.18199  0.78126  0.30030  1.0000
  H   H287      1.0  0.12043  0.80700  0.28200  1.0000
  H   H288      1.0  0.13569  0.84283  0.27231  1.0000
  H   H289      1.0  0.20527  0.82379  0.33468  1.0000
  H   H290      1.0  0.21785  0.84912  0.33426  1.0000
  H   H291      1.0  0.19558  0.88270  0.34131  1.0000
  N   N19       1.0  0.18404  0.85058  0.34446  1.0000
  C   C179      1.0  0.18725  0.70757  0.18934  1.0000
  C   C180      1.0  0.17348  0.71785  0.17457  1.0000
  C   C181      1.0  0.15209  0.72367  0.18168  1.0000
  C   C182      1.0  0.14442  0.71968  0.20368  1.0000
  C   C183      1.0  0.15831  0.70973  0.21852  1.0000
  C   C184      1.0  0.17955  0.70345  0.21131  1.0000
  H   H292      1.0  0.17919  0.72093  0.15756  1.0000
  H   H293      1.0  0.14143  0.73131  0.17008  1.0000
  H   H294      1.0  0.15266  0.70665  0.23548  1.0000
  H   H295      1.0  0.19013  0.69554  0.22283  1.0000
  C   C185      1.0  0.24321  0.96167  0.26037  1.0000
  H   H296      1.0  0.17829  0.87719  0.32082  1.0000
  H   H297      1.0  0.15027  0.84548  0.35052  1.0000
  H   H298      1.0  0.20248  0.85482  0.37159  1.0000
  C   C186      1.0  0.16461  0.83974  0.34014  1.0000
  C   C187      1.0  0.23126  0.71876  0.02433  1.0000
  H   H299      1.0  0.16082  0.84300  0.32280  1.0000
  H   H300      1.0  0.23721  0.84628  0.20494  1.0000
  H   H301      1.0  0.18997  0.82944  0.37286  1.0000
  C   C188      1.0  0.22323  0.96412  0.27224  1.0000
  H   H302      1.0  0.21352  0.95028  0.27593  1.0000
  C   C189      1.0  0.20279  0.84157  0.33119  1.0000
  H   H303      1.0  0.22344  0.70367  0.02773  1.0000
  H   H304      1.0  0.16710  0.88147  0.34814  1.0000
  H   H305      1.0  0.17404  0.85379  0.37847  1.0000
  Fe  Fe44      1.0  0.23850  0.72970  0.10201  1.0000
  S   S83       1.0  0.23852  0.84176  0.28317  1.0000
  N   N20       1.0  0.19684  0.77297  0.20776  1.0000
  C   C190      1.0  0.20967  0.75746  0.19411  1.0000
  C   C191      1.0  0.17887  0.76199  0.22024  1.0000
  C   C192      1.0  0.18818  0.79104  0.19346  1.0000
  C   C193      1.0  0.21062  0.78141  0.22315  1.0000
  H   H306      1.0  0.22383  0.76501  0.18510  1.0000
  H   H307      1.0  0.20007  0.75155  0.18160  1.0000
  H   H308      1.0  0.21571  0.74302  0.20410  1.0000
  H   H309      1.0  0.18469  0.74781  0.23072  1.0000
  H   H310      1.0  0.16912  0.77308  0.23113  1.0000
  H   H311      1.0  0.16784  0.75598  0.20909  1.0000
  H   H312      1.0  0.17889  0.80339  0.20319  1.0000
  H   H313      1.0  0.17734  0.78522  0.18198  1.0000
  H   H314      1.0  0.20126  0.79920  0.18324  1.0000
  H   H315      1.0  0.20148  0.79320  0.23372  1.0000
  H   H316      1.0  0.22434  0.78981  0.21427  1.0000
  H   H317      1.0  0.21743  0.76813  0.23412  1.0000
  H   H318      1.0  0.08936  0.69099  0.34375  1.0000
  H   H319      1.0  0.22441  0.83148  0.17231  1.0000
  C   C194      1.0  0.23587  0.73059  0.04186  1.0000
  Fe  Fe45      1.0  0.24651  0.76101  0.13696  1.0000
  C   C195      1.0  0.18777  0.84701  0.36791  1.0000
  H   H320      1.0  0.12948  0.67586  0.26381  1.0000
  C   C196      1.0  0.25089  0.75784  0.01526  1.0000
  C   C197      1.0  0.24596  0.75008  0.03720  1.0000
  H   H321      1.0  0.14594  0.67483  0.45787  1.0000
  H   H322      1.0  0.24954  0.75941  0.05048  1.0000
  C   C198      1.0  0.24791  0.00042  0.26261  1.0000
  C   C199      1.0  0.24845  0.80513  0.17095  1.0000
  C   C200      1.0  0.24545  0.83216  0.19824  1.0000
  H   H323      1.0  0.11816  0.68234  0.45461  1.0000
  S   S84       1.0  0.25013  0.70081  0.12320  1.0000
  C   C201      1.0  0.22765  0.00298  0.27398  1.0000
  H   H324      1.0  0.20317  0.79473  0.77023  1.0000
  Fe  Fe46      1.0  0.22365  0.86698  0.75113  1.0000
  S   S85       1.0  0.21006  0.88607  0.77922  1.0000
  S   S86       1.0  0.20724  0.84135  0.73508  1.0000
  Fe  Fe47      1.0  0.22988  0.91334  0.76346  1.0000
  S   S87       1.0  0.21778  0.94881  0.75778  1.0000
  N   N21       1.0  0.18602  0.77265  0.96415  1.0000
  C   C202      1.0  0.24715  0.83319  0.83741  1.0000
  H   H325      1.0  0.20625  0.68963  0.89133  1.0000
  H   H326      1.0  0.05202  0.78839  0.80475  1.0000
  H   H327      1.0  0.01904  0.78994  0.77114  1.0000
  H   H328      1.0  0.05544  0.71291  0.75044  1.0000
  Fe  Fe48      1.0  0.21879  0.72976  0.90474  1.0000
  S   S88       1.0  0.23405  0.76043  0.91012  1.0000
  S   S89       1.0  0.18375  0.73169  0.89748  1.0000
  H   H329      1.0  0.19171  0.76737  0.83587  1.0000
  H   H330      1.0  0.04608  0.71331  0.72356  1.0000
  H   H331      1.0  0.18319  0.67426  0.89873  1.0000
  H   H332      1.0  0.07549  0.78657  0.78592  1.0000
  H   H333      1.0  0.03870  0.67843  0.70860  1.0000
  S   S90       1.0  0.23141  0.71192  0.93468  1.0000
  Fe  Fe49      1.0  0.08035  0.73233  0.78010  1.0000
  S   S91       1.0  0.10401  0.70471  0.77173  1.0000
  S   S92       1.0  0.04627  0.72609  0.79464  1.0000
  Fe  Fe50      1.0  0.11272  0.76649  0.76460  1.0000
  S   S93       1.0  0.13806  0.74175  0.75362  1.0000
  S   S94       1.0  0.11679  0.80246  0.76601  1.0000
  Fe  Fe51      1.0  0.11150  0.72488  0.74048  1.0000
  S   S95       1.0  0.11148  0.71287  0.70639  1.0000
  Fe  Fe52      1.0  0.12868  0.72367  0.78582  1.0000
  S   S96       1.0  0.15749  0.71060  0.80391  1.0000
  S   S97       1.0  0.08680  0.75172  0.74832  1.0000
  S   S98       1.0  0.10434  0.74912  0.79737  1.0000
  C   C203      1.0  0.02183  0.73340  0.78244  1.0000
  H   H334      1.0  0.03624  0.74955  0.75309  1.0000
  H   H335      1.0  0.21679  0.78204  0.94945  1.0000
  C   C204      1.0  0.20380  0.77084  0.82186  1.0000
  C   C205      1.0  0.17684  0.72798  0.87064  1.0000
  C   C206      1.0  0.15541  0.73153  0.86553  1.0000
  C   C207      1.0  0.14928  0.72720  0.84479  1.0000
  C   C208      1.0  0.16451  0.71878  0.82920  1.0000
  C   C209      1.0  0.18599  0.71567  0.83417  1.0000
  C   C210      1.0  0.19219  0.72059  0.85460  1.0000
  H   H336      1.0  0.21065  0.99391  0.74531  1.0000
  H   H337      1.0  0.13266  0.72957  0.84119  1.0000
  H   H338      1.0  0.19788  0.70923  0.82217  1.0000
  H   H339      1.0  0.20877  0.71806  0.85806  1.0000
  C   C211      1.0  0.18320  0.80281  0.80933  1.0000
  H   H340      1.0  0.21193  0.75509  0.81758  1.0000
  H   H341      1.0  0.23299  0.71695  0.98915  1.0000
  H   H342      1.0  0.16948  0.77616  0.78153  1.0000
  C   C212      1.0  0.02447  0.68456  0.75034  1.0000
  H   H343      1.0  0.02313  0.69288  0.76587  1.0000
  H   H344      1.0  0.10223  0.69332  0.66755  1.0000
  H   H345      1.0  0.16454  0.75843  0.94443  1.0000
  C   C213      1.0  0.18217  0.83078  0.74446  1.0000
  C   C214      1.0  0.17691  0.81114  0.73688  1.0000
  C   C215      1.0  0.15715  0.80214  0.74372  1.0000
  C   C216      1.0  0.14217  0.81296  0.75784  1.0000
  C   C217      1.0  0.14733  0.83270  0.76533  1.0000
  C   C218      1.0  0.16736  0.84146  0.75890  1.0000
  H   H346      1.0  0.18816  0.80287  0.72553  1.0000
  H   H347      1.0  0.15330  0.78711  0.73755  1.0000
  H   H348      1.0  0.13581  0.84127  0.77615  1.0000
  H   H349      1.0  0.17115  0.85669  0.76470  1.0000
  H   H350      1.0  0.21608  0.78077  0.82774  1.0000
  Fe  Fe53      1.0  0.24015  0.87366  0.79462  1.0000
  H   H351      1.0  0.05018  0.81572  0.73886  1.0000
  H   H352      1.0  0.05279  0.77116  0.78262  1.0000
  S   S99       1.0  0.24101  0.89507  0.73369  1.0000
  C   C219      1.0  0.25054  0.98980  0.79030  1.0000
  C   C220      1.0  0.10395  0.68045  0.68027  1.0000
  H   H353      1.0  0.14339  0.73729  0.87777  1.0000
  C   C221      1.0  0.24713  0.82616  0.85965  1.0000
  C   C222      1.0  0.02143  0.74475  0.76191  1.0000
  C   C223      1.0  0.17776  0.76978  0.94278  1.0000
  C   C224      1.0  0.05612  0.82569  0.77951  1.0000
  H   H354      1.0  0.17539  0.81159  0.79540  1.0000
  C   C225      1.0  0.21025  0.78613  0.78471  1.0000
  H   H355      1.0  0.22274  0.79645  0.78952  1.0000
  C   C226      1.0  0.22869  0.97212  0.76672  1.0000
  H   H356      1.0  0.07400  0.82586  0.77758  1.0000
  H   H357      1.0  0.18468  0.75233  0.79093  1.0000
  H   H358      1.0  0.17056  0.80038  0.82302  1.0000
  N   N22       1.0  0.04875  0.80509  0.77309  1.0000
  H   H359      1.0  0.07419  0.80159  0.74753  1.0000
  C   C227      1.0  0.17743  0.76827  0.79581  1.0000
  H   H360      1.0  0.01878  0.80757  0.79293  1.0000
  H   H361      1.0  0.19500  0.81366  0.81463  1.0000
  H   H362      1.0  0.21839  0.77079  0.77926  1.0000
  H   H363      1.0  0.01440  0.69440  0.73877  1.0000
  N   N23       1.0  0.04706  0.68204  0.74130  1.0000
  H   H364      1.0  0.05095  0.82832  0.79693  1.0000
  C   C228      1.0  0.02504  0.80540  0.77567  1.0000
  C   C229      1.0  0.05764  0.78702  0.78721  1.0000
  Fe  Fe54      1.0  0.24923  0.74153  0.93826  1.0000
  N   N24       1.0  0.19367  0.78199  0.80293  1.0000
  C   C230      1.0  0.24327  0.97078  0.78285  1.0000
  C   C231      1.0  0.16850  0.78137  0.97923  1.0000
  H   H365      1.0  0.07245  0.70226  0.72856  1.0000
  C   C232      1.0  0.05557  0.70360  0.73570  1.0000
  H   H366      1.0  0.16173  0.79728  0.97259  1.0000
  H   H367      1.0  0.17160  0.78540  0.93494  1.0000
  H   H368      1.0  0.16459  0.76488  0.80911  1.0000
  H   H369      1.0  0.21067  0.78974  0.97674  1.0000
  H   H370      1.0  0.05090  0.78691  0.74446  1.0000
  C   C233      1.0  0.05631  0.80220  0.74997  1.0000
  C   C234      1.0  0.22187  0.99271  0.75784  1.0000
  S   S100      1.0  0.23922  0.86040  0.83008  1.0000
  H   H371      1.0  0.04973  0.83974  0.76923  1.0000
  C   C235      1.0  0.20346  0.78788  0.96107  1.0000
  S   S101      1.0  0.24576  0.71730  0.88209  1.0000
  C   C236      1.0  0.24622  0.74604  0.99773  1.0000
  H   H372      1.0  0.15515  0.77019  0.98208  1.0000
  H   H373      1.0  0.20052  0.75310  0.98987  1.0000
  C   C237      1.0  0.10880  0.68547  0.70118  1.0000
  H   H374      1.0  0.19771  0.80418  0.95447  1.0000
  H   H375      1.0  0.17430  0.78378  0.99547  1.0000
  H   H376      1.0  0.24162  0.83725  0.87198  1.0000
  H   H377      1.0  0.19050  0.76290  0.93113  1.0000
  C   C238      1.0  0.19441  0.75155  0.97360  1.0000
  H   H378      1.0  0.19432  0.67642  0.87078  1.0000
  H   H379      1.0  0.01771  0.81871  0.76512  1.0000
  H   H380      1.0  0.18188  0.73945  0.97579  1.0000
  C   C239      1.0  0.23664  0.72626  0.00241  1.0000
  H   H381      1.0  0.24860  0.95509  0.78992  1.0000
  H   H382      1.0  0.00238  0.71828  0.80932  1.0000
  H   H383      1.0  0.20803  0.74479  0.96290  1.0000
  H   H384      1.0  0.11522  0.67227  0.73347  1.0000
  H   H385      1.0  0.05945  0.67901  0.77303  1.0000
  C   C240      1.0  0.19850  0.67467  0.88810  1.0000
  S   S102      1.0  0.25133  0.75736  0.97041  1.0000
  H   H386      1.0  0.00160  0.75876  0.73684  1.0000
  C   C241      1.0  0.00231  0.72713  0.79347  1.0000
  C   C242      1.0  0.00175  0.74991  0.75269  1.0000
  C   C243      1.0  0.05996  0.67015  0.75784  1.0000
  H   H387      1.0  0.24153  0.67130  0.88134  1.0000
  Fe  Fe55      1.0  0.41757  0.07491  0.40995  1.0000
  S   S103      1.0  0.40407  0.10885  0.41337  1.0000
  S   S104      1.0  0.45092  0.06519  0.39563  1.0000
  Fe  Fe56      1.0  0.37678  0.05576  0.43104  1.0000
  S   S105      1.0  0.35996  0.08805  0.43667  1.0000
  C   C244      1.0  0.25374  0.16555  0.17570  1.0000
  Fe  Fe57      1.0  0.37350  0.09724  0.40231  1.0000
  S   S106      1.0  0.35479  0.11746  0.37697  1.0000
  Fe  Fe58      1.0  0.39177  0.09640  0.44718  1.0000
  S   S107      1.0  0.39867  0.11353  0.47666  1.0000
  S   S108      1.0  0.38819  0.06420  0.39602  1.0000
  S   S109      1.0  0.40739  0.06326  0.44436  1.0000
  S   S110      1.0  0.27005  0.23684  0.11897  1.0000
  S   S111      1.0  0.26849  0.29769  0.11360  1.0000
  C   C245      1.0  0.31993  0.33012  0.12596  1.0000
  H   H388      1.0  0.39993  0.08010  0.33027  1.0000
  S   S112      1.0  0.29874  0.07375  0.31238  1.0000
  H   H389      1.0  0.43514  0.08070  0.34640  1.0000
  H   H390      1.0  0.47635  0.07703  0.45536  1.0000
  H   H391      1.0  0.42976  0.09908  0.30965  1.0000
  S   S113      1.0  0.26471  0.06736  0.26346  1.0000
  C   C246      1.0  0.32108  0.32608  0.14852  1.0000
  H   H392      1.0  0.41259  0.12330  0.30735  1.0000
  H   H393      1.0  0.29295  0.26458  0.07016  1.0000
  H   H394      1.0  0.30281  0.32472  0.09808  1.0000
  H   H395      1.0  0.48902  0.06975  0.48019  1.0000
  H   H396      1.0  0.42187  0.09183  0.37024  1.0000
  H   H397      1.0  0.43419  0.08961  0.49985  1.0000
  Fe  Fe59      1.0  0.25372  0.22282  0.15038  1.0000
  C   C247      1.0  0.33859  0.10529  0.35961  1.0000
  C   C248      1.0  0.33696  0.08288  0.36066  1.0000
  C   C249      1.0  0.32456  0.07361  0.34615  1.0000
  C   C250      1.0  0.31348  0.08658  0.33059  1.0000
  C   C251      1.0  0.31512  0.10902  0.32951  1.0000
  C   C252      1.0  0.32760  0.11832  0.34399  1.0000
  H   H398      1.0  0.34529  0.07266  0.37262  1.0000
  H   H399      1.0  0.32353  0.05623  0.34700  1.0000
  H   H400      1.0  0.30728  0.11913  0.31712  1.0000
  H   H401      1.0  0.32898  0.13566  0.34291  1.0000
  C   C253      1.0  0.47274  0.07755  0.40499  1.0000
  C   C254      1.0  0.47066  0.09887  0.41108  1.0000
  H   H402      1.0  0.40363  0.33217  0.03578  1.0000
  H   H403      1.0  0.45544  0.10798  0.41030  1.0000
  S   S114      1.0  0.27062  0.20538  0.17835  1.0000
  H   H404      1.0  0.38710  0.09070  0.35466  1.0000
  H   H405      1.0  0.39373  0.13804  0.34126  1.0000
  C   C255      1.0  0.30365  0.32138  0.11552  1.0000
  C   C256      1.0  0.28855  0.30836  0.12748  1.0000
  C   C257      1.0  0.28958  0.30445  0.15008  1.0000
  H   H406      1.0  0.26356  0.26252  0.02033  1.0000
  C   C258      1.0  0.49269  0.06604  0.40573  1.0000
  H   H407      1.0  0.27764  0.29494  0.15948  1.0000
  H   H408      1.0  0.30642  0.31040  0.17808  1.0000
  H   H409      1.0  0.46866  0.12475  0.46143  1.0000
  C   C259      1.0  0.25381  0.27792  0.05961  1.0000
  H   H410      1.0  0.44314  0.12361  0.47722  1.0000
  H   H411      1.0  0.41971  0.13928  0.35161  1.0000
  H   H412      1.0  0.25772  0.01418  0.25906  1.0000
  C   C260      1.0  0.26388  0.17900  0.18837  1.0000
  C   C261      1.0  0.47314  0.10443  0.50150  1.0000
  C   C262      1.0  0.27271  0.30163  0.03267  1.0000
  C   C263      1.0  0.42397  0.11395  0.31792  1.0000
  C   C264      1.0  0.48850  0.10867  0.41764  1.0000
  N   N25       1.0  0.27399  0.28061  0.04562  1.0000
  H   H413      1.0  0.39890  0.12514  0.36736  1.0000
  C   C265      1.0  0.40623  0.12867  0.35043  1.0000
  H   H414      1.0  0.26864  0.14435  0.23390  1.0000
  H   H415      1.0  0.45343  0.06700  0.50059  1.0000
  C   C266      1.0  0.38927  0.10107  0.50213  1.0000
  H   H416      1.0  0.25300  0.15200  0.36593  1.0000
  Fe  Fe60      1.0  0.26985  0.08489  0.29333  1.0000
  C   C267      1.0  0.39505  0.09533  0.33825  1.0000
  C   C268      1.0  0.29211  0.27995  0.05960  1.0000
  C   C269      1.0  0.44742  0.08105  0.49009  1.0000
  H   H417      1.0  0.48615  0.11562  0.49625  1.0000
  H   H418      1.0  0.48691  0.12529  0.42198  1.0000
  C   C270      1.0  0.42922  0.09615  0.35350  1.0000
  H   H419      1.0  0.36937  0.07935  0.48847  1.0000
  C   C271      1.0  0.26077  0.12247  0.33621  1.0000
  H   H420      1.0  0.27974  0.09670  0.36675  1.0000
  H   H421      1.0  0.43807  0.12387  0.31869  1.0000
  N   N26       1.0  0.41362  0.10853  0.34001  1.0000
  C   C272      1.0  0.27727  0.26290  0.03069  1.0000
  H   H422      1.0  0.28318  0.12439  0.37125  1.0000
  H   H423      1.0  0.27270  0.13516  0.33408  1.0000
  N   N27       1.0  0.46467  0.09570  0.48244  1.0000
  N   N28       1.0  0.32175  0.24427  0.15916  1.0000
  C   C273      1.0  0.32018  0.22174  0.15345  1.0000
  C   C274      1.0  0.32371  0.25875  0.13893  1.0000
  C   C275      1.0  0.34084  0.24563  0.17145  1.0000
  C   C276      1.0  0.30229  0.25094  0.17292  1.0000
  H   H424      1.0  0.31843  0.21040  0.16837  1.0000
  H   H425      1.0  0.33456  0.21602  0.14312  1.0000
  H   H426      1.0  0.30587  0.22008  0.14429  1.0000
  H   H427      1.0  0.33757  0.25351  0.12763  1.0000
  H   H428      1.0  0.30900  0.25922  0.12989  1.0000
  H   H429      1.0  0.32616  0.27567  0.14259  1.0000
  H   H430      1.0  0.35584  0.24070  0.16156  1.0000
  H   H431      1.0  0.33985  0.23495  0.18685  1.0000
  H   H432      1.0  0.34250  0.26246  0.17601  1.0000
  H   H433      1.0  0.30318  0.26756  0.17820  1.0000
  H   H434      1.0  0.29987  0.23984  0.18793  1.0000
  H   H435      1.0  0.28760  0.25067  0.16396  1.0000
  H   H436      1.0  0.44344  0.10553  0.35543  1.0000
  C   C277      1.0  0.30578  0.31333  0.16057  1.0000
  C   C278      1.0  0.48214  0.08361  0.47002  1.0000
  S   S115      1.0  0.36149  0.02466  0.44183  1.0000
  H   H437      1.0  0.40236  0.02294  0.41639  1.0000
  H   H438      1.0  0.38258  0.10434  0.32874  1.0000
  H   H439      1.0  0.28777  0.30429  0.02205  1.0000
  H   H440      1.0  0.49554  0.09415  0.46418  1.0000
  C   C279      1.0  0.37506  0.08445  0.50330  1.0000
  H   H441      1.0  0.29210  0.26459  0.01950  1.0000
  C   C280      1.0  0.26915  0.17125  0.20941  1.0000
  C   C281      1.0  0.25477  0.13652  0.20485  1.0000
  C   C282      1.0  0.45594  0.11375  0.46816  1.0000
  H   H442      1.0  0.27870  0.24683  0.03999  1.0000
  H   H443      1.0  0.30771  0.28133  0.04963  1.0000
  H   H444      1.0  0.26406  0.20440  0.02508  1.0000
  C   C283      1.0  0.26436  0.15020  0.21775  1.0000
  H   H445      1.0  0.25926  0.30251  0.02184  1.0000
  H   H446      1.0  0.27704  0.18153  0.21930  1.0000
  H   H447      1.0  0.49444  0.04957  0.40095  1.0000
  H   H448      1.0  0.29036  0.29344  0.07071  1.0000
  C   C284      1.0  0.39801  0.00664  0.42133  1.0000
  H   H449      1.0  0.25409  0.26198  0.06918  1.0000
  S   S116      1.0  0.25791  0.11726  0.27843  1.0000
  H   H450      1.0  0.44857  0.10773  0.45408  1.0000
  H   H451      1.0  0.44019  0.07473  0.47609  1.0000
  H   H452      1.0  0.26999  0.31530  0.04352  1.0000
  H   H453      1.0  0.26856  0.10753  0.32948  1.0000
  H   H454      1.0  0.26584  0.10856  0.39014  1.0000
  C   C285      1.0  0.27116  0.11176  0.37250  1.0000
  N   N29       1.0  0.25284  0.11848  0.35941  1.0000
  S   S117      1.0  0.34143  0.33657  0.16217  1.0000
  Fe  Fe61      1.0  0.40322  0.04543  0.63454  1.0000
  S   S118      1.0  0.41487  0.07358  0.64976  1.0000
  H   H455      1.0  0.32369  0.06198  0.72050  1.0000
  Fe  Fe62      1.0  0.38342  0.07335  0.59812  1.0000
  S   S119      1.0  0.39325  0.10425  0.61032  1.0000
  S   S120      1.0  0.36613  0.06794  0.56838  1.0000
  Fe  Fe63      1.0  0.42477  0.08572  0.61537  1.0000
  S   S121      1.0  0.45768  0.09672  0.60304  1.0000
  Fe  Fe64      1.0  0.38231  0.08935  0.64386  1.0000
  S   S122      1.0  0.36523  0.10670  0.67217  1.0000
  S   S123      1.0  0.41561  0.05611  0.60058  1.0000
  S   S124      1.0  0.36995  0.05997  0.63122  1.0000
  Fe  Fe65      1.0  0.27111  0.25157  0.90959  1.0000
  S   S125      1.0  0.30629  0.25955  0.90754  1.0000
  C   C286      1.0  0.44215  0.30593  0.95880  1.0000
  S   S126      1.0  0.26355  0.22262  0.93273  1.0000
  H   H456      1.0  0.27174  0.04036  0.74332  1.0000
  C   C287      1.0  0.36236  0.01198  0.56785  1.0000
  S   S127      1.0  0.41292  0.01172  0.64682  1.0000
  S   S128      1.0  0.27177  0.09083  0.76849  1.0000
  S   S129      1.0  0.26675  0.09590  0.70305  1.0000
  H   H457      1.0  0.46799  0.30944  0.92173  1.0000
  N   N30       1.0  0.46183  0.31812  0.95508  1.0000
  C   C288      1.0  0.31009  0.32528  0.90279  1.0000
  H   H458      1.0  0.28943  0.02298  0.69930  1.0000
  H   H459      1.0  0.29740  0.06876  0.73277  1.0000
  H   H460      1.0  0.47751  0.30004  0.98095  1.0000
  C   C289      1.0  0.33796  0.10301  0.68073  1.0000
  C   C290      1.0  0.32460  0.09314  0.66782  1.0000
  C   C291      1.0  0.30276  0.09123  0.67477  1.0000
  C   C292      1.0  0.29421  0.09879  0.69485  1.0000
  C   C293      1.0  0.30761  0.10832  0.70795  1.0000
  C   C294      1.0  0.32937  0.11054  0.70083  1.0000
  H   H461      1.0  0.33101  0.08748  0.65222  1.0000
  H   H462      1.0  0.29248  0.08391  0.66449  1.0000
  H   H463      1.0  0.30119  0.11432  0.72340  1.0000
  H   H464      1.0  0.33961  0.11828  0.71084  1.0000
  C   C295      1.0  0.37516  0.08103  0.54310  1.0000
  C   C296      1.0  0.38970  0.09738  0.54191  1.0000
  H   H465      1.0  0.45292  0.33467  0.92485  1.0000
  H   H466      1.0  0.38816  0.03513  0.53875  1.0000
  H   H467      1.0  0.47776  0.03875  0.62210  1.0000
  C   C297      1.0  0.36778  0.07469  0.52375  1.0000
  H   H468      1.0  0.39540  0.10242  0.55676  1.0000
  H   H469      1.0  0.45420  0.33429  0.98477  1.0000
  H   H470      1.0  0.36668  0.00834  0.52442  1.0000
  H   H471      1.0  0.35642  0.06216  0.52456  1.0000
  C   C298      1.0  0.47920  0.08703  0.61831  1.0000
  C   C299      1.0  0.47609  0.08178  0.64085  1.0000
  H   H472      1.0  0.40741  0.12051  0.52070  1.0000
  H   H473      1.0  0.46017  0.08319  0.64909  1.0000
  C   C300      1.0  0.39649  0.10759  0.52149  1.0000
  C   C301      1.0  0.34464  0.30952  0.91210  1.0000
  H   H474      1.0  0.30767  0.04416  0.69198  1.0000
  C   C302      1.0  0.33662  0.28873  0.91245  1.0000
  C   C303      1.0  0.31526  0.28610  0.90815  1.0000
  C   C304      1.0  0.30194  0.30452  0.90360  1.0000
  H   H475      1.0  0.48118  0.33278  0.92799  1.0000
  H   H476      1.0  0.34708  0.27461  0.91592  1.0000
  H   H477      1.0  0.28554  0.30275  0.90009  1.0000
  H   H478      1.0  0.44366  0.29086  0.94995  1.0000
  N   N31       1.0  0.31538  0.19329  0.88147  1.0000
  C   C305      1.0  0.30181  0.20801  0.86777  1.0000
  C   C306      1.0  0.33781  0.19974  0.87802  1.0000
  C   C307      1.0  0.31405  0.17086  0.87534  1.0000
  C   C308      1.0  0.30771  0.19469  0.90477  1.0000
  H   H479      1.0  0.28484  0.20342  0.86992  1.0000
  H   H480      1.0  0.30711  0.20751  0.85005  1.0000
  H   H481      1.0  0.30218  0.22509  0.87214  1.0000
  H   H482      1.0  0.34855  0.18903  0.88815  1.0000
  H   H483      1.0  0.34409  0.19902  0.86057  1.0000
  H   H484      1.0  0.33909  0.21666  0.88257  1.0000
  H   H485      1.0  0.29722  0.16566  0.87792  1.0000
  H   H486      1.0  0.32409  0.15924  0.88532  1.0000
  H   H487      1.0  0.31940  0.16925  0.85776  1.0000
  H   H488      1.0  0.31765  0.18396  0.91568  1.0000
  H   H489      1.0  0.29086  0.18978  0.90797  1.0000
  H   H490      1.0  0.30812  0.21151  0.90986  1.0000
  C   C309      1.0  0.33147  0.32790  0.90697  1.0000
  C   C310      1.0  0.50002  0.08566  0.60792  1.0000
  H   H491      1.0  0.32755  0.01610  0.74269  1.0000
  H   H492      1.0  0.49756  0.14454  0.61405  1.0000
  H   H493      1.0  0.47986  0.09128  0.51267  1.0000
  H   H494      1.0  0.28124  0.05053  0.70417  1.0000
  C   C311      1.0  0.28557  0.02820  0.74271  1.0000
  C   C312      1.0  0.48019  0.30463  0.96311  1.0000
  H   H495      1.0  0.29100  0.02585  0.75957  1.0000
  C   C313      1.0  0.25342  0.15580  0.82512  1.0000
  H   H496      1.0  0.33450  0.02360  0.71425  1.0000
  H   H497      1.0  0.45729  0.03688  0.64440  1.0000
  C   C314      1.0  0.25247  0.17784  0.82914  1.0000
  H   H498      1.0  0.46031  0.11363  0.51125  1.0000
  H   H499      1.0  0.42799  0.31578  0.95312  1.0000
  H   H500      1.0  0.40048  0.02924  0.56382  1.0000
  C   C315      1.0  0.32105  0.01873  0.72634  1.0000
  C   C316      1.0  0.31062  0.05597  0.73249  1.0000
  C   C317      1.0  0.39608  0.02191  0.54893  1.0000
  H   H501      1.0  0.31681  0.05439  0.74900  1.0000
  H   H502      1.0  0.48291  0.28948  0.95443  1.0000
  S   S130      1.0  0.25586  0.23908  0.88144  1.0000
  N   N32       1.0  0.30306  0.03528  0.72652  1.0000
  H   H503      1.0  0.27938  0.01261  0.73883  1.0000
  H   H504      1.0  0.49531  0.31342  0.96047  1.0000
  H   H505      1.0  0.36114  0.31128  0.91523  1.0000
  C   C318      1.0  0.46743  0.02731  0.63236  1.0000
  H   H506      1.0  0.37125  0.01539  0.62941  1.0000
  H   H507      1.0  0.36662  0.01897  0.58299  1.0000
  C   C319      1.0  0.29500  0.03832  0.70452  1.0000
  C   C320      1.0  0.46617  0.32397  0.93140  1.0000
  H   H508      1.0  0.49129  0.07200  0.67049  1.0000
  S   S131      1.0  0.25729  0.14855  0.79765  1.0000
  H   H509      1.0  0.45628  0.02084  0.62162  1.0000
  C   C321      1.0  0.49465  0.01906  0.65776  1.0000
  C   C322      1.0  0.49375  0.07558  0.65297  1.0000
  H   H510      1.0  0.43826  0.30145  0.97653  1.0000
  H   H511      1.0  0.35328  0.02506  0.55852  1.0000
  H   H512      1.0  0.25311  0.12333  0.84004  1.0000
  S   S132      1.0  0.25235  0.03389  0.79221  1.0000
  C   C323      1.0  0.25229  0.14035  0.84290  1.0000
  H   H513      1.0  0.49095  0.14612  0.64301  1.0000
  Fe  Fe66      1.0  0.25398  0.09812  0.73844  1.0000
  H   H514      1.0  0.48536  0.02891  0.67011  1.0000
  N   N33       1.0  0.48036  0.00972  0.64346  1.0000
  H   H515      1.0  0.25176  0.21727  0.98871  1.0000
  H   H516      1.0  0.41113  0.01643  0.53953  1.0000
  H   H517      1.0  0.25338  0.18990  0.81548  1.0000
  H   H518      1.0  0.50082  0.12110  0.63249  1.0000
  H   H519      1.0  0.45536  0.00388  0.66915  1.0000
  N   N34       1.0  0.38172  0.00398  0.55474  1.0000
  Fe  Fe67      1.0  0.37893  0.38542  0.10154  1.0000
  S   S133      1.0  0.38658  0.35091  0.11307  1.0000
  S   S134      1.0  0.37215  0.39834  0.06763  1.0000
  Fe  Fe68      1.0  0.38403  0.40248  0.14556  1.0000
  S   S135      1.0  0.39261  0.36935  0.16085  1.0000
  S   S136      1.0  0.38171  0.43218  0.16488  1.0000
  Fe  Fe69      1.0  0.41292  0.36476  0.12945  1.0000
  H   H520      1.0  0.49884  0.61178  0.09608  1.0000
  Fe  Fe70      1.0  0.36544  0.35850  0.14322  1.0000
  H   H521      1.0  0.34326  0.53450  0.05560  1.0000
  S   S137      1.0  0.40664  0.39872  0.11573  1.0000
  S   S138      1.0  0.35552  0.39206  0.13023  1.0000
  Fe  Fe71      1.0  0.39722  0.55238  0.11436  1.0000
  S   S139      1.0  0.39319  0.56750  0.14663  1.0000
  S   S140      1.0  0.39263  0.51876  0.10414  1.0000
  Fe  Fe72      1.0  0.40986  0.59463  0.08968  1.0000
  S   S141      1.0  0.40721  0.61343  0.11967  1.0000
  S   S142      1.0  0.42043  0.60773  0.05572  1.0000
  Fe  Fe73      1.0  0.42379  0.58369  0.13511  1.0000
  S   S143      1.0  0.45015  0.58510  0.15783  1.0000
  Fe  Fe74      1.0  0.37684  0.59608  0.12853  1.0000
  S   S144      1.0  0.34520  0.61100  0.14304  1.0000
  S   S145      1.0  0.42903  0.56642  0.10427  1.0000
  S   S146      1.0  0.37833  0.57950  0.09724  1.0000
  C   C324      1.0  0.33598  0.63809  0.13658  1.0000
  H   H522      1.0  0.37309  0.59544  0.20634  1.0000
  H   H523      1.0  0.46042  0.37555  0.02861  1.0000
  C   C325      1.0  0.31526  0.64519  0.14461  1.0000
  H   H524      1.0  0.36504  0.64757  0.11800  1.0000
  H   H525      1.0  0.31629  0.41407  0.21698  1.0000
  H   H526      1.0  0.30502  0.63391  0.15411  1.0000
  H   H527      1.0  0.42562  0.39351  0.04050  1.0000
  C   C326      1.0  0.38473  0.45645  0.14831  1.0000
  C   C327      1.0  0.38514  0.45635  0.12556  1.0000
  C   C328      1.0  0.38765  0.47560  0.11238  1.0000
  C   C329      1.0  0.38968  0.49519  0.12178  1.0000
  C   C330      1.0  0.38916  0.49543  0.14457  1.0000
  C   C331      1.0  0.38665  0.47605  0.15783  1.0000
  H   H528      1.0  0.38336  0.44144  0.11807  1.0000
  H   H529      1.0  0.38803  0.47524  0.09481  1.0000
  H   H530      1.0  0.39068  0.51048  0.15195  1.0000
  H   H531      1.0  0.38631  0.47623  0.17544  1.0000
  C   C332      1.0  0.47736  0.59973  0.12295  1.0000
  C   C333      1.0  0.47533  0.59192  0.14492  1.0000
  H   H532      1.0  0.41885  0.62833  0.18296  1.0000
  H   H533      1.0  0.46337  0.60163  0.11365  1.0000
  H   H534      1.0  0.34272  0.52161  0.03036  1.0000
  C   C334      1.0  0.46779  0.36288  0.13196  1.0000
  H   H535      1.0  0.42879  0.58767  0.01510  1.0000
  H   H536      1.0  0.31590  0.37774  0.16064  1.0000
  C   C335      1.0  0.48226  0.38850  0.15400  1.0000
  C   C336      1.0  0.46459  0.37849  0.14734  1.0000
  H   H537      1.0  0.36224  0.64711  0.17421  1.0000
  H   H538      1.0  0.44857  0.38250  0.15448  1.0000
  C   C337      1.0  0.38064  0.39098  0.02458  1.0000
  C   C338      1.0  0.38132  0.38219  0.04616  1.0000
  C   C339      1.0  0.38977  0.36102  0.05020  1.0000
  H   H539      1.0  0.37422  0.40739  0.02137  1.0000
  H   H540      1.0  0.39024  0.35408  0.06676  1.0000
  H   H541      1.0  0.29238  0.39374  0.16950  1.0000
  C   C340      1.0  0.34909  0.65282  0.12436  1.0000
  C   C341      1.0  0.40308  0.59899  0.03771  1.0000
  C   C342      1.0  0.38079  0.60075  0.04242  1.0000
  C   C343      1.0  0.36717  0.59329  0.02795  1.0000
  H   H542      1.0  0.30490  0.66669  0.03762  1.0000
  H   H543      1.0  0.37404  0.60807  0.05708  1.0000
  H   H544      1.0  0.47976  0.40019  0.16630  1.0000
  C   C344      1.0  0.31063  0.41343  0.20036  1.0000
  C   C345      1.0  0.31011  0.37439  0.20464  1.0000
  H   H545      1.0  0.48080  0.37013  0.04753  1.0000
  H   H546      1.0  0.42036  0.40119  0.06799  1.0000
  H   H547      1.0  0.34996  0.59457  0.03160  1.0000
  C   C346      1.0  0.38349  0.63593  0.21037  1.0000
  N   N35       1.0  0.31819  0.39301  0.19058  1.0000
  C   C347      1.0  0.35193  0.53241  0.03923  1.0000
  C   C348      1.0  0.39652  0.35744  0.01106  1.0000
  C   C349      1.0  0.46735  0.38169  0.04289  1.0000
  N   N36       1.0  0.37421  0.52367  0.04125  1.0000
  H   H548      1.0  0.41190  0.60357  0.19835  1.0000
  H   H549      1.0  0.39052  0.49583  0.05658  1.0000
  H   H550      1.0  0.47461  0.38169  0.08497  1.0000
  C   C350      1.0  0.40696  0.61559  0.18510  1.0000
  H   H551      1.0  0.42920  0.36415  0.08177  1.0000
  C   C351      1.0  0.30761  0.66678  0.14041  1.0000
  H   H552      1.0  0.49116  0.34588  0.11076  1.0000
  H   H553      1.0  0.43556  0.35552  0.05467  1.0000
  S   S147      1.0  0.44627  0.34919  0.12394  1.0000
  H   H554      1.0  0.37729  0.54328  0.06801  1.0000
  C   C352      1.0  0.48860  0.35786  0.12275  1.0000
  H   H555      1.0  0.46669  0.40887  0.07562  1.0000
  H   H556      1.0  0.31683  0.42770  0.19018  1.0000
  C   C353      1.0  0.34189  0.39140  0.18860  1.0000
  H   H557      1.0  0.34859  0.39202  0.20471  1.0000
  H   H558      1.0  0.34852  0.40490  0.17767  1.0000
  H   H559      1.0  0.34820  0.37602  0.18167  1.0000
  H   H560      1.0  0.31557  0.35879  0.19750  1.0000
  H   H561      1.0  0.31602  0.37386  0.22125  1.0000
  H   H562      1.0  0.29280  0.41539  0.20189  1.0000
  N   N37       1.0  0.38485  0.62477  0.18985  1.0000
  H   H563      1.0  0.45490  0.35115  0.07482  1.0000
  C   C354      1.0  0.37912  0.64042  0.17165  1.0000
  H   H564      1.0  0.26883  0.66111  0.05713  1.0000
  C   C355      1.0  0.43327  0.39929  0.05452  1.0000
  H   H565      1.0  0.35281  0.61351  0.19459  1.0000
  H   H566      1.0  0.46086  0.66290  0.01249  1.0000
  N   N38       1.0  0.45091  0.38407  0.06144  1.0000
  C   C356      1.0  0.37591  0.58440  0.00865  1.0000
  H   H567      1.0  0.36598  0.50462  0.07112  1.0000
  H   H568      1.0  0.43902  0.41565  0.04944  1.0000
  H   H569      1.0  0.40227  0.53222  0.05594  1.0000
  H   H570      1.0  0.30139  0.65600  0.07765  1.0000
  C   C357      1.0  0.46077  0.39244  0.07990  1.0000
  H   H571      1.0  0.38981  0.65421  0.16959  1.0000
  C   C358      1.0  0.37395  0.50273  0.05439  1.0000
  H   H572      1.0  0.40845  0.60702  0.16973  1.0000
  C   C359      1.0  0.31022  0.39282  0.16863  1.0000
  H   H573      1.0  0.29227  0.37505  0.20656  1.0000
  H   H574      1.0  0.38045  0.63263  0.15586  1.0000
  H   H575      1.0  0.36526  0.49063  0.04661  1.0000
  H   H576      1.0  0.38775  0.62461  0.22446  1.0000
  H   H577      1.0  0.47434  0.39743  0.03737  1.0000
  H   H578      1.0  0.44918  0.39342  0.09459  1.0000
  H   H579      1.0  0.45570  0.64111  0.03285  1.0000
  H   H580      1.0  0.31592  0.40673  0.15760  1.0000
  C   C360      1.0  0.44230  0.36278  0.06840  1.0000
  H   H581      1.0  0.36694  0.64297  0.21435  1.0000
  C   C361      1.0  0.38829  0.37868  0.00708  1.0000
  H   H582      1.0  0.39460  0.64937  0.20910  1.0000
  C   C362      1.0  0.49359  0.58962  0.15682  1.0000
  H   H583      1.0  0.49352  0.52691  0.14974  1.0000
  H   H584      1.0  0.37663  0.50889  0.01048  1.0000
  C   C363      1.0  0.39736  0.34863  0.03264  1.0000
  C   C364      1.0  0.49746  0.60549  0.11303  1.0000
  C   C365      1.0  0.41167  0.58982  0.01857  1.0000
  H   H585      1.0  0.37106  0.59782  0.17740  1.0000
  C   C366      1.0  0.36981  0.60714  0.19226  1.0000
  C   C367      1.0  0.46556  0.64576  0.01738  1.0000
  C   C368      1.0  0.38601  0.53902  0.05226  1.0000
  H   H586      1.0  0.38816  0.55432  0.04208  1.0000
  H   H587      1.0  0.35154  0.54854  0.03006  1.0000
  H   H588      1.0  0.48264  0.64491  0.02122  1.0000
  C   C369      1.0  0.38493  0.52057  0.01922  1.0000
  H   H589      1.0  0.33156  0.34002  0.11654  1.0000
  H   H590      1.0  0.49206  0.58371  0.17387  1.0000
  H   H591      1.0  0.40192  0.51445  0.02015  1.0000
  H   H592      1.0  0.38502  0.53607  0.00880  1.0000
  H   H593      1.0  0.45937  0.60379  0.02320  1.0000
  H   H594      1.0  0.48583  0.60677  0.01007  1.0000
  C   C370      1.0  0.46846  0.60883  0.00744  1.0000
  H   H595      1.0  0.42875  0.62973  0.01063  1.0000
  Fe  Fe75      1.0  0.42319  0.58516  0.93778  1.0000
  S   S148      1.0  0.40756  0.55432  0.94977  1.0000
  S   S149      1.0  0.45483  0.59090  0.95121  1.0000
  Fe  Fe76      1.0  0.38293  0.60390  0.91593  1.0000
  S   S150      1.0  0.36442  0.57444  0.92607  1.0000
  S   S151      1.0  0.36928  0.63369  0.89694  1.0000
  Fe  Fe77      1.0  0.37851  0.57591  0.95817  1.0000
  C   C371      1.0  0.49600  0.43281  0.89467  1.0000
  Fe  Fe78      1.0  0.39519  0.55558  0.91656  1.0000
  S   S152      1.0  0.39660  0.52638  0.89645  1.0000
  S   S153      1.0  0.39483  0.60668  0.94884  1.0000
  S   S154      1.0  0.41299  0.58501  0.90362  1.0000
  Fe  Fe79      1.0  0.38428  0.40498  0.93695  1.0000
  S   S155      1.0  0.41592  0.39042  0.94678  1.0000
  S   S156      1.0  0.36998  0.43756  0.94665  1.0000
  Fe  Fe80      1.0  0.37183  0.36373  0.91817  1.0000
  N   N39       1.0  0.31312  0.41447  0.92644  1.0000
  H   H596      1.0  0.29145  0.39112  0.94172  1.0000
  Fe  Fe81      1.0  0.39828  0.36078  0.95777  1.0000
  C   C372      1.0  0.33305  0.41466  0.91173  1.0000
  Fe  Fe82      1.0  0.41897  0.37628  0.91408  1.0000
  S   S157      1.0  0.45089  0.37496  0.89357  1.0000
  S   S158      1.0  0.36618  0.37648  0.95147  1.0000
  S   S159      1.0  0.38845  0.39326  0.90311  1.0000
  H   H597      1.0  0.30234  0.42359  0.95888  1.0000
  H   H598      1.0  0.40505  0.57572  0.98931  1.0000
  C   C373      1.0  0.29903  0.65830  0.91122  1.0000
  H   H599      1.0  0.32986  0.41358  0.95565  1.0000
  H   H600      1.0  0.30070  0.44489  0.91240  1.0000
  C   C374      1.0  0.29607  0.42787  0.91591  1.0000
  C   C375      1.0  0.47478  0.37532  0.90677  1.0000
  C   C376      1.0  0.30648  0.39199  0.93075  1.0000
  C   C377      1.0  0.47426  0.38018  0.92864  1.0000
  C   C378      1.0  0.49844  0.59241  0.94658  1.0000
  H   H601      1.0  0.45927  0.38461  0.93746  1.0000
  C   C379      1.0  0.34236  0.64317  0.90331  1.0000
  C   C380      1.0  0.32771  0.63017  0.91577  1.0000
  C   C381      1.0  0.30610  0.63761  0.91946  1.0000
  H   H602      1.0  0.46525  0.59733  0.99519  1.0000
  H   H603      1.0  0.39395  0.59703  0.83997  1.0000
  S   S160      1.0  0.34123  0.35434  0.90462  1.0000
  H   H604      1.0  0.33294  0.61432  0.92246  1.0000
  H   H605      1.0  0.29486  0.62734  0.92895  1.0000
  H   H606      1.0  0.37737  0.56644  0.87877  1.0000
  H   H607      1.0  0.30380  0.38463  0.91529  1.0000
  H   H608      1.0  0.49257  0.38246  0.95640  1.0000
  H   H609      1.0  0.38471  0.55888  0.85157  1.0000
  C   C382      1.0  0.38997  0.50164  0.91081  1.0000
  C   C383      1.0  0.39521  0.48206  0.90101  1.0000
  C   C384      1.0  0.38968  0.46221  0.91204  1.0000
  C   C385      1.0  0.37849  0.46189  0.93276  1.0000
  C   C386      1.0  0.37316  0.48147  0.94248  1.0000
  C   C387      1.0  0.37907  0.50125  0.93166  1.0000
  H   H610      1.0  0.40363  0.48226  0.88488  1.0000
  H   H611      1.0  0.39379  0.44722  0.90437  1.0000
  H   H612      1.0  0.36446  0.48134  0.95847  1.0000
  H   H613      1.0  0.37489  0.51624  0.93932  1.0000
  C   C388      1.0  0.47977  0.59226  0.93552  1.0000
  C   C389      1.0  0.48140  0.59406  0.91260  1.0000
  S   S161      1.0  0.35945  0.57423  0.99070  1.0000
  H   H614      1.0  0.46709  0.59406  0.90393  1.0000
  H   H615      1.0  0.35848  0.55370  0.86451  1.0000
  H   H616      1.0  0.33879  0.43130  0.90823  1.0000
  H   H617      1.0  0.35053  0.59616  0.88570  1.0000
  H   H618      1.0  0.33151  0.58458  0.87061  1.0000
  H   H619      1.0  0.31908  0.38144  0.93863  1.0000
  C   C390      1.0  0.33526  0.66380  0.89491  1.0000
  H   H620      1.0  0.29286  0.42155  0.90008  1.0000
  H   H621      1.0  0.28076  0.42812  0.92655  1.0000
  H   H622      1.0  0.38737  0.60331  0.86776  1.0000
  H   H623      1.0  0.34614  0.40481  0.91932  1.0000
  H   H624      1.0  0.34186  0.57414  0.83305  1.0000
  S   S162      1.0  0.27151  0.66659  0.91551  1.0000
  H   H625      1.0  0.33099  0.40769  0.89592  1.0000
  H   H626      1.0  0.37476  0.61899  0.84644  1.0000
  C   C391      1.0  0.38053  0.60226  0.85180  1.0000
  H   H627      1.0  0.36810  0.57929  0.82025  1.0000
  H   H628      1.0  0.33926  0.61192  0.86364  1.0000
  C   C392      1.0  0.31700  0.42334  0.94733  1.0000
  C   C393      1.0  0.37119  0.56561  0.86244  1.0000
  H   H629      1.0  0.48566  0.44303  0.90593  1.0000
  C   C394      1.0  0.35510  0.58543  0.83210  1.0000
  H   H630      1.0  0.34887  0.60146  0.82519  1.0000
  C   C395      1.0  0.34524  0.59526  0.86902  1.0000
  H   H631      1.0  0.32247  0.44015  0.94465  1.0000
  N   N40       1.0  0.36301  0.58714  0.85383  1.0000
  H   H632      1.0  0.38776  0.38571  0.99051  1.0000
  H   H633      1.0  0.49735  0.59093  0.96428  1.0000
  S   S163      1.0  0.40579  0.34196  0.98910  1.0000
  S   S164      1.0  0.40284  0.34552  0.92563  1.0000
  H   H634      1.0  0.49521  0.36636  0.87845  1.0000
  H   H635      1.0  0.29981  0.33935  0.89865  1.0000
  H   H636      1.0  0.44590  0.34913  0.96056  1.0000
  C   C396      1.0  0.49322  0.37905  0.93934  1.0000
  H   H637      1.0  0.49377  0.41566  0.90053  1.0000
  H   H638      1.0  0.47183  0.65494  0.97409  1.0000
  C   C397      1.0  0.49465  0.37014  0.89541  1.0000
  H   H639      1.0  0.47378  0.34695  0.96570  1.0000
  H   H640      1.0  0.48975  0.43532  0.87820  1.0000
  H   H641      1.0  0.47281  0.62772  0.96625  1.0000
  C   C398      1.0  0.39814  0.58283  0.00397  1.0000
  C   C399      1.0  0.45886  0.33800  0.96705  1.0000
  H   H642      1.0  0.49303  0.63595  0.98232  1.0000
  H   H643      1.0  0.43595  0.62133  0.98351  1.0000
  C   C400      1.0  0.47561  0.63783  0.97983  1.0000
  N   N41       1.0  0.46226  0.63138  0.00001  1.0000
  C   C401      1.0  0.43939  0.63307  0.99546  1.0000
  H   H644      1.0  0.43450  0.64951  0.98852  1.0000
  Fe  Fe83      1.0  0.40276  0.91599  0.41119  1.0000
  S   S165      1.0  0.40215  0.89872  0.38079  1.0000
  S   S166      1.0  0.42047  0.94646  0.40832  1.0000
  Fe  Fe84      1.0  0.37742  0.88302  0.43878  1.0000
  S   S167      1.0  0.37428  0.86251  0.41054  1.0000
  S   S168      1.0  0.36049  0.87797  0.47255  1.0000
  Fe  Fe85      1.0  0.40919  0.86893  0.40212  1.0000
  S   S169      1.0  0.43176  0.84381  0.38666  1.0000
  Fe  Fe86      1.0  0.36739  0.89383  0.39096  1.0000
  S   S170      1.0  0.34687  0.90257  0.36239  1.0000
  S   S171      1.0  0.41292  0.88661  0.43196  1.0000
  S   S172      1.0  0.36751  0.91387  0.41979  1.0000
  H   H645      1.0  0.27699  0.71172  0.08246  1.0000
  S   S173      1.0  0.31181  0.70880  0.12237  1.0000
  C   C402      1.0  0.26624  0.79523  0.18069  1.0000
  S   S174      1.0  0.27189  0.88003  0.27028  1.0000
  H   H646      1.0  0.28513  0.91740  0.16848  1.0000
  N   N42       1.0  0.37487  0.83485  0.34949  1.0000
  H   H647      1.0  0.37087  0.80867  0.32952  1.0000
  H   H648      1.0  0.29415  0.86036  0.19072  1.0000
  C   C403      1.0  0.41109  0.98916  0.41390  1.0000
  H   H649      1.0  0.37296  0.86765  0.33529  1.0000
  H   H650      1.0  0.34314  0.95786  0.41522  1.0000
  H   H651      1.0  0.28479  0.92878  0.19458  1.0000
  H   H652      1.0  0.48060  0.97738  0.39572  1.0000
  C   C404      1.0  0.26371  0.82270  0.20750  1.0000
  H   H653      1.0  0.48848  0.95351  0.44007  1.0000
  H   H654      1.0  0.26041  0.87596  0.20757  1.0000
  H   H655      1.0  0.37542  0.96651  0.36208  1.0000
  C   C405      1.0  0.47130  0.96303  0.40150  1.0000
  C   C406      1.0  0.32385  0.89038  0.35518  1.0000
  C   C407      1.0  0.31649  0.89610  0.33445  1.0000
  C   C408      1.0  0.29832  0.88690  0.32782  1.0000
  C   C409      1.0  0.28723  0.87189  0.34191  1.0000
  C   C410      1.0  0.29457  0.86616  0.36269  1.0000
  C   C411      1.0  0.31278  0.87539  0.36934  1.0000
  H   H656      1.0  0.32484  0.90777  0.32341  1.0000
  H   H657      1.0  0.29279  0.89158  0.31187  1.0000
  H   H658      1.0  0.28601  0.85466  0.37376  1.0000
  H   H659      1.0  0.31808  0.87105  0.38547  1.0000
  C   C412      1.0  0.40545  0.96799  0.41998  1.0000
  C   C413      1.0  0.38715  0.96429  0.43417  1.0000
  C   C414      1.0  0.37387  0.98178  0.44133  1.0000
  C   C415      1.0  0.33234  0.96684  0.36194  1.0000
  N   N43       1.0  0.34488  0.96845  0.38101  1.0000
  H   H660      1.0  0.46127  0.95963  0.38820  1.0000
  H   H661      1.0  0.38322  0.94800  0.43968  1.0000
  C   C416      1.0  0.38817  0.82142  0.36463  1.0000
  S   S175      1.0  0.26611  0.74978  0.10684  1.0000
  H   H662      1.0  0.30332  0.71563  0.06973  1.0000
  C   C417      1.0  0.45963  0.84755  0.38407  1.0000
  C   C418      1.0  0.47281  0.83395  0.37085  1.0000
  C   C419      1.0  0.46894  0.86336  0.39482  1.0000
  H   H663      1.0  0.46579  0.82170  0.36256  1.0000
  H   H664      1.0  0.45887  0.87383  0.40518  1.0000
  C   C420      1.0  0.28751  0.70934  0.06725  1.0000
  Fe  Fe87      1.0  0.27705  0.72122  0.12891  1.0000
  C   C421      1.0  0.49144  0.86523  0.39247  1.0000
  S   S176      1.0  0.26417  0.86011  0.33414  1.0000
  H   H665      1.0  0.37643  0.95889  0.39068  1.0000
  H   H666      1.0  0.29570  0.69338  0.02780  1.0000
  H   H667      1.0  0.31763  0.96449  0.40450  1.0000
  H   H668      1.0  0.39346  0.82461  0.32071  1.0000
  H   H669      1.0  0.28936  0.90481  0.22820  1.0000
  H   H670      1.0  0.46255  0.92088  0.40263  1.0000
  H   H671      1.0  0.36670  0.83518  0.31622  1.0000
  H   H672      1.0  0.34172  0.84546  0.34739  1.0000
  H   H673      1.0  0.35030  0.84315  0.37458  1.0000
  H   H674      1.0  0.36601  0.94096  0.37330  1.0000
  C   C422      1.0  0.37656  0.82539  0.32801  1.0000
  C   C423      1.0  0.35222  0.83566  0.35857  1.0000
  C   C424      1.0  0.29679  0.89226  0.21740  1.0000
  H   H675      1.0  0.25632  0.90467  0.20971  1.0000
  C   C425      1.0  0.26417  0.89199  0.19931  1.0000
  H   H676      1.0  0.48277  0.91106  0.42052  1.0000
  N   N44       1.0  0.48555  0.94406  0.40754  1.0000
  H   H677      1.0  0.39975  0.85709  0.34044  1.0000
  H   H678      1.0  0.40520  0.86388  0.47727  1.0000
  H   H679      1.0  0.40543  0.82068  0.35843  1.0000
  H   H680      1.0  0.34007  0.97512  0.34687  1.0000
  C   C426      1.0  0.27405  0.80422  0.19864  1.0000
  C   C427      1.0  0.36662  0.95829  0.37655  1.0000
  H   H681      1.0  0.46009  0.96765  0.41568  1.0000
  C   C428      1.0  0.25546  0.97998  0.25557  1.0000
  C   C429      1.0  0.37590  0.87410  0.49544  1.0000
  H   H682      1.0  0.30953  0.91759  0.18188  1.0000
  H   H683      1.0  0.38291  0.80457  0.36720  1.0000
  H   H684      1.0  0.31498  0.87760  0.17968  1.0000
  H   H685      1.0  0.35946  0.97891  0.45192  1.0000
  S   S177      1.0  0.27509  0.83446  0.22891  1.0000
  H   H686      1.0  0.27096  0.97829  0.24648  1.0000
  H   H687      1.0  0.49027  0.93368  0.37478  1.0000
  C   C430      1.0  0.39755  0.86697  0.49326  1.0000
  H   H688      1.0  0.33234  0.93977  0.39795  1.0000
  H   H689      1.0  0.38105  0.86470  0.36251  1.0000
  H   H690      1.0  0.27438  0.78102  0.17400  1.0000
  H   H691      1.0  0.28822  0.79682  0.20564  1.0000
  C   C431      1.0  0.38253  0.85701  0.34669  1.0000
  H   H692      1.0  0.33085  0.94961  0.35854  1.0000
  H   H693      1.0  0.38737  0.82813  0.38099  1.0000
  C   C432      1.0  0.33402  0.95715  0.40053  1.0000
  S   S178      1.0  0.26009  0.73446  0.15933  1.0000
  H   H694      1.0  0.29052  0.87734  0.16630  1.0000
  C   C433      1.0  0.29198  0.91541  0.18468  1.0000
  H   H695      1.0  0.34591  0.81923  0.36128  1.0000
  C   C434      1.0  0.34653  0.99145  0.38506  1.0000
  H   H696      1.0  0.35184  0.68584  0.11110  1.0000
  H   H697      1.0  0.25655  0.89337  0.18353  1.0000
  C   C435      1.0  0.30295  0.68390  0.04172  1.0000
  C   C436      1.0  0.32081  0.68158  0.12843  1.0000
  Fe  Fe88      1.0  0.25221  0.86799  0.30034  1.0000
  H   H698      1.0  0.31927  0.68975  0.04268  1.0000
  N   N45       1.0  0.28953  0.68630  0.06247  1.0000
  H   H699      1.0  0.28029  0.71962  0.05386  1.0000
  C   C437      1.0  0.47252  0.92555  0.41550  1.0000
  H   H700      1.0  0.25993  0.68780  0.04703  1.0000
  H   H701      1.0  0.46121  0.92953  0.42982  1.0000
  N   N46       1.0  0.28759  0.89408  0.19594  1.0000
  H   H702      1.0  0.42528  0.99212  0.40301  1.0000
  C   C438      1.0  0.29728  0.87665  0.18252  1.0000
  C   C439      1.0  0.26801  0.67850  0.06049  1.0000
  H   H703      1.0  0.31440  0.89414  0.21561  1.0000
  Fe  Fe89      1.0  0.25565  0.85608  0.25244  1.0000
  H   H704      1.0  0.25826  0.77317  0.01185  1.0000
  C   C440      1.0  0.49969  0.93824  0.38811  1.0000
  H   H705      1.0  0.29409  0.87616  0.22614  1.0000
  H   H706      1.0  0.35594  0.99315  0.39935  1.0000
  C   C441      1.0  0.37914  0.00296  0.43465  1.0000
  H   H707      1.0  0.31580  0.97427  0.36473  1.0000
  S   S179      1.0  0.25281  0.93657  0.24978  1.0000
  C   C442      1.0  0.49868  0.94950  0.42502  1.0000
  C   C443      1.0  0.49503  0.83604  0.36825  1.0000
  H   H708      1.0  0.31587  0.67904  0.08250  1.0000
  C   C444      1.0  0.34158  0.67451  0.12048  1.0000
  H   H709      1.0  0.33044  0.99964  0.38868  1.0000
  H   H710      1.0  0.35466  0.00053  0.37071  1.0000
  H   H711      1.0  0.28994  0.67521  0.09642  1.0000
  C   C445      1.0  0.29962  0.67352  0.08050  1.0000
  H   H712      1.0  0.25735  0.68045  0.07579  1.0000
  H   H713      1.0  0.49864  0.87719  0.40094  1.0000
  H   H714      1.0  0.29158  0.67202  0.14660  1.0000
  Fe  Fe90      1.0  0.37539  0.86737  0.63346  1.0000
  S   S180      1.0  0.36612  0.88120  0.60041  1.0000
  S   S181      1.0  0.35014  0.84811  0.65394  1.0000
  Fe  Fe91      1.0  0.41820  0.88907  0.62814  1.0000
  S   S182      1.0  0.41174  0.90521  0.59538  1.0000
  S   S183      1.0  0.44819  0.89844  0.64205  1.0000
  Fe  Fe92      1.0  0.37842  0.91175  0.61032  1.0000
  S   S184      1.0  0.36012  0.94376  0.60617  1.0000
  Fe  Fe93      1.0  0.40032  0.87318  0.58832  1.0000
  S   S185      1.0  0.41418  0.86109  0.55596  1.0000
  S   S186      1.0  0.38564  0.89864  0.64394  1.0000
  S   S187      1.0  0.40887  0.85629  0.62045  1.0000
  H   H715      1.0  0.45018  0.88932  0.56603  1.0000
  S   S188      1.0  0.30433  0.88451  0.74124  1.0000
  C   C446      1.0  0.36605  0.87761  0.51637  1.0000
  N   N47       1.0  0.47945  0.87186  0.55537  1.0000
  H   H716      1.0  0.31975  0.92077  0.60884  1.0000
  H   H717      1.0  0.49706  0.90056  0.55480  1.0000
  C   C447      1.0  0.33783  0.85769  0.67867  1.0000
  C   C448      1.0  0.34751  0.87273  0.68989  1.0000
  C   C449      1.0  0.33701  0.88072  0.70903  1.0000
  C   C450      1.0  0.31661  0.87403  0.71698  1.0000
  C   C451      1.0  0.30692  0.85889  0.70588  1.0000
  C   C452      1.0  0.31766  0.85053  0.68695  1.0000
  H   H718      1.0  0.36319  0.87806  0.68396  1.0000
  H   H719      1.0  0.34472  0.89225  0.71766  1.0000
  H   H720      1.0  0.29129  0.85345  0.71198  1.0000
  H   H721      1.0  0.31014  0.83874  0.67848  1.0000
  H   H722      1.0  0.48042  0.85394  0.52658  1.0000
  H   H723      1.0  0.47071  0.88811  0.58492  1.0000
  H   H724      1.0  0.42570  0.85702  0.51012  1.0000
  C   C453      1.0  0.37410  0.96241  0.61860  1.0000
  C   C454      1.0  0.39399  0.95624  0.62653  1.0000
  C   C455      1.0  0.40562  0.97134  0.63567  1.0000
  H   H725      1.0  0.36449  0.98195  0.53836  1.0000
  H   H726      1.0  0.34928  0.88300  0.51819  1.0000
  H   H727      1.0  0.40064  0.93987  0.62553  1.0000
  H   H728      1.0  0.42096  0.96639  0.64182  1.0000
  C   C456      1.0  0.39928  0.86661  0.53284  1.0000
  C   C457      1.0  0.37775  0.87411  0.53499  1.0000
  Fe  Fe94      1.0  0.26017  0.70209  0.91215  1.0000
  H   H729      1.0  0.45594  0.86996  0.53217  1.0000
  H   H730      1.0  0.38269  0.97267  0.57227  1.0000
  H   H731      1.0  0.29545  0.90676  0.60861  1.0000
  H   H732      1.0  0.36995  0.87677  0.55101  1.0000
  H   H733      1.0  0.48987  0.84341  0.57459  1.0000
  H   H734      1.0  0.45503  0.98754  0.64648  1.0000
  H   H735      1.0  0.25382  0.82369  0.80448  1.0000
  C   C458      1.0  0.47281  0.88490  0.63422  1.0000
  C   C459      1.0  0.46885  0.85975  0.53992  1.0000
  H   H736      1.0  0.45917  0.85556  0.62688  1.0000
  Fe  Fe95      1.0  0.26893  0.88297  0.75260  1.0000
  H   H737      1.0  0.33877  0.89405  0.64580  1.0000
  H   H738      1.0  0.47499  0.98168  0.66569  1.0000
  H   H739      1.0  0.29074  0.92817  0.66373  1.0000
  H   H740      1.0  0.30850  0.68740  0.89254  1.0000
  H   H741      1.0  0.28065  0.88681  0.64313  1.0000
  H   H742      1.0  0.32751  0.81313  0.81135  1.0000
  C   C460      1.0  0.29362  0.92708  0.64568  1.0000
  H   H743      1.0  0.30640  0.87303  0.64612  1.0000
  H   H744      1.0  0.30138  0.94206  0.63875  1.0000
  Fe  Fe96      1.0  0.26174  0.74723  0.88874  1.0000
  H   H745      1.0  0.49117  0.91164  0.64057  1.0000
  S   S189      1.0  0.27874  0.73093  0.91708  1.0000
  H   H746      1.0  0.29578  0.87178  0.78705  1.0000
  N   N48       1.0  0.30720  0.90756  0.64041  1.0000
  H   H747      1.0  0.28195  0.85418  0.80725  1.0000
  H   H748      1.0  0.34630  0.83766  0.78262  1.0000
  H   H749      1.0  0.34084  0.86012  0.79956  1.0000
  C   C461      1.0  0.32803  0.90837  0.64982  1.0000
  C   C462      1.0  0.49381  0.85338  0.62157  1.0000
  C   C463      1.0  0.25423  0.81869  0.82161  1.0000
  H   H750      1.0  0.32048  0.89180  0.61197  1.0000
  H   H751      1.0  0.46104  0.84542  0.54842  1.0000
  S   S190      1.0  0.25286  0.85341  0.76734  1.0000
  C   C464      1.0  0.30515  0.83015  0.77835  1.0000
  H   H752      1.0  0.31655  0.81666  0.77326  1.0000
  C   C465      1.0  0.31083  0.90673  0.61639  1.0000
  C   C466      1.0  0.33421  0.85079  0.78718  1.0000
  N   N49       1.0  0.31342  0.84203  0.79554  1.0000
  H   H753      1.0  0.45578  0.86480  0.58210  1.0000
  H   H754      1.0  0.30247  0.84099  0.76341  1.0000
  H   H755      1.0  0.49453  0.83701  0.61654  1.0000
  C   C467      1.0  0.47380  0.86386  0.62734  1.0000
  S   S191      1.0  0.27518  0.76550  0.85781  1.0000
  C   C468      1.0  0.49186  0.89541  0.63516  1.0000
  C   C469      1.0  0.49655  0.85781  0.56512  1.0000
  H   H756      1.0  0.35031  0.98850  0.61400  1.0000
  H   H757      1.0  0.48319  0.99008  0.61590  1.0000
  H   H758      1.0  0.30078  0.82066  0.82209  1.0000
  C   C470      1.0  0.36580  0.98373  0.61987  1.0000
  H   H759      1.0  0.38953  0.98940  0.52416  1.0000
  C   C471      1.0  0.48898  0.89105  0.54356  1.0000
  H   H760      1.0  0.28959  0.82309  0.78412  1.0000
  C   C472      1.0  0.31630  0.82719  0.81517  1.0000
  C   C473      1.0  0.49347  0.99744  0.62691  1.0000
  H   H761      1.0  0.47650  0.90198  0.53597  1.0000
  H   H762      1.0  0.40779  0.98006  0.55834  1.0000
  H   H763      1.0  0.30344  0.86916  0.81459  1.0000
  H   H764      1.0  0.33248  0.86194  0.77225  1.0000
  C   C474      1.0  0.39760  0.99278  0.63648  1.0000
  C   C475      1.0  0.29799  0.86005  0.80137  1.0000
  H   H765      1.0  0.33657  0.92300  0.64337  1.0000
  H   H766      1.0  0.32275  0.83556  0.82838  1.0000
  H   H767      1.0  0.27770  0.92700  0.63895  1.0000
  C   C476      1.0  0.29644  0.88803  0.64980  1.0000
  H   H768      1.0  0.29363  0.88802  0.66796  1.0000
  H   H769      1.0  0.32600  0.90856  0.66797  1.0000
  C   C477      1.0  0.37533  0.99554  0.53453  1.0000
  C   C478      1.0  0.26286  0.79096  0.85030  1.0000
  C   C479      1.0  0.46341  0.87887  0.57288  1.0000
  H   H770      1.0  0.34647  0.67398  0.88525  1.0000
  C   C480      1.0  0.46588  0.99504  0.65682  1.0000
  S   S192      1.0  0.25864  0.90249  0.78153  1.0000
  C   C481      1.0  0.26236  0.79777  0.82803  1.0000
  H   H771      1.0  0.26847  0.78687  0.81574  1.0000
  C   C482      1.0  0.40914  0.86305  0.51192  1.0000
  H   H772      1.0  0.26147  0.98853  0.80310  1.0000
  C   C483      1.0  0.39307  0.98651  0.56765  1.0000
  H   H773      1.0  0.35133  0.99879  0.57292  1.0000
  C   C484      1.0  0.25479  0.80507  0.86610  1.0000
  H   H774      1.0  0.25529  0.80006  0.88329  1.0000
  H   H775      1.0  0.39797  0.99230  0.58311  1.0000
  C   C485      1.0  0.31375  0.67146  0.89905  1.0000
  C   C486      1.0  0.37767  0.99897  0.62857  1.0000
  H   H776      1.0  0.31591  0.00287  0.72195  1.0000
  H   H777      1.0  0.50121  0.88633  0.53025  1.0000
  Fe  Fe97      1.0  0.60018  0.08863  0.46063  1.0000
  S   S193      1.0  0.59430  0.10543  0.42764  1.0000
  S   S194      1.0  0.62118  0.09792  0.48611  1.0000
  Fe  Fe98      1.0  0.57991  0.04763  0.45068  1.0000
  S   S195      1.0  0.57255  0.06054  0.41693  1.0000
  C   C487      1.0  0.50840  0.09706  0.41872  1.0000
  Fe  Fe99      1.0  0.60552  0.07372  0.41379  1.0000
  S   S196      1.0  0.62852  0.06407  0.38489  1.0000
  Fe  Fe100     1.0  0.56173  0.09092  0.43333  1.0000
  S   S197      1.0  0.53000  0.10963  0.42833  1.0000
  S   S198      1.0  0.61352  0.05802  0.44636  1.0000
  S   S199      1.0  0.56699  0.07694  0.46748  1.0000
  Fe  Fe101     1.0  0.72838  0.27176  0.12618  1.0000
  H   H778      1.0  0.71835  0.09774  0.35200  1.0000
  S   S200      1.0  0.71287  0.30527  0.11879  1.0000
  Fe  Fe102     1.0  0.73047  0.22741  0.15098  1.0000
  S   S201      1.0  0.71381  0.20850  0.17994  1.0000
  C   C488      1.0  0.74191  0.22506  0.04316  1.0000
  H   H779      1.0  0.69756  0.14838  0.14896  1.0000
  S   S202      1.0  0.74266  0.11304  0.21474  1.0000
  S   S203      1.0  0.71165  0.24138  0.12310  1.0000
  S   S204      1.0  0.71137  0.08291  0.26910  1.0000
  Fe  Fe103     1.0  0.71707  0.10270  0.29702  1.0000
  S   S205      1.0  0.69208  0.11959  0.31982  1.0000
  H   H780      1.0  0.60404  0.03429  0.49987  1.0000
  S   S206      1.0  0.74512  0.25883  0.15590  1.0000
  C   C489      1.0  0.72317  0.18249  0.18996  1.0000
  C   C490      1.0  0.59838  0.01364  0.38243  1.0000
  C   C491      1.0  0.72077  0.15290  0.21851  1.0000
  C   C492      1.0  0.71483  0.17409  0.21060  1.0000
  H   H781      1.0  0.71433  0.14665  0.23449  1.0000
  H   H782      1.0  0.70365  0.18401  0.22053  1.0000
  C   C493      1.0  0.74803  0.12667  0.33964  1.0000
  C   C494      1.0  0.65526  0.31144  0.15465  1.0000
  C   C495      1.0  0.53918  0.33194  0.16765  1.0000
  C   C496      1.0  0.64408  0.32767  0.14228  1.0000
  H   H783      1.0  0.58315  0.01273  0.39304  1.0000
  C   C497      1.0  0.64640  0.08003  0.36759  1.0000
  C   C498      1.0  0.66067  0.06969  0.35224  1.0000
  C   C499      1.0  0.67483  0.08162  0.33767  1.0000
  C   C500      1.0  0.67469  0.10409  0.33816  1.0000
  C   C501      1.0  0.66059  0.11446  0.35365  1.0000
  C   C502      1.0  0.64653  0.10248  0.36838  1.0000
  H   H784      1.0  0.66071  0.05235  0.35147  1.0000
  H   H785      1.0  0.68562  0.07344  0.32585  1.0000
  H   H786      1.0  0.66037  0.13186  0.35412  1.0000
  H   H787      1.0  0.63557  0.11063  0.38008  1.0000
  S   S207      1.0  0.57463  0.01449  0.46694  1.0000
  N   N50       1.0  0.73887  0.12096  0.36217  1.0000
  H   H788      1.0  0.52606  0.32050  0.16979  1.0000
  S   S208      1.0  0.72959  0.02435  0.29168  1.0000
  Fe  Fe104     1.0  0.73723  0.05964  0.28209  1.0000
  H   H789      1.0  0.55307  0.32412  0.15810  1.0000
  H   H790      1.0  0.56761  0.31093  0.19324  1.0000
  C   C503      1.0  0.55510  0.00485  0.43091  1.0000
  H   H791      1.0  0.62320  0.02638  0.41236  1.0000
  H   H792      1.0  0.55160  0.02200  0.42804  1.0000
  H   H793      1.0  0.60395  0.00835  0.42519  1.0000
  C   C504      1.0  0.73810  0.21299  0.02553  1.0000
  H   H794      1.0  0.64035  0.02057  0.37553  1.0000
  H   H795      1.0  0.71345  0.13270  0.38485  1.0000
  C   C505      1.0  0.68587  0.31238  0.12744  1.0000
  C   C506      1.0  0.67600  0.30364  0.14716  1.0000
  H   H796      1.0  0.64798  0.30502  0.17021  1.0000
  H   H797      1.0  0.60169  0.03107  0.37962  1.0000
  H   H798      1.0  0.68462  0.29139  0.15698  1.0000
  N   N51       1.0  0.68894  0.17765  0.12980  1.0000
  C   C507      1.0  0.67578  0.19795  0.13289  1.0000
  C   C508      1.0  0.68701  0.16341  0.15020  1.0000
  C   C509      1.0  0.71161  0.18269  0.12447  1.0000
  C   C510      1.0  0.68145  0.16662  0.11161  1.0000
  H   H799      1.0  0.67695  0.20917  0.11786  1.0000
  H   H800      1.0  0.68115  0.20670  0.14649  1.0000
  H   H801      1.0  0.65856  0.19483  0.13702  1.0000
  H   H802      1.0  0.57919  0.11655  0.50169  1.0000
  H   H803      1.0  0.69172  0.17168  0.16438  1.0000
  H   H804      1.0  0.67024  0.15864  0.15435  1.0000
  H   H805      1.0  0.72219  0.16781  0.12244  1.0000
  H   H806      1.0  0.71759  0.19141  0.13764  1.0000
  H   H807      1.0  0.71372  0.19320  0.10901  1.0000
  H   H808      1.0  0.69106  0.15122  0.10894  1.0000
  H   H809      1.0  0.68297  0.17694  0.09596  1.0000
  H   H810      1.0  0.66432  0.16272  0.11491  1.0000
  H   H811      1.0  0.68202  0.33507  0.09959  1.0000
  C   C511      1.0  0.73095  0.09891  0.36351  1.0000
  H   H812      1.0  0.72367  0.09416  0.38021  1.0000
  C   C512      1.0  0.72085  0.13655  0.36799  1.0000
  H   H813      1.0  0.74409  0.17571  0.16132  1.0000
  Fe  Fe105     1.0  0.73846  0.10073  0.25060  1.0000
  C   C513      1.0  0.55314  0.31882  0.20186  1.0000
  H   H814      1.0  0.70790  0.13632  0.35668  1.0000
  S   S209      1.0  0.74145  0.07889  0.31096  1.0000
  Fe  Fe106     1.0  0.74058  0.23136  0.10117  1.0000
  S   S210      1.0  0.73652  0.21387  0.07052  1.0000
  H   H815      1.0  0.52557  0.06652  0.41369  1.0000
  H   H816      1.0  0.73576  0.12648  0.32762  1.0000
  C   C514      1.0  0.73466  0.13973  0.20553  1.0000
  H   H817      1.0  0.54071  0.30663  0.20484  1.0000
  C   C515      1.0  0.73745  0.16946  0.17718  1.0000
  S   S211      1.0  0.74180  0.12268  0.27730  1.0000
  H   H818      1.0  0.74938  0.11739  0.39470  1.0000
  H   H819      1.0  0.74409  0.08667  0.35927  1.0000
  C   C516      1.0  0.67455  0.32840  0.11496  1.0000
  C   C517      1.0  0.61894  0.00919  0.41410  1.0000
  H   H820      1.0  0.55774  0.32297  0.21807  1.0000
  C   C518      1.0  0.51038  0.07565  0.41288  1.0000
  H   H821      1.0  0.59556  0.00773  0.36634  1.0000
  H   H822      1.0  0.72615  0.15340  0.36702  1.0000
  H   H823      1.0  0.73143  0.19731  0.02879  1.0000
  C   C519      1.0  0.74280  0.14804  0.18477  1.0000
  C   C520      1.0  0.65363  0.33575  0.12216  1.0000
  C   C521      1.0  0.75054  0.24533  0.03863  1.0000
  H   H824      1.0  0.53096  0.11655  0.65570  1.0000
  Fe  Fe107     1.0  0.61048  0.05531  0.61869  1.0000
  S   S212      1.0  0.62677  0.08683  0.61584  1.0000
  S   S213      1.0  0.62345  0.02554  0.60228  1.0000
  Fe  Fe108     1.0  0.56980  0.07338  0.64295  1.0000
  S   S214      1.0  0.58273  0.10620  0.64243  1.0000
  S   S215      1.0  0.53641  0.06718  0.65843  1.0000
  Fe  Fe109     1.0  0.59424  0.10101  0.60751  1.0000
  S   S216      1.0  0.58387  0.12440  0.58009  1.0000
  Fe  Fe110     1.0  0.61396  0.08908  0.65122  1.0000
  S   S217      1.0  0.62812  0.09938  0.68157  1.0000
  S   S218      1.0  0.57925  0.06930  0.60761  1.0000
  S   S219      1.0  0.59993  0.05640  0.65449  1.0000
  C   C522      1.0  0.67753  0.05607  0.75259  1.0000
  S   S220      1.0  0.72219  0.22304  0.93382  1.0000
  H   H825      1.0  0.63231  0.03424  0.53812  1.0000
  S   S221      1.0  0.72784  0.23977  0.88165  1.0000
  Fe  Fe111     1.0  0.71063  0.25169  0.91240  1.0000
  S   S222      1.0  0.67497  0.26065  0.91774  1.0000
  C   C523      1.0  0.66768  0.32012  0.88562  1.0000
  C   C524      1.0  0.68709  0.20418  0.89110  1.0000
  S   S223      1.0  0.73706  0.27255  0.91875  1.0000
  H   H826      1.0  0.54779  0.13858  0.65746  1.0000
  Fe  Fe112     1.0  0.72619  0.11962  0.78807  1.0000
  H   H827      1.0  0.69748  0.18175  0.92813  1.0000
  S   S224      1.0  0.70951  0.14577  0.80837  1.0000
  Fe  Fe113     1.0  0.73200  0.10567  0.74075  1.0000
  S   S225      1.0  0.72438  0.10756  0.70510  1.0000
  S   S226      1.0  0.71025  0.09547  0.77005  1.0000
  H   H828      1.0  0.59139  0.03886  0.56894  1.0000
  H   H829      1.0  0.73798  0.12482  0.83969  1.0000
  S   S227      1.0  0.72612  0.03776  0.78885  1.0000
  H   H830      1.0  0.58279  0.01979  0.51442  1.0000
  S   S228      1.0  0.74625  0.17854  0.89248  1.0000
  C   C525      1.0  0.71813  0.17699  0.83523  1.0000
  C   C526      1.0  0.72213  0.15536  0.83014  1.0000
  C   C527      1.0  0.53122  0.13455  0.65465  1.0000
  C   C528      1.0  0.72653  0.18468  0.85351  1.0000
  N   N52       1.0  0.67575  0.18603  0.90273  1.0000
  H   H831      1.0  0.70843  0.18782  0.82497  1.0000
  C   C529      1.0  0.53946  0.13523  0.61551  1.0000
  N   N53       1.0  0.68857  0.04310  0.73533  1.0000
  C   C530      1.0  0.65510  0.10173  0.68730  1.0000
  C   C531      1.0  0.67247  0.09823  0.67183  1.0000
  C   C532      1.0  0.69362  0.10028  0.67737  1.0000
  C   C533      1.0  0.69759  0.10558  0.69845  1.0000
  C   C534      1.0  0.68024  0.10892  0.71393  1.0000
  C   C535      1.0  0.65913  0.10709  0.70834  1.0000
  H   H832      1.0  0.66958  0.09418  0.65556  1.0000
  H   H833      1.0  0.70694  0.09774  0.66525  1.0000
  H   H834      1.0  0.68303  0.11331  0.73011  1.0000
  H   H835      1.0  0.64580  0.10997  0.72037  1.0000
  C   C536      1.0  0.59396  0.11686  0.55396  1.0000
  C   C537      1.0  0.58114  0.12011  0.53623  1.0000
  H   H836      1.0  0.64886  0.19080  0.88314  1.0000
  C   C538      1.0  0.62317  0.10279  0.52959  1.0000
  C   C539      1.0  0.61489  0.10790  0.55064  1.0000
  H   H837      1.0  0.56496  0.12714  0.53872  1.0000
  H   H838      1.0  0.62494  0.10556  0.56418  1.0000
  H   H839      1.0  0.67148  0.17144  0.93559  1.0000
  C   C540      1.0  0.51460  0.07446  0.64262  1.0000
  C   C541      1.0  0.51764  0.07923  0.62001  1.0000
  Fe  Fe114     1.0  0.73757  0.07184  0.77881  1.0000
  H   H840      1.0  0.53357  0.07818  0.61181  1.0000
  H   H841      1.0  0.56677  0.05379  0.52958  1.0000
  C   C542      1.0  0.63517  0.31421  0.90894  1.0000
  C   C543      1.0  0.64386  0.29371  0.91611  1.0000
  C   C544      1.0  0.66460  0.28645  0.90827  1.0000
  C   C545      1.0  0.67658  0.29983  0.89316  1.0000
  C   C546      1.0  0.58342  0.05892  0.53001  1.0000
  H   H842      1.0  0.66090  0.05105  0.75711  1.0000
  H   H843      1.0  0.63449  0.28342  0.92776  1.0000
  H   H844      1.0  0.69254  0.29439  0.88697  1.0000
  C   C547      1.0  0.73823  0.17055  0.86746  1.0000
  C   C548      1.0  0.58916  0.11415  0.51529  1.0000
  H   H845      1.0  0.71045  0.06778  0.72469  1.0000
  C   C549      1.0  0.67664  0.04603  0.71548  1.0000
  C   C550      1.0  0.52618  0.16785  0.63221  1.0000
  C   C551      1.0  0.68360  0.16561  0.89306  1.0000
  H   H846      1.0  0.72355  0.20143  0.85696  1.0000
  H   H847      1.0  0.57567  0.02202  0.55476  1.0000
  H   H848      1.0  0.64624  0.20521  0.90758  1.0000
  Fe  Fe115     1.0  0.74172  0.21290  0.90329  1.0000
  H   H849      1.0  0.68165  0.16635  0.87516  1.0000
  H   H850      1.0  0.68432  0.03626  0.70221  1.0000
  H   H851      1.0  0.69847  0.00978  0.73105  1.0000
  H   H852      1.0  0.50616  0.02980  0.64812  1.0000
  H   H853      1.0  0.50253  0.08975  0.59049  1.0000
  H   H854      1.0  0.67483  0.20019  0.93372  1.0000
  C   C552      1.0  0.58888  0.00765  0.62547  1.0000
  C   C553      1.0  0.64698  0.32741  0.89349  1.0000
  S   S229      1.0  0.74529  0.13214  0.75769  1.0000
  H   H855      1.0  0.67690  0.33020  0.87361  1.0000
  H   H856      1.0  0.62069  0.05874  0.54879  1.0000
  H   H857      1.0  0.72023  0.04786  0.74445  1.0000
  C   C554      1.0  0.73649  0.01166  0.78150  1.0000
  C   C555      1.0  0.71058  0.05029  0.73002  1.0000
  C   C556      1.0  0.62036  0.04792  0.53516  1.0000
  C   C557      1.0  0.65248  0.18975  0.90063  1.0000
  H   H858      1.0  0.68150  0.21993  0.89777  1.0000
  H   H859      1.0  0.53489  0.14146  0.59900  1.0000
  H   H860      1.0  0.71926  0.04131  0.71665  1.0000
  C   C558      1.0  0.68956  0.02003  0.74328  1.0000
  H   H861      1.0  0.61021  0.01138  0.51838  1.0000
  H   H862      1.0  0.60326  0.01429  0.55873  1.0000
  H   H863      1.0  0.61912  0.31956  0.91491  1.0000
  H   H864      1.0  0.53959  0.11729  0.61614  1.0000
  H   H865      1.0  0.50456  0.00806  0.61652  1.0000
  H   H866      1.0  0.55629  0.13956  0.61665  1.0000
  C   C559      1.0  0.68000  0.18476  0.92610  1.0000
  H   H867      1.0  0.68624  0.05432  0.76776  1.0000
  H   H868      1.0  0.58578  0.02294  0.63264  1.0000
  H   H869      1.0  0.52144  0.17549  0.61623  1.0000
  C   C560      1.0  0.74267  0.14906  0.86208  1.0000
  H   H870      1.0  0.70101  0.16208  0.89505  1.0000
  H   H871      1.0  0.52023  0.14041  0.66842  1.0000
  C   C561      1.0  0.59896  0.02576  0.51593  1.0000
  N   N54       1.0  0.52484  0.14411  0.63323  1.0000
  C   C562      1.0  0.60579  0.00488  0.60936  1.0000
  H   H872      1.0  0.67324  0.01389  0.74704  1.0000
  H   H873      1.0  0.74029  0.21136  0.99026  1.0000
  C   C563      1.0  0.73489  0.14155  0.84336  1.0000
  H   H874      1.0  0.62590  0.05722  0.51968  1.0000
  H   H875      1.0  0.67605  0.06321  0.70887  1.0000
  H   H876      1.0  0.65974  0.04139  0.71895  1.0000
  H   H877      1.0  0.67496  0.15158  0.90095  1.0000
  H   H878      1.0  0.64331  0.17645  0.90935  1.0000
  H   H879      1.0  0.63959  0.09643  0.52702  1.0000
  H   H880      1.0  0.67645  0.07358  0.74714  1.0000
  H   H881      1.0  0.67316  0.31861  0.93582  1.0000
  H   H882      1.0  0.68470  0.20556  0.87330  1.0000
  H   H883      1.0  0.58329  0.07060  0.54294  1.0000
  N   N55       1.0  0.59865  0.04020  0.53403  1.0000
  H   H884      1.0  0.54284  0.17237  0.63405  1.0000
  H   H885      1.0  0.70460  0.20196  0.89281  1.0000
  C   C564      1.0  0.59189  0.02831  0.55499  1.0000
  H   H886      1.0  0.69594  0.33112  0.94377  1.0000
  H   H887      1.0  0.58779  0.06785  0.51400  1.0000
  H   H888      1.0  0.63650  0.32909  0.95198  1.0000
  H   H889      1.0  0.68151  0.31276  0.96287  1.0000
  H   H890      1.0  0.64527  0.32365  0.97898  1.0000
  H   H891      1.0  0.50436  0.00625  0.66673  1.0000
  C   C565      1.0  0.50258  0.13882  0.63055  1.0000
  C   C566      1.0  0.67964  0.32589  0.94968  1.0000
  H   H892      1.0  0.69797  0.01753  0.75858  1.0000
  Fe  Fe116     1.0  0.74954  0.24332  0.93904  1.0000
  H   H893      1.0  0.51547  0.17515  0.64543  1.0000
  C   C567      1.0  0.74306  0.22094  0.00363  1.0000
  C   C568      1.0  0.61029  0.10565  0.51192  1.0000
  C   C569      1.0  0.64411  0.33630  0.96524  1.0000
  Fe  Fe117     1.0  0.60047  0.36447  0.13313  1.0000
  S   S230      1.0  0.61187  0.38147  0.10117  1.0000
  N   N56       1.0  0.67163  0.62121  0.08604  1.0000
  Fe  Fe118     1.0  0.55711  0.39011  0.13493  1.0000
  S   S231      1.0  0.56519  0.40959  0.10344  1.0000
  S   S232      1.0  0.52516  0.39517  0.15439  1.0000
  Fe  Fe119     1.0  0.57859  0.37791  0.09156  1.0000
  S   S233      1.0  0.56870  0.36767  0.05991  1.0000
  Fe  Fe120     1.0  0.59754  0.41172  0.11594  1.0000
  S   S234      1.0  0.61697  0.44135  0.11002  1.0000
  S   S235      1.0  0.56831  0.35817  0.12225  1.0000
  S   S236      1.0  0.58844  0.39503  0.14877  1.0000
  Fe  Fe121     1.0  0.61210  0.60155  0.14413  1.0000
  S   S237      1.0  0.60187  0.61031  0.11045  1.0000
  S   S238      1.0  0.62346  0.63117  0.15839  1.0000
  Fe  Fe122     1.0  0.59548  0.55609  0.14432  1.0000
  S   S239      1.0  0.58391  0.56199  0.11081  1.0000
  S   S240      1.0  0.58739  0.52408  0.16197  1.0000
  Fe  Fe123     1.0  0.61521  0.57736  0.10270  1.0000
  S   S241      1.0  0.63492  0.57259  0.07110  1.0000
  Fe  Fe124     1.0  0.57150  0.59420  0.12204  1.0000
  S   S242      1.0  0.54055  0.61078  0.11183  1.0000
  S   S243      1.0  0.62806  0.56941  0.13551  1.0000
  S   S244      1.0  0.58053  0.58738  0.15638  1.0000
  C   C570      1.0  0.65040  0.63882  0.15442  1.0000
  H   H894      1.0  0.58061  0.48044  0.01648  1.0000
  C   C571      1.0  0.68880  0.62995  0.14974  1.0000
  C   C572      1.0  0.66760  0.62338  0.15355  1.0000
  H   H895      1.0  0.63250  0.39954  0.02166  1.0000
  H   H896      1.0  0.53437  0.55608  0.11377  1.0000
  H   H897      1.0  0.66459  0.60636  0.15593  1.0000
  C   C573      1.0  0.51575  0.60299  0.12482  1.0000
  N   N57       1.0  0.66748  0.39948  0.13133  1.0000
  H   H898      1.0  0.70083  0.60258  0.07770  1.0000
  H   H899      1.0  0.55869  0.52303  0.12248  1.0000
  H   H900      1.0  0.52779  0.59321  0.15603  1.0000
  C   C574      1.0  0.66528  0.60594  0.10475  1.0000
  N   N58       1.0  0.56661  0.66555  0.14022  1.0000
  C   C575      1.0  0.56649  0.64475  0.15356  1.0000
  C   C576      1.0  0.50722  0.51630  0.14318  1.0000
  C   C577      1.0  0.60807  0.46427  0.12431  1.0000
  C   C578      1.0  0.59376  0.46259  0.14306  1.0000
  C   C579      1.0  0.58774  0.48096  0.15472  1.0000
  C   C580      1.0  0.59558  0.50117  0.14740  1.0000
  C   C581      1.0  0.60955  0.50291  0.12841  1.0000
  C   C582      1.0  0.61597  0.48445  0.11707  1.0000
  H   H901      1.0  0.58762  0.44709  0.14881  1.0000
  H   H902      1.0  0.57694  0.47952  0.16941  1.0000
  H   H903      1.0  0.61567  0.51841  0.12262  1.0000
  H   H904      1.0  0.62705  0.48587  0.10258  1.0000
  C   C583      1.0  0.62880  0.58181  0.02782  1.0000
  C   C584      1.0  0.62000  0.58288  0.04943  1.0000
  C   C585      1.0  0.59949  0.59262  0.05367  1.0000
  H   H905      1.0  0.65258  0.61337  0.11604  1.0000
  H   H906      1.0  0.59242  0.59328  0.07025  1.0000
  C   C586      1.0  0.60446  0.38583  0.03883  1.0000
  C   C587      1.0  0.58502  0.37649  0.03679  1.0000
  H   H907      1.0  0.67915  0.60045  0.11432  1.0000
  H   H908      1.0  0.60961  0.38773  0.05483  1.0000
  H   H909      1.0  0.65647  0.64141  0.06116  1.0000
  H   H910      1.0  0.55681  0.36876  0.17578  1.0000
  H   H911      1.0  0.51987  0.54972  0.16261  1.0000
  H   H912      1.0  0.57271  0.64612  0.16982  1.0000
  H   H913      1.0  0.54837  0.50123  0.14010  1.0000
  H   H914      1.0  0.70201  0.61789  0.14894  1.0000
  C   C588      1.0  0.53306  0.53922  0.15508  1.0000
  H   H915      1.0  0.70052  0.38745  0.12961  1.0000
  C   C589      1.0  0.58785  0.60143  0.03635  1.0000
  C   C590      1.0  0.65230  0.62996  0.07546  1.0000
  H   H916      1.0  0.64771  0.39461  0.16154  1.0000
  C   C591      1.0  0.67228  0.42180  0.13535  1.0000
  H   H917      1.0  0.65944  0.43371  0.12979  1.0000
  H   H918      1.0  0.67340  0.42363  0.15309  1.0000
  H   H919      1.0  0.68768  0.42652  0.12642  1.0000
  H   H920      1.0  0.65262  0.40918  0.10160  1.0000
  H   H921      1.0  0.69733  0.63324  0.10206  1.0000
  H   H922      1.0  0.53956  0.50620  0.11303  1.0000
  C   C592      1.0  0.68481  0.38412  0.13874  1.0000
  H   H923      1.0  0.64090  0.63868  0.08712  1.0000
  H   H924      1.0  0.56783  0.65019  0.10985  1.0000
  C   C593      1.0  0.66578  0.39801  0.10765  1.0000
  H   H925      1.0  0.63365  0.40560  0.13865  1.0000
  H   H926      1.0  0.68763  0.65113  0.08036  1.0000
  N   N59       1.0  0.54524  0.33824  0.18890  1.0000
  H   H927      1.0  0.67204  0.64799  0.10621  1.0000
  C   C594      1.0  0.64695  0.39405  0.14358  1.0000
  H   H928      1.0  0.67824  0.59615  0.06372  1.0000
  N   N60       1.0  0.52623  0.52885  0.13614  1.0000
  H   H929      1.0  0.57197  0.60894  0.03971  1.0000
  C   C595      1.0  0.55811  0.66276  0.11895  1.0000
  H   H930      1.0  0.55011  0.63849  0.15622  1.0000
  C   C596      1.0  0.59651  0.60018  0.01470  1.0000
  H   H931      1.0  0.68090  0.40228  0.09787  1.0000
  C   C597      1.0  0.52070  0.54565  0.11887  1.0000
  H   H932      1.0  0.52200  0.36470  0.12128  1.0000
  H   H933      1.0  0.50685  0.55645  0.12462  1.0000
  H   H934      1.0  0.56338  0.36693  0.01435  1.0000
  H   H935      1.0  0.56774  0.35856  0.20073  1.0000
  H   H936      1.0  0.69161  0.62069  0.05579  1.0000
  C   C598      1.0  0.51382  0.59495  0.14674  1.0000
  H   H937      1.0  0.60201  0.43568  0.01421  1.0000
  C   C599      1.0  0.69305  0.65199  0.14696  1.0000
  C   C600      1.0  0.68263  0.63917  0.09394  1.0000
  H   H938      1.0  0.65877  0.59121  0.09929  1.0000
  H   H939      1.0  0.57700  0.63229  0.14534  1.0000
  H   H940      1.0  0.68667  0.38493  0.15651  1.0000
  C   C601      1.0  0.50612  0.36845  0.12879  1.0000
  C   C602      1.0  0.57841  0.37413  0.01598  1.0000
  C   C603      1.0  0.61739  0.39251  0.02005  1.0000
  H   H941      1.0  0.64251  0.37751  0.14061  1.0000
  C   C604      1.0  0.67587  0.66746  0.14841  1.0000
  H   H942      1.0  0.64467  0.57431  0.02447  1.0000
  H   H943      1.0  0.68142  0.36711  0.13624  1.0000
  H   H944      1.0  0.54137  0.65735  0.12117  1.0000
  H   H945      1.0  0.64351  0.61682  0.06947  1.0000
  C   C605      1.0  0.68626  0.60969  0.07008  1.0000
  H   H946      1.0  0.56891  0.45735  0.00731  1.0000
  C   C606      1.0  0.50309  0.38346  0.14479  1.0000
  H   H947      1.0  0.66234  0.38136  0.10395  1.0000
  H   H948      1.0  0.51080  0.50354  0.15630  1.0000
  H   H949      1.0  0.51621  0.53841  0.10402  1.0000
  S   S245      1.0  0.71984  0.65930  0.14025  1.0000
  H   H950      1.0  0.54693  0.54943  0.15021  1.0000
  C   C607      1.0  0.65464  0.66088  0.15223  1.0000
  C   C608      1.0  0.56240  0.35373  0.18509  1.0000
  H   H951      1.0  0.53830  0.52697  0.16802  1.0000
  H   H952      1.0  0.61479  0.45855  0.02232  1.0000
  H   H953      1.0  0.51994  0.36319  0.19136  1.0000
  C   C609      1.0  0.54393  0.51419  0.12750  1.0000
  C   C610      1.0  0.61701  0.59037  0.01047  1.0000
  C   C611      1.0  0.61157  0.44972  0.00794  1.0000
  H   H954      1.0  0.57674  0.34675  0.17552  1.0000
  H   H955      1.0  0.64495  0.34772  0.11219  1.0000
  S   S246      1.0  0.61870  0.33825  0.15285  1.0000
  H   H956      1.0  0.53029  0.35380  0.21690  1.0000
  H   H957      1.0  0.53337  0.34631  0.15746  1.0000
  H   H958      1.0  0.59946  0.66058  0.12744  1.0000
  H   H959      1.0  0.50167  0.50817  0.12932  1.0000
  C   C612      1.0  0.52630  0.34854  0.20090  1.0000
  H   H960      1.0  0.51299  0.33735  0.20406  1.0000
  Fe  Fe125     1.0  0.56831  0.37975  0.92922  1.0000
  S   S247      1.0  0.57996  0.38810  0.89417  1.0000
  H   H961      1.0  0.58824  0.43680  0.97765  1.0000
  Fe  Fe126     1.0  0.60878  0.39433  0.94649  1.0000
  S   S248      1.0  0.62354  0.40417  0.91316  1.0000
  S   S249      1.0  0.62625  0.39945  0.97584  1.0000
  Fe  Fe127     1.0  0.59078  0.41842  0.90680  1.0000
  S   S250      1.0  0.58223  0.45210  0.89258  1.0000
  Fe  Fe128     1.0  0.61181  0.37282  0.90394  1.0000
  S   S251      1.0  0.57695  0.41107  0.94107  1.0000
  S   S252      1.0  0.59922  0.36201  0.93802  1.0000
  Fe  Fe129     1.0  0.57389  0.59288  0.91777  1.0000
  S   S253      1.0  0.60544  0.57949  0.90266  1.0000
  S   S254      1.0  0.54559  0.59906  0.89727  1.0000
  Fe  Fe130     1.0  0.59196  0.59855  0.96064  1.0000
  S   S255      1.0  0.62504  0.58599  0.94933  1.0000
  S   S256      1.0  0.58152  0.61121  0.99332  1.0000
  Fe  Fe131     1.0  0.62003  0.60610  0.91823  1.0000
  S   S257      1.0  0.64739  0.62234  0.89818  1.0000
  Fe  Fe132     1.0  0.60804  0.56037  0.93476  1.0000
  S   S258      1.0  0.62345  0.52648  0.93736  1.0000
  S   S259      1.0  0.58828  0.62102  0.93074  1.0000
  S   S260      1.0  0.57518  0.57128  0.94869  1.0000
  C   C613      1.0  0.65653  0.64699  0.90574  1.0000
  H   H962      1.0  0.70769  0.66617  0.97175  1.0000
  C   C614      1.0  0.64396  0.66001  0.92005  1.0000
  C   C615      1.0  0.67478  0.35371  0.97541  1.0000
  N   N61       1.0  0.60015  0.46387  0.99177  1.0000
  N   N62       1.0  0.66963  0.55164  0.88980  1.0000
  N   N63       1.0  0.58427  0.65089  0.86814  1.0000
  H   H963      1.0  0.64982  0.56434  0.91646  1.0000
  H   H964      1.0  0.62394  0.58962  0.99390  1.0000
  H   H965      1.0  0.70377  0.55450  0.88793  1.0000
  H   H966      1.0  0.62866  0.65474  0.92735  1.0000
  C   C616      1.0  0.58296  0.66226  0.84625  1.0000
  H   H967      1.0  0.65639  0.52052  0.89758  1.0000
  H   H968      1.0  0.66841  0.56728  0.85740  1.0000
  H   H969      1.0  0.58570  0.37948  0.98127  1.0000
  C   C617      1.0  0.59383  0.47285  0.90477  1.0000
  C   C618      1.0  0.61165  0.46829  0.91689  1.0000
  C   C619      1.0  0.62078  0.48496  0.92648  1.0000
  C   C620      1.0  0.61188  0.50621  0.92445  1.0000
  C   C621      1.0  0.59404  0.51084  0.91236  1.0000
  C   C622      1.0  0.58514  0.49420  0.90239  1.0000
  H   H970      1.0  0.61860  0.45194  0.91858  1.0000
  H   H971      1.0  0.63479  0.48134  0.93551  1.0000
  H   H972      1.0  0.58708  0.52721  0.91070  1.0000
  H   H973      1.0  0.57139  0.49785  0.89298  1.0000
  C   C623      1.0  0.59111  0.38118  0.99724  1.0000
  C   C624      1.0  0.51372  0.36911  0.90612  1.0000
  H   H974      1.0  0.65618  0.53023  0.86925  1.0000
  H   H975      1.0  0.60372  0.65074  0.89539  1.0000
  H   H976      1.0  0.61536  0.49253  0.99858  1.0000
  C   C625      1.0  0.52100  0.46099  0.88654  1.0000
  C   C626      1.0  0.52030  0.59623  0.91205  1.0000
  C   C627      1.0  0.53176  0.42422  0.87858  1.0000
  C   C628      1.0  0.61283  0.48282  0.98461  1.0000
  H   H977      1.0  0.53277  0.59462  0.94372  1.0000
  H   H978      1.0  0.56997  0.48211  0.99013  1.0000
  H   H979      1.0  0.69508  0.52789  0.89648  1.0000
  H   H980      1.0  0.67744  0.57027  0.91594  1.0000
  H   H981      1.0  0.52637  0.42674  0.86175  1.0000
  H   H982      1.0  0.57496  0.62071  0.85772  1.0000
  H   H983      1.0  0.66894  0.54345  0.92453  1.0000
  H   H984      1.0  0.64937  0.57834  0.87775  1.0000
  S   S261      1.0  0.63643  0.35301  0.88357  1.0000
  C   C629      1.0  0.58810  0.62744  0.86581  1.0000
  H   H985      1.0  0.61286  0.44608  0.96437  1.0000
  H   H986      1.0  0.69480  0.53779  0.86826  1.0000
  C   C630      1.0  0.60216  0.65899  0.87887  1.0000
  H   H987      1.0  0.62891  0.47786  0.97685  1.0000
  S   S262      1.0  0.53569  0.36946  0.94329  1.0000
  H   H988      1.0  0.56418  0.64633  0.89818  1.0000
  H   H989      1.0  0.67701  0.58395  0.87739  1.0000
  H   H990      1.0  0.63736  0.54158  0.88962  1.0000
  C   C631      1.0  0.69181  0.54255  0.88541  1.0000
  C   C632      1.0  0.65428  0.53529  0.88632  1.0000
  H   H991      1.0  0.52888  0.36435  0.89751  1.0000
  H   H992      1.0  0.55007  0.64847  0.87411  1.0000
  H   H993      1.0  0.53071  0.40674  0.88383  1.0000
  N   N64       1.0  0.51879  0.43796  0.89396  1.0000
  H   H994      1.0  0.65547  0.35430  0.92536  1.0000
  C   C633      1.0  0.61062  0.39030  0.99927  1.0000
  C   C634      1.0  0.66598  0.57109  0.87487  1.0000
  H   H995      1.0  0.52562  0.41646  0.92195  1.0000
  N   N65       1.0  0.66540  0.34415  0.95734  1.0000
  C   C635      1.0  0.66644  0.55768  0.91269  1.0000
  C   C636      1.0  0.51859  0.59437  0.93494  1.0000
  H   H996      1.0  0.61788  0.65606  0.86932  1.0000
  C   C637      1.0  0.51294  0.37323  0.92826  1.0000
  C   C638      1.0  0.67641  0.65409  0.89650  1.0000
  H   H997      1.0  0.54904  0.42782  0.87752  1.0000
  H   H998      1.0  0.62721  0.44299  0.00056  1.0000
  H   H999      1.0  0.66428  0.36747  0.98160  1.0000
  C   C639      1.0  0.50164  0.59613  0.90090  1.0000
  H   H1000     1.0  0.58818  0.46151  0.96026  1.0000
  H   H1001     1.0  0.51539  0.46469  0.86990  1.0000
  H   H1002     1.0  0.58863  0.61846  0.88206  1.0000
  H   H1003     1.0  0.59811  0.65956  0.83569  1.0000
  H   H1004     1.0  0.60465  0.49383  0.97236  1.0000
  H   H1005     1.0  0.68624  0.64418  0.88536  1.0000
  H   H1006     1.0  0.60359  0.62368  0.85621  1.0000
  C   C640      1.0  0.56383  0.65478  0.88158  1.0000
  H   H1007     1.0  0.53805  0.46538  0.88575  1.0000
  H   H1008     1.0  0.51155  0.47185  0.89785  1.0000
  H   H1009     1.0  0.65274  0.37498  0.94431  1.0000
  C   C641      1.0  0.59717  0.45158  0.97267  1.0000
  H   H1010     1.0  0.54342  0.43804  0.91619  1.0000
  H   H1011     1.0  0.69078  0.35997  0.97000  1.0000
  H   H1012     1.0  0.56963  0.65650  0.83772  1.0000
  H   H1013     1.0  0.51671  0.44351  0.92824  1.0000
  C   C642      1.0  0.52643  0.43382  0.91607  1.0000
  H   H1014     1.0  0.67684  0.34158  0.98947  1.0000
  H   H1015     1.0  0.67881  0.36669  0.93224  1.0000
  C   C643      1.0  0.57896  0.47127  0.00187  1.0000
  H   H1016     1.0  0.63300  0.34970  0.97122  1.0000
  C   C644      1.0  0.66303  0.36077  0.93905  1.0000
  H   H1017     1.0  0.50283  0.59758  0.88320  1.0000
  Fe  Fe133     1.0  0.55061  0.87247  0.39618  1.0000
  S   S263      1.0  0.57569  0.85615  0.41663  1.0000
  S   S264      1.0  0.53267  0.85308  0.37496  1.0000
  Fe  Fe134     1.0  0.56183  0.91685  0.40641  1.0000
  S   S265      1.0  0.58813  0.90460  0.42754  1.0000
  S   S266      1.0  0.55152  0.95152  0.39833  1.0000
  Fe  Fe135     1.0  0.59727  0.88166  0.40131  1.0000
  S   S267      1.0  0.63216  0.87177  0.39231  1.0000
  Fe  Fe136     1.0  0.56452  0.88028  0.44116  1.0000
  S   S268      1.0  0.55819  0.86873  0.47670  1.0000
  S   S269      1.0  0.57307  0.89614  0.37888  1.0000
  S   S270      1.0  0.53739  0.89434  0.42196  1.0000
  H   H1018     1.0  0.72368  0.76783  0.02938  1.0000
  S   S271      1.0  0.70791  0.72291  0.13067  1.0000
  H   H1019     1.0  0.71211  0.93705  0.26708  1.0000
  C   C645      1.0  0.73725  0.73932  0.04645  1.0000
  Fe  Fe137     1.0  0.72995  0.69407  0.13866  1.0000
  H   H1020     1.0  0.58963  0.68843  0.12685  1.0000
  Fe  Fe138     1.0  0.72395  0.73897  0.15628  1.0000
  S   S272      1.0  0.70804  0.75687  0.18482  1.0000
  Fe  Fe139     1.0  0.70482  0.87756  0.28112  1.0000
  S   S273      1.0  0.71490  0.89426  0.24832  1.0000
  S   S274      1.0  0.67061  0.88751  0.29350  1.0000
  H   H1021     1.0  0.63769  0.84061  0.49101  1.0000
  H   H1022     1.0  0.67160  0.85479  0.45507  1.0000
  H   H1023     1.0  0.68095  0.93099  0.23390  1.0000
  C   C646      1.0  0.66492  0.96429  0.25731  1.0000
  Fe  Fe140     1.0  0.73092  0.86223  0.24001  1.0000
  H   H1024     1.0  0.55909  0.68445  0.16802  1.0000
  S   S275      1.0  0.73417  0.88583  0.29679  1.0000
  S   S276      1.0  0.71837  0.84479  0.27141  1.0000
  H   H1025     1.0  0.63792  0.88753  0.43635  1.0000
  S   S277      1.0  0.73340  0.85041  0.20582  1.0000
  C   C647      1.0  0.61752  0.85321  0.45472  1.0000
  C   C648      1.0  0.65615  0.84924  0.45046  1.0000
  C   C649      1.0  0.71526  0.78290  0.19039  1.0000
  C   C650      1.0  0.70873  0.79080  0.21089  1.0000
  C   C651      1.0  0.71442  0.81132  0.21600  1.0000
  C   C652      1.0  0.72637  0.82428  0.20044  1.0000
  H   H1026     1.0  0.65867  0.97515  0.24378  1.0000
  C   C653      1.0  0.72748  0.79574  0.17496  1.0000
  H   H1027     1.0  0.69921  0.78100  0.22289  1.0000
  H   H1028     1.0  0.70924  0.81726  0.23181  1.0000
  H   H1029     1.0  0.59660  0.97573  0.40700  1.0000
  H   H1030     1.0  0.61587  0.83584  0.46012  1.0000
  H   H1031     1.0  0.51103  0.92430  0.39214  1.0000
  H   H1032     1.0  0.64149  0.67297  0.15333  1.0000
  H   H1033     1.0  0.70046  0.67266  0.01132  1.0000
  C   C654      1.0  0.66070  0.88347  0.32123  1.0000
  C   C655      1.0  0.64036  0.89268  0.32788  1.0000
  C   C656      1.0  0.63166  0.88949  0.34969  1.0000
  C   C657      1.0  0.64312  0.87683  0.36500  1.0000
  C   C658      1.0  0.66351  0.86771  0.35841  1.0000
  C   C659      1.0  0.67231  0.87104  0.33660  1.0000
  H   H1034     1.0  0.63136  0.90242  0.31611  1.0000
  H   H1035     1.0  0.61617  0.89698  0.35465  1.0000
  H   H1036     1.0  0.67253  0.85793  0.37014  1.0000
  H   H1037     1.0  0.68799  0.86384  0.33165  1.0000
  C   C660      1.0  0.55468  0.96844  0.41922  1.0000
  H   H1038     1.0  0.62389  0.86645  0.49391  1.0000
  H   H1039     1.0  0.59603  0.67408  0.15225  1.0000
  C   C661      1.0  0.56846  0.97446  0.45381  1.0000
  C   C662      1.0  0.56323  0.96026  0.43864  1.0000
  H   H1040     1.0  0.50954  0.95195  0.38148  1.0000
  H   H1041     1.0  0.56632  0.94308  0.44179  1.0000
  H   H1042     1.0  0.62058  0.82078  0.33063  1.0000
  Fe  Fe141     1.0  0.74880  0.85448  0.28407  1.0000
  H   H1043     1.0  0.68540  0.92863  0.27384  1.0000
  H   H1044     1.0  0.69145  0.69932  0.01925  1.0000
  H   H1045     1.0  0.62489  0.89415  0.46236  1.0000
  H   H1046     1.0  0.69523  0.98837  0.23582  1.0000
  H   H1047     1.0  0.68457  0.95619  0.21785  1.0000
  H   H1048     1.0  0.62432  0.84919  0.32996  1.0000
  C   C663      1.0  0.63855  0.88454  0.45441  1.0000
  H   H1049     1.0  0.73559  0.94503  0.29595  1.0000
  C   C664      1.0  0.55302  0.68198  0.15192  1.0000
  H   H1050     1.0  0.72332  0.98102  0.30893  1.0000
  H   H1051     1.0  0.67893  0.68448  0.14648  1.0000
  C   C665      1.0  0.74064  0.95960  0.28666  1.0000
  C   C666      1.0  0.61306  0.83704  0.32615  1.0000
  Fe  Fe142     1.0  0.73543  0.73356  0.10694  1.0000
  H   H1052     1.0  0.66264  0.97318  0.27250  1.0000
  H   H1053     1.0  0.65265  0.86444  0.49097  1.0000
  H   H1054     1.0  0.71790  0.97234  0.24500  1.0000
  N   N66       1.0  0.59171  0.84043  0.33807  1.0000
  C   C667      1.0  0.57743  0.82370  0.33305  1.0000
  C   C668      1.0  0.59402  0.83898  0.36186  1.0000
  C   C669      1.0  0.58225  0.86204  0.33132  1.0000
  H   H1055     1.0  0.58391  0.80717  0.33818  1.0000
  H   H1056     1.0  0.57533  0.82422  0.31522  1.0000
  H   H1057     1.0  0.56116  0.82600  0.34180  1.0000
  H   H1058     1.0  0.60412  0.85179  0.36637  1.0000
  H   H1059     1.0  0.60164  0.82312  0.36751  1.0000
  H   H1060     1.0  0.57815  0.84088  0.37135  1.0000
  H   H1061     1.0  0.58007  0.86366  0.31348  1.0000
  H   H1062     1.0  0.59262  0.87508  0.33477  1.0000
  H   H1063     1.0  0.56622  0.86519  0.34022  1.0000
  C   C670      1.0  0.63803  0.85803  0.48531  1.0000
  H   H1064     1.0  0.73244  0.78996  0.15906  1.0000
  H   H1065     1.0  0.51016  0.93586  0.42957  1.0000
  C   C671      1.0  0.74032  0.99921  0.28236  1.0000
  H   H1066     1.0  0.70733  0.94075  0.22781  1.0000
  C   C672      1.0  0.69019  0.94589  0.23206  1.0000
  N   N67       1.0  0.68773  0.95755  0.25231  1.0000
  H   H1067     1.0  0.58747  0.90359  0.47493  1.0000
  C   C673      1.0  0.73232  0.75234  0.02760  1.0000
  H   H1068     1.0  0.65359  0.89112  0.45885  1.0000
  H   H1069     1.0  0.65479  0.95003  0.25987  1.0000
  H   H1070     1.0  0.61695  0.85490  0.43663  1.0000
  C   C674      1.0  0.58614  0.89606  0.49135  1.0000
  H   H1071     1.0  0.61206  0.83846  0.30810  1.0000
  H   H1072     1.0  0.69975  0.98581  0.26439  1.0000
  H   H1073     1.0  0.69432  0.95148  0.28611  1.0000
  H   H1074     1.0  0.57580  0.96816  0.46847  1.0000
  C   C675      1.0  0.73285  0.81640  0.17993  1.0000
  N   N68       1.0  0.63757  0.86125  0.46126  1.0000
  C   C676      1.0  0.70066  0.97686  0.24925  1.0000
  C   C677      1.0  0.69519  0.94308  0.27066  1.0000
  H   H1075     1.0  0.60815  0.97142  0.37991  1.0000
  C   C678      1.0  0.61120  0.97799  0.39565  1.0000
  S   S278      1.0  0.74383  0.70906  0.16626  1.0000
  H   H1076     1.0  0.62452  0.96788  0.40274  1.0000
  H   H1077     1.0  0.60316  0.86233  0.46201  1.0000
  H   H1078     1.0  0.65581  0.83156  0.45498  1.0000
  C   C679      1.0  0.54997  0.99067  0.41570  1.0000
  C   C680      1.0  0.73380  0.98003  0.29406  1.0000
  C   C681      1.0  0.50450  0.85150  0.37912  1.0000
  S   S279      1.0  0.72954  0.74898  0.07270  1.0000
  C   C682      1.0  0.57224  0.87933  0.49673  1.0000
  H   H1079     1.0  0.50494  0.82540  0.35792  1.0000
  H   H1080     1.0  0.65625  0.85155  0.43225  1.0000
  C   C683      1.0  0.58886  0.67256  0.13648  1.0000
  H   H1081     1.0  0.55264  0.69789  0.14228  1.0000
  Fe  Fe143     1.0  0.74481  0.90099  0.26362  1.0000
  H   H1082     1.0  0.65005  0.99422  0.38544  1.0000
  H   H1083     1.0  0.63470  0.99734  0.36182  1.0000
  H   H1084     1.0  0.54298  0.99704  0.40087  1.0000
  N   N69       1.0  0.61618  0.00103  0.39259  1.0000
  H   H1085     1.0  0.60930  0.91584  0.50308  1.0000
  S   S280      1.0  0.74924  0.75236  0.13202  1.0000
  C   C684      1.0  0.74839  0.71932  0.04388  1.0000
  C   C685      1.0  0.56499  0.99682  0.44963  1.0000
  H   H1086     1.0  0.63190  0.99980  0.42252  1.0000
  H   H1087     1.0  0.55806  0.67805  0.10829  1.0000
  H   H1088     1.0  0.73925  0.75560  0.22317  1.0000
  H   H1089     1.0  0.71827  0.69441  0.00735  1.0000
  H   H1090     1.0  0.74201  0.82638  0.16778  1.0000
  H   H1091     1.0  0.50835  0.96370  0.41969  1.0000
  H   H1092     1.0  0.53618  0.67703  0.15512  1.0000
  C   C686      1.0  0.70130  0.69025  0.00664  1.0000
  C   C687      1.0  0.73858  0.74564  0.00643  1.0000
  C   C688      1.0  0.63620  0.00332  0.37820  1.0000
  Fe  Fe144     1.0  0.56535  0.87293  0.61357  1.0000
  S   S281      1.0  0.59875  0.86190  0.60113  1.0000
  S   S282      1.0  0.53767  0.85120  0.61386  1.0000
  Fe  Fe145     1.0  0.57900  0.91683  0.62247  1.0000
  S   S283      1.0  0.61347  0.90975  0.61077  1.0000
  S   S284      1.0  0.56630  0.94815  0.63571  1.0000
  Fe  Fe146     1.0  0.59963  0.89473  0.58333  1.0000
  S   S285      1.0  0.61265  0.90184  0.54834  1.0000
  Fe  Fe147     1.0  0.60962  0.87779  0.62983  1.0000
  S   S286      1.0  0.63573  0.86059  0.64938  1.0000
  S   S287      1.0  0.56545  0.90456  0.59357  1.0000
  S   S288      1.0  0.57603  0.88597  0.64375  1.0000
  Fe  Fe148     1.0  0.71024  0.89125  0.74092  1.0000
  S   S289      1.0  0.71115  0.90245  0.77486  1.0000
  S   S290      1.0  0.67852  0.90137  0.72613  1.0000
  Fe  Fe149     1.0  0.72557  0.86898  0.78330  1.0000
  H   H1093     1.0  0.62025  0.94157  0.67330  1.0000
  Fe  Fe150     1.0  0.71269  0.72464  0.91480  1.0000
  S   S291      1.0  0.72050  0.75059  0.93626  1.0000
  H   H1094     1.0  0.59990  0.67665  0.88095  1.0000
  H   H1095     1.0  0.65797  0.94344  0.68087  1.0000
  H   H1096     1.0  0.62673  0.85281  0.75956  1.0000
  C   C689      1.0  0.72410  0.99367  0.78763  1.0000
  C   C690      1.0  0.51281  0.86409  0.62215  1.0000
  S   S292      1.0  0.72956  0.74057  0.88447  1.0000
  H   H1097     1.0  0.68321  0.84342  0.77305  1.0000
  N   N70       1.0  0.57580  0.81269  0.65401  1.0000
  H   H1098     1.0  0.64090  0.69042  0.93520  1.0000
  H   H1099     1.0  0.71201  0.72435  0.97872  1.0000
  C   C691      1.0  0.72033  0.83236  0.83196  1.0000
  C   C692      1.0  0.71121  0.81348  0.84171  1.0000
  C   C693      1.0  0.71892  0.80298  0.86082  1.0000
  C   C694      1.0  0.73543  0.81163  0.87071  1.0000
  H   H1100     1.0  0.66062  0.69839  0.99577  1.0000
  H   H1101     1.0  0.66755  0.95555  0.62048  1.0000
  C   C695      1.0  0.73731  0.84065  0.84144  1.0000
  H   H1102     1.0  0.71162  0.78859  0.86829  1.0000
  H   H1103     1.0  0.64005  0.95371  0.61515  1.0000
  H   H1104     1.0  0.67556  0.87540  0.79511  1.0000
  C   C696      1.0  0.55729  0.82676  0.66195  1.0000
  Fe  Fe151     1.0  0.74958  0.72908  0.94321  1.0000
  C   C697      1.0  0.57551  0.79153  0.66674  1.0000
  C   C698      1.0  0.64743  0.87201  0.67080  1.0000
  C   C699      1.0  0.66797  0.86427  0.67637  1.0000
  C   C700      1.0  0.67773  0.87296  0.69335  1.0000
  C   C701      1.0  0.66694  0.88941  0.70500  1.0000
  C   C702      1.0  0.64622  0.89681  0.69975  1.0000
  C   C703      1.0  0.63646  0.88810  0.68282  1.0000
  H   H1105     1.0  0.67650  0.85165  0.66733  1.0000
  H   H1106     1.0  0.69367  0.86707  0.69725  1.0000
  H   H1107     1.0  0.63763  0.90933  0.70887  1.0000
  H   H1108     1.0  0.62032  0.89356  0.67929  1.0000
  C   C704      1.0  0.58017  0.97035  0.62394  1.0000
  C   C705      1.0  0.59616  0.96794  0.60679  1.0000
  C   C706      1.0  0.60914  0.98515  0.59966  1.0000
  H   H1109     1.0  0.64932  0.88867  0.79665  1.0000
  H   H1110     1.0  0.58928  0.78054  0.66115  1.0000
  C   C707      1.0  0.64232  0.97420  0.65202  1.0000
  H   H1111     1.0  0.59874  0.95277  0.59923  1.0000
  H   H1112     1.0  0.62194  0.98306  0.58688  1.0000
  H   H1113     1.0  0.74432  0.85529  0.83422  1.0000
  C   C708      1.0  0.70817  0.68398  0.96836  1.0000
  H   H1114     1.0  0.55731  0.82898  0.67974  1.0000
  H   H1115     1.0  0.70329  0.68788  0.95147  1.0000
  C   C709      1.0  0.59632  0.89377  0.52888  1.0000
  C   C710      1.0  0.58182  0.87760  0.53444  1.0000
  C   C711      1.0  0.51179  0.88513  0.62893  1.0000
  S   S293      1.0  0.74294  0.90278  0.73002  1.0000
  H   H1116     1.0  0.58013  0.87038  0.55104  1.0000
  H   H1117     1.0  0.61228  0.94718  0.64607  1.0000
  C   C712      1.0  0.66902  0.84896  0.76399  1.0000
  H   H1118     1.0  0.63715  0.97742  0.66930  1.0000
  H   H1119     1.0  0.56374  0.99236  0.64603  1.0000
  N   N71       1.0  0.65247  0.86036  0.77818  1.0000
  H   H1120     1.0  0.56048  0.78335  0.66498  1.0000
  H   H1121     1.0  0.68548  0.72885  0.99155  1.0000
  H   H1122     1.0  0.65559  0.92978  0.62347  1.0000
  S   S294      1.0  0.72331  0.85755  0.74970  1.0000
  H   H1123     1.0  0.69801  0.80701  0.83455  1.0000
  H   H1124     1.0  0.55749  0.84313  0.65328  1.0000
  H   H1125     1.0  0.57526  0.82498  0.62043  1.0000
  H   H1126     1.0  0.67811  0.94909  0.65887  1.0000
  N   N72       1.0  0.64577  0.95075  0.64927  1.0000
  C   C713      1.0  0.66259  0.94138  0.66321  1.0000
  C   C714      1.0  0.65257  0.94730  0.62609  1.0000
  H   H1127     1.0  0.65715  0.98295  0.64705  1.0000
  C   C715      1.0  0.62553  0.94005  0.65570  1.0000
  N   N73       1.0  0.69409  0.69580  0.98454  1.0000
  C   C716      1.0  0.75011  0.72585  0.00385  1.0000
  H   H1128     1.0  0.66599  0.69390  0.96725  1.0000
  H   H1129     1.0  0.66284  0.83444  0.75767  1.0000
  H   H1130     1.0  0.65982  0.84067  0.80713  1.0000
  C   C717      1.0  0.59836  0.90308  0.50734  1.0000
  H   H1131     1.0  0.68923  0.72424  0.96298  1.0000
  S   S295      1.0  0.74474  0.79959  0.89542  1.0000
  H   H1132     1.0  0.66555  0.92368  0.66143  1.0000
  H   H1133     1.0  0.73478  0.75595  0.99213  1.0000
  C   C718      1.0  0.74464  0.83045  0.86091  1.0000
  H   H1134     1.0  0.70870  0.99598  0.79679  1.0000
  C   C719      1.0  0.59593  0.82305  0.65671  1.0000
  H   H1135     1.0  0.61034  0.81313  0.65069  1.0000
  H   H1136     1.0  0.59761  0.82592  0.67412  1.0000
  H   H1137     1.0  0.59657  0.83905  0.64731  1.0000
  H   H1138     1.0  0.66636  0.89122  0.77172  1.0000
  H   H1139     1.0  0.54174  0.82010  0.65908  1.0000
  C   C720      1.0  0.66129  0.87976  0.78574  1.0000
  C   C721      1.0  0.57446  0.80943  0.63058  1.0000
  Fe  Fe152     1.0  0.74016  0.76429  0.90652  1.0000
  H   H1140     1.0  0.52634  0.89353  0.62947  1.0000
  H   H1141     1.0  0.55914  0.85742  0.52263  1.0000
  H   H1142     1.0  0.57653  0.79339  0.68449  1.0000
  H   H1143     1.0  0.58787  0.79849  0.62413  1.0000
  C   C722      1.0  0.57624  0.99035  0.63292  1.0000
  C   C723      1.0  0.69523  0.71933  0.97925  1.0000
  H   H1144     1.0  0.63344  0.85379  0.80853  1.0000
  S   S296      1.0  0.67860  0.71319  0.92101  1.0000
  H   H1145     1.0  0.62727  0.92256  0.65283  1.0000
  C   C724      1.0  0.56994  0.87030  0.51835  1.0000
  S   S297      1.0  0.70912  0.84554  0.80870  1.0000
  H   H1146     1.0  0.55904  0.80251  0.62770  1.0000
  C   C725      1.0  0.64589  0.84575  0.79738  1.0000
  H   H1147     1.0  0.62103  0.87582  0.77570  1.0000
  Fe  Fe153     1.0  0.74481  0.91187  0.76447  1.0000
  H   H1148     1.0  0.63933  0.83080  0.79237  1.0000
  C   C726      1.0  0.63381  0.86701  0.76559  1.0000
  H   H1149     1.0  0.62961  0.98166  0.64178  1.0000
  H   H1150     1.0  0.67477  0.85963  0.74957  1.0000
  H   H1151     1.0  0.63856  0.87800  0.75098  1.0000
  H   H1152     1.0  0.72189  0.95899  0.78736  1.0000
  C   C727      1.0  0.73153  0.97264  0.78227  1.0000
  C   C728      1.0  0.67087  0.68734  0.91531  1.0000
  S   S298      1.0  0.74121  0.70278  0.92247  1.0000
  H   H1153     1.0  0.50875  0.85193  0.55235  1.0000
  H   H1154     1.0  0.58008  0.68003  0.84740  1.0000
  H   H1155     1.0  0.69900  0.67940  0.89417  1.0000
  H   H1156     1.0  0.72518  0.68824  0.96840  1.0000
  C   C729      1.0  0.65099  0.68020  0.92457  1.0000
  C   C730      1.0  0.67173  0.68973  0.98382  1.0000
  C   C731      1.0  0.68370  0.67406  0.90147  1.0000
  H   H1157     1.0  0.50349  0.98408  0.63475  1.0000
  H   H1158     1.0  0.67022  0.67204  0.98746  1.0000
  H   H1159     1.0  0.50517  0.86662  0.57652  1.0000
  H   H1160     1.0  0.56025  0.67230  0.88372  1.0000
  C   C732      1.0  0.92966  0.26955  0.30158  1.0000
  H   H1161     1.0  0.83229  0.31788  0.24248  1.0000
  S   S299      1.0  0.80770  0.24950  0.13219  1.0000
  C   C733      1.0  0.98920  0.23767  0.25372  1.0000
  H   H1162     1.0  0.92892  0.24778  0.34092  1.0000
  H   H1163     1.0  0.94884  0.29154  0.34452  1.0000
  H   H1164     1.0  0.78283  0.14197  0.20044  1.0000
  S   S300      1.0  0.79795  0.10580  0.29954  1.0000
  H   H1165     1.0  0.88268  0.28834  0.20139  1.0000
  H   H1166     1.0  0.92145  0.28734  0.34033  1.0000
  H   H1167     1.0  0.83798  0.21433  0.07201  1.0000
  Fe  Fe154     1.0  0.85820  0.21681  0.28406  1.0000
  S   S301      1.0  0.88354  0.20299  0.25990  1.0000
  S   S302      1.0  0.82662  0.20267  0.29749  1.0000
  Fe  Fe155     1.0  0.87797  0.26119  0.28074  1.0000
  S   S303      1.0  0.90394  0.25072  0.25569  1.0000
  S   S304      1.0  0.87888  0.29625  0.28860  1.0000
  Fe  Fe156     1.0  0.87802  0.23479  0.24041  1.0000
  S   S305      1.0  0.87670  0.23988  0.20349  1.0000
  Fe  Fe157     1.0  0.90722  0.22039  0.27740  1.0000
  S   S306      1.0  0.93963  0.20847  0.28990  1.0000
  S   S307      1.0  0.85196  0.24788  0.26361  1.0000
  S   S308      1.0  0.88205  0.23153  0.30338  1.0000
  C   C734      1.0  0.96520  0.21822  0.28056  1.0000
  C   C735      1.0  0.96853  0.23081  0.26085  1.0000
  H   H1168     1.0  0.78442  0.11758  0.23318  1.0000
  H   H1169     1.0  0.96676  0.28962  0.29689  1.0000
  C   C736      1.0  0.98269  0.21313  0.29333  1.0000
  H   H1170     1.0  0.95530  0.23480  0.25078  1.0000
  H   H1171     1.0  0.81669  0.27042  0.05790  1.0000
  H   H1172     1.0  0.98028  0.20351  0.30868  1.0000
  C   C737      1.0  0.80583  0.13283  0.29818  1.0000
  C   C738      1.0  0.79065  0.15028  0.29891  1.0000
  C   C739      1.0  0.79734  0.17154  0.29859  1.0000
  C   C740      1.0  0.81926  0.17565  0.29693  1.0000
  C   C741      1.0  0.83448  0.15825  0.29561  1.0000
  C   C742      1.0  0.82776  0.13690  0.29652  1.0000
  H   H1173     1.0  0.77374  0.14741  0.30011  1.0000
  H   H1174     1.0  0.78547  0.18491  0.29967  1.0000
  H   H1175     1.0  0.85140  0.16119  0.29451  1.0000
  H   H1176     1.0  0.83962  0.12349  0.29600  1.0000
  H   H1177     1.0  0.86849  0.27322  0.33106  1.0000
  C   C743      1.0  0.82533  0.24606  0.15354  1.0000
  C   C744      1.0  0.81881  0.24100  0.17575  1.0000
  C   C745      1.0  0.83420  0.23867  0.19162  1.0000
  C   C746      1.0  0.85606  0.24141  0.18520  1.0000
  C   C747      1.0  0.86223  0.24642  0.16308  1.0000
  C   C748      1.0  0.84710  0.24873  0.14748  1.0000
  H   H1178     1.0  0.80203  0.23891  0.18066  1.0000
  H   H1179     1.0  0.82919  0.23478  0.20867  1.0000
  H   H1180     1.0  0.87897  0.24858  0.15788  1.0000
  H   H1181     1.0  0.85239  0.25264  0.13049  1.0000
  N   N74       1.0  0.85536  0.30397  0.21872  1.0000
  H   H1182     1.0  0.82347  0.29673  0.21195  1.0000
  H   H1183     1.0  0.75351  0.13790  0.17461  1.0000
  H   H1184     1.0  0.92850  0.28466  0.29070  1.0000
  H   H1185     1.0  0.99166  0.24694  0.23817  1.0000
  H   H1186     1.0  0.76162  0.15101  0.23569  1.0000
  C   C749      1.0  0.87512  0.29494  0.35526  1.0000
  C   C750      1.0  0.87436  0.28875  0.33376  1.0000
  C   C751      1.0  0.88054  0.30294  0.31587  1.0000
  H   H1187     1.0  0.86990  0.28404  0.36900  1.0000
  H   H1188     1.0  0.93471  0.25600  0.29108  1.0000
  H   H1189     1.0  0.81315  0.17861  0.23049  1.0000
  Fe  Fe158     1.0  0.76574  0.09729  0.28916  1.0000
  C   C752      1.0  0.77565  0.15980  0.23939  1.0000
  H   H1190     1.0  0.93665  0.30507  0.32145  1.0000
  H   H1191     1.0  0.83982  0.27381  0.22167  1.0000
  C   C753      1.0  0.88255  0.31511  0.35908  1.0000
  S   S309      1.0  0.75637  0.26246  0.10263  1.0000
  H   H1192     1.0  0.84785  0.29476  0.25285  1.0000
  H   H1193     1.0  0.97227  0.26090  0.29762  1.0000
  H   H1194     1.0  0.86114  0.32023  0.18685  1.0000
  H   H1195     1.0  0.76953  0.11020  0.37341  1.0000
  C   C754      1.0  0.85589  0.32392  0.20402  1.0000
  N   N75       1.0  0.94475  0.27115  0.31851  1.0000
  H   H1196     1.0  0.86724  0.33531  0.20917  1.0000
  H   H1197     1.0  0.95036  0.23668  0.32328  1.0000
  H   H1198     1.0  0.77539  0.15960  0.25752  1.0000
  H   H1199     1.0  0.77917  0.22676  0.07276  1.0000
  C   C755      1.0  0.79595  0.15118  0.20567  1.0000
  C   C756      1.0  0.93765  0.28957  0.33178  1.0000
  H   H1200     1.0  0.95634  0.25148  0.34582  1.0000
  S   S310      1.0  0.75801  0.21461  0.12893  1.0000
  C   C757      1.0  0.79788  0.12671  0.23789  1.0000
  H   H1201     1.0  0.76298  0.26857  0.01348  1.0000
  Fe  Fe159     1.0  0.77168  0.24674  0.13220  1.0000
  C   C758      1.0  0.96648  0.27450  0.30784  1.0000
  N   N76       1.0  0.79594  0.14972  0.22978  1.0000
  H   H1202     1.0  0.82984  0.15402  0.22921  1.0000
  H   H1203     1.0  0.84515  0.24156  0.06385  1.0000
  H   H1204     1.0  0.76156  0.11514  0.33455  1.0000
  C   C759      1.0  0.88918  0.32908  0.34117  1.0000
  H   H1205     1.0  0.77314  0.17694  0.23300  1.0000
  H   H1206     1.0  0.91321  0.26656  0.30907  1.0000
  S   S311      1.0  0.76397  0.07593  0.26145  1.0000
  H   H1207     1.0  0.79950  0.20558  0.07647  1.0000
  N   N77       1.0  0.81137  0.23662  0.06511  1.0000
  H   H1208     1.0  0.88901  0.30342  0.22379  1.0000
  H   H1209     1.0  0.76198  0.13814  0.37694  1.0000
  C   C760      1.0  0.83278  0.23169  0.07326  1.0000
  C   C761      1.0  0.80507  0.25973  0.06738  1.0000
  H   H1210     1.0  0.82353  0.24201  0.03140  1.0000
  C   C762      1.0  0.79558  0.22313  0.07811  1.0000
  H   H1211     1.0  0.83976  0.33249  0.20394  1.0000
  H   H1212     1.0  0.84469  0.28510  0.19419  1.0000
  H   H1213     1.0  0.79498  0.22599  0.09582  1.0000
  C   C763      1.0  0.81199  0.23193  0.04181  1.0000
  H   H1214     1.0  0.85992  0.32012  0.24766  1.0000
  C   C764      1.0  0.84012  0.28934  0.21133  1.0000
  S   S312      1.0  0.88233  0.32266  0.38633  1.0000
  H   H1215     1.0  0.78899  0.26406  0.06137  1.0000
  H   H1216     1.0  0.79597  0.23526  0.03529  1.0000
  H   H1217     1.0  0.80428  0.26376  0.08482  1.0000
  C   C765      1.0  0.81422  0.16114  0.23615  1.0000
  H   H1218     1.0  0.81474  0.16018  0.25424  1.0000
  C   C766      1.0  0.94513  0.25091  0.33280  1.0000
  H   H1219     1.0  0.81130  0.14432  0.19786  1.0000
  H   H1220     1.0  0.79361  0.16825  0.19897  1.0000
  H   H1221     1.0  0.83271  0.23516  0.09083  1.0000
  H   H1222     1.0  0.97837  0.27565  0.32010  1.0000
  C   C767      1.0  0.87701  0.29306  0.21815  1.0000
  C   C768      1.0  0.88795  0.32310  0.31968  1.0000
  H   H1223     1.0  0.79751  0.12494  0.25602  1.0000
  H   H1224     1.0  0.81314  0.11859  0.23132  1.0000
  C   C769      1.0  0.84851  0.30949  0.24135  1.0000
  H   H1225     1.0  0.87704  0.27792  0.22896  1.0000
  H   H1226     1.0  0.81676  0.21465  0.03946  1.0000
  H   H1227     1.0  0.75930  0.01231  0.25418  1.0000
  H   H1228     1.0  0.89283  0.33416  0.30594  1.0000
  C   C770      1.0  0.75566  0.12171  0.37753  1.0000
  H   H1229     1.0  0.75431  0.14315  0.33808  1.0000
  C   C771      1.0  0.75596  0.25304  0.01678  1.0000
  H   H1230     1.0  0.75312  0.25503  0.05193  1.0000
  H   H1231     1.0  0.83916  0.33641  0.37347  1.0000
  Fe  Fe160     1.0  0.86709  0.22472  0.74512  1.0000
  S   S313      1.0  0.88999  0.21425  0.77061  1.0000
  S   S314      1.0  0.84109  0.20591  0.73265  1.0000
  Fe  Fe161     1.0  0.87886  0.27248  0.74332  1.0000
  S   S315      1.0  0.90171  0.26569  0.76965  1.0000
  S   S316      1.0  0.86912  0.30663  0.73007  1.0000
  Fe  Fe162     1.0  0.91331  0.23653  0.75141  1.0000
  S   S317      1.0  0.94873  0.23015  0.73962  1.0000
  Fe  Fe163     1.0  0.87657  0.24424  0.78656  1.0000
  S   S318      1.0  0.86619  0.24290  0.82295  1.0000
  S   S319      1.0  0.89125  0.24442  0.72414  1.0000
  S   S320      1.0  0.85290  0.25363  0.76198  1.0000
  S   S321      1.0  0.77046  0.23042  0.91041  1.0000
  S   S322      1.0  0.77289  0.27443  0.85997  1.0000
  C   C772      1.0  0.82045  0.13130  0.70455  1.0000
  C   C773      1.0  0.78193  0.13292  0.71187  1.0000
  H   H1232     1.0  0.81476  0.17790  0.85129  1.0000
  Fe  Fe164     1.0  0.77028  0.10717  0.76822  1.0000
  S   S323      1.0  0.80516  0.11554  0.76821  1.0000
  H   H1233     1.0  0.99656  0.28748  0.74311  1.0000
  H   H1234     1.0  0.78224  0.12547  0.66962  1.0000
  C   C774      1.0  0.83940  0.24913  0.83302  1.0000
  C   C775      1.0  0.83423  0.24887  0.85572  1.0000
  C   C776      1.0  0.81348  0.25549  0.86421  1.0000
  C   C777      1.0  0.79789  0.26285  0.85002  1.0000
  C   C778      1.0  0.80283  0.26240  0.82735  1.0000
  C   C779      1.0  0.82337  0.25514  0.81891  1.0000
  H   H1235     1.0  0.84646  0.24403  0.86678  1.0000
  H   H1236     1.0  0.80985  0.25583  0.88173  1.0000
  H   H1237     1.0  0.79075  0.26785  0.81630  1.0000
  H   H1238     1.0  0.82691  0.25461  0.80150  1.0000
  C   C780      1.0  0.83067  0.18229  0.74647  1.0000
  C   C781      1.0  0.80880  0.17880  0.74582  1.0000
  C   C782      1.0  0.80043  0.15899  0.75397  1.0000
  C   C783      1.0  0.81403  0.14210  0.76205  1.0000
  C   C784      1.0  0.83575  0.14585  0.76344  1.0000
  C   C785      1.0  0.84400  0.16595  0.75592  1.0000
  H   H1239     1.0  0.79836  0.19138  0.73857  1.0000
  H   H1240     1.0  0.78360  0.15663  0.75327  1.0000
  H   H1241     1.0  0.84644  0.13293  0.76969  1.0000
  H   H1242     1.0  0.86093  0.16836  0.75634  1.0000
  C   C786      1.0  0.97229  0.22921  0.75403  1.0000
  C   C787      1.0  0.97148  0.23031  0.77674  1.0000
  H   H1243     1.0  0.80930  0.31627  0.77577  1.0000
  H   H1244     1.0  0.99312  0.29842  0.76959  1.0000
  H   H1245     1.0  0.95609  0.23178  0.78611  1.0000
  S   S324      1.0  0.75880  0.08135  0.74871  1.0000
  C   C788      1.0  0.82414  0.30580  0.77784  1.0000
  H   H1246     1.0  0.90343  0.32073  0.60663  1.0000
  C   C789      1.0  0.90967  0.31813  0.67543  1.0000
  C   C790      1.0  0.89963  0.30809  0.69460  1.0000
  C   C791      1.0  0.88187  0.31845  0.70558  1.0000
  H   H1247     1.0  0.82030  0.14931  0.70385  1.0000
  C   C792      1.0  0.99250  0.22712  0.74219  1.0000
  H   H1248     1.0  0.92346  0.30999  0.66715  1.0000
  H   H1249     1.0  0.90573  0.29241  0.70100  1.0000
  C   C793      1.0  0.86506  0.32671  0.62899  1.0000
  N   N78       1.0  0.79570  0.19033  0.82522  1.0000
  C   C794      1.0  0.81436  0.19838  0.81121  1.0000
  C   C795      1.0  0.78019  0.18232  0.81132  1.0000
  C   C796      1.0  0.78528  0.20806  0.83780  1.0000
  H   H1250     1.0  0.82255  0.18545  0.80137  1.0000
  H   H1251     1.0  0.80949  0.21196  0.79947  1.0000
  H   H1252     1.0  0.77431  0.19534  0.79949  1.0000
  H   H1253     1.0  0.77132  0.20248  0.84879  1.0000
  H   H1254     1.0  0.77936  0.22179  0.82682  1.0000
  H   H1255     1.0  0.79663  0.21457  0.84833  1.0000
  H   H1256     1.0  0.78925  0.16615  0.85152  1.0000
  H   H1257     1.0  0.76593  0.17605  0.82134  1.0000
  H   H1258     1.0  0.75176  0.13799  0.87270  1.0000
  H   H1259     1.0  0.76627  0.02193  0.76512  1.0000
  H   H1260     1.0  0.82650  0.20446  0.82114  1.0000
  C   C797      1.0  0.80296  0.17247  0.84060  1.0000
  H   H1261     1.0  0.86954  0.30776  0.80413  1.0000
  H   H1262     1.0  0.99331  0.22604  0.72464  1.0000
  H   H1263     1.0  0.78753  0.16887  0.80165  1.0000
  H   H1264     1.0  0.87995  0.28966  0.61184  1.0000
  H   H1265     1.0  0.81076  0.15870  0.83171  1.0000
  H   H1266     1.0  0.81917  0.28976  0.78503  1.0000
  H   H1267     1.0  0.78518  0.09363  0.69670  1.0000
  H   H1268     1.0  0.81251  0.32797  0.81306  1.0000
  H   H1269     1.0  0.81093  0.12397  0.66386  1.0000
  H   H1270     1.0  0.79731  0.14872  0.67219  1.0000
  H   H1271     1.0  0.83811  0.32535  0.82455  1.0000
  H   H1272     1.0  0.78136  0.15092  0.71067  1.0000
  H   H1273     1.0  0.98977  0.22970  0.80504  1.0000
  N   N79       1.0  0.80014  0.12371  0.69804  1.0000
  H   H1274     1.0  0.85462  0.28478  0.80062  1.0000
  N   N80       1.0  0.86911  0.32287  0.60549  1.0000
  C   C798      1.0  0.99064  0.22906  0.78744  1.0000
  H   H1275     1.0  0.80246  0.09414  0.71846  1.0000
  C   C799      1.0  0.85833  0.30125  0.79350  1.0000
  C   C800      1.0  0.75648  0.00833  0.76986  1.0000
  H   H1276     1.0  0.82363  0.30183  0.82203  1.0000
  Fe  Fe165     1.0  0.75567  0.25779  0.88992  1.0000
  H   H1277     1.0  0.86712  0.29942  0.77718  1.0000
  H   H1278     1.0  0.81392  0.09221  0.69080  1.0000
  H   H1279     1.0  0.78324  0.12737  0.72932  1.0000
  N   N81       1.0  0.83865  0.31543  0.79169  1.0000
  C   C801      1.0  0.82774  0.31781  0.81377  1.0000
  C   C802      1.0  0.80047  0.09985  0.70105  1.0000
  H   H1280     1.0  0.85174  0.29385  0.60863  1.0000
  H   H1281     1.0  0.76626  0.12784  0.70727  1.0000
  H   H1282     1.0  0.83206  0.30336  0.76119  1.0000
  C   C803      1.0  0.79757  0.13076  0.67487  1.0000
  C   C804      1.0  0.86784  0.29958  0.60261  1.0000
  H   H1283     1.0  0.82331  0.12535  0.72166  1.0000
  S   S325      1.0  0.75163  0.09538  0.79941  1.0000
  H   H1284     1.0  0.87080  0.29611  0.58505  1.0000
  H   H1285     1.0  0.83452  0.12547  0.69386  1.0000
  H   H1286     1.0  0.87689  0.31723  0.63896  1.0000
  S   S326      1.0  0.76100  0.25081  0.97203  1.0000
  C   C805      1.0  0.75229  0.24093  0.99912  1.0000
  H   H1287     1.0  0.98703  0.33573  0.65367  1.0000
  H   H1288     1.0  0.84876  0.32213  0.63565  1.0000
  H   H1289     1.0  0.85261  0.33549  0.76481  1.0000
  H   H1290     1.0  0.89431  0.32730  0.57966  1.0000
  C   C806      1.0  0.89072  0.32971  0.59741  1.0000
  H   H1291     1.0  0.83633  0.33069  0.59840  1.0000
  H   H1292     1.0  0.00105  0.27049  0.76726  1.0000
  C   C807      1.0  0.85288  0.33545  0.59291  1.0000
  H   H1293     1.0  0.85573  0.33326  0.57504  1.0000
  Fe  Fe166     1.0  0.89919  0.39981  0.39826  1.0000
  S   S327      1.0  0.88885  0.37230  0.42182  1.0000
  S   S328      1.0  0.87689  0.42977  0.39800  1.0000
  Fe  Fe167     1.0  0.94050  0.37543  0.38306  1.0000
  H   H1294     1.0  0.86534  0.36439  0.37164  1.0000
  S   S329      1.0  0.97104  0.37314  0.36147  1.0000
  Fe  Fe168     1.0  0.90054  0.35119  0.39436  1.0000
  H   H1295     1.0  0.90414  0.42759  0.43595  1.0000
  Fe  Fe169     1.0  0.92290  0.37012  0.43070  1.0000
  H   H1296     1.0  0.87822  0.42782  0.45059  1.0000
  S   S330      1.0  0.90805  0.37904  0.37006  1.0000
  S   S331      1.0  0.93255  0.39893  0.40883  1.0000
  Fe  Fe170     1.0  0.92109  0.58862  0.43431  1.0000
  S   S332      1.0  0.88723  0.60287  0.43556  1.0000
  S   S333      1.0  0.94779  0.60699  0.44464  1.0000
  Fe  Fe171     1.0  0.90967  0.54652  0.41650  1.0000
  S   S334      1.0  0.87490  0.55717  0.41687  1.0000
  S   S335      1.0  0.92521  0.51590  0.40295  1.0000
  Fe  Fe172     1.0  0.88652  0.58939  0.40251  1.0000
  S   S336      1.0  0.87479  0.60290  0.36987  1.0000
  Fe  Fe173     1.0  0.87921  0.56951  0.44963  1.0000
  S   S337      1.0  0.85971  0.55950  0.48084  1.0000
  S   S338      1.0  0.92116  0.57785  0.40049  1.0000
  S   S339      1.0  0.91314  0.55623  0.45031  1.0000
  C   C808      1.0  0.87747  0.63033  0.36023  1.0000
  C   C809      1.0  0.88306  0.64578  0.37385  1.0000
  N   N82       1.0  0.89778  0.54311  0.34533  1.0000
  H   H1297     1.0  0.88605  0.64100  0.39066  1.0000
  C   C810      1.0  0.86485  0.59694  0.50061  1.0000
  H   H1298     1.0  0.87453  0.55689  0.36885  1.0000
  H   H1299     1.0  0.97497  0.38615  0.43447  1.0000
  H   H1300     1.0  0.99101  0.61677  0.45094  1.0000
  C   C811      1.0  0.88161  0.54083  0.36419  1.0000
  H   H1301     1.0  0.93012  0.41711  0.47556  1.0000
  C   C812      1.0  0.89001  0.45400  0.39891  1.0000
  C   C813      1.0  0.87851  0.47263  0.40610  1.0000
  C   C814      1.0  0.88907  0.49178  0.40764  1.0000
  C   C815      1.0  0.91113  0.49238  0.40174  1.0000
  C   C816      1.0  0.92249  0.47382  0.39436  1.0000
  C   C817      1.0  0.91201  0.45470  0.39301  1.0000
  H   H1302     1.0  0.86147  0.47220  0.41072  1.0000
  H   H1303     1.0  0.88018  0.50600  0.41346  1.0000
  H   H1304     1.0  0.93953  0.47422  0.38964  1.0000
  H   H1305     1.0  0.92096  0.44062  0.38702  1.0000
  H   H1306     1.0  0.93211  0.58091  0.48554  1.0000
  C   C818      1.0  0.88413  0.66761  0.36591  1.0000
  C   C819      1.0  0.97150  0.59053  0.44570  1.0000
  C   C820      1.0  0.97124  0.56829  0.44353  1.0000
  H   H1307     1.0  0.91886  0.52243  0.32552  1.0000
  N   N83       1.0  0.90329  0.43887  0.46815  1.0000
  H   H1308     1.0  0.95670  0.56126  0.44016  1.0000
  H   H1309     1.0  0.87405  0.43797  0.48926  1.0000
  C   C821      1.0  0.89932  0.46178  0.46036  1.0000
  H   H1310     1.0  0.84065  0.37660  0.41494  1.0000
  C   C822      1.0  0.98387  0.40894  0.37899  1.0000
  C   C823      1.0  0.99015  0.38906  0.37045  1.0000
  H   H1311     1.0  0.91165  0.60172  0.49051  1.0000
  H   H1312     1.0  0.89366  0.51125  0.33537  1.0000
  H   H1313     1.0  0.84920  0.34974  0.40775  1.0000
  H   H1314     1.0  0.96738  0.41511  0.37890  1.0000
  H   H1315     1.0  0.82378  0.35360  0.35518  1.0000
  C   C824      1.0  0.99069  0.59954  0.44942  1.0000
  H   H1316     1.0  0.87158  0.66347  0.31371  1.0000
  C   C825      1.0  0.98993  0.55501  0.44565  1.0000
  H   H1317     1.0  0.89853  0.40734  0.45771  1.0000
  C   C826      1.0  0.91866  0.37230  0.48762  1.0000
  C   C827      1.0  0.94892  0.61458  0.50177  1.0000
  C   C828      1.0  0.89568  0.42476  0.45247  1.0000
  C   C829      1.0  0.90651  0.52140  0.33964  1.0000
  H   H1318     1.0  0.88884  0.53270  0.37876  1.0000
  H   H1319     1.0  0.92343  0.54776  0.36527  1.0000
  H   H1320     1.0  0.81905  0.40059  0.39006  1.0000
  H   H1321     1.0  0.90934  0.57226  0.35568  1.0000
  H   H1322     1.0  0.89070  0.36280  0.47351  1.0000
  H   H1323     1.0  0.99418  0.43650  0.39379  1.0000
  C   C830      1.0  0.87347  0.63685  0.33847  1.0000
  C   C831      1.0  0.99907  0.42112  0.38720  1.0000
  H   H1324     1.0  0.86399  0.60519  0.48454  1.0000
  C   C832      1.0  0.99195  0.36754  0.47071  1.0000
  C   C833      1.0  0.92206  0.58897  0.49874  1.0000
  C   C834      1.0  0.88760  0.55445  0.32654  1.0000
  N   N84       1.0  0.83227  0.36879  0.38335  1.0000
  H   H1325     1.0  0.96019  0.60717  0.48907  1.0000
  H   H1326     1.0  0.82147  0.35609  0.41573  1.0000
  C   C835      1.0  0.91539  0.55582  0.35111  1.0000
  H   H1327     1.0  0.84978  0.38243  0.35438  1.0000
  C   C836      1.0  0.92655  0.43427  0.46978  1.0000
  H   H1328     1.0  0.93289  0.44464  0.48147  1.0000
  C   C837      1.0  0.81480  0.38586  0.38242  1.0000
  H   H1329     1.0  0.92789  0.55796  0.33727  1.0000
  H   H1330     1.0  0.99299  0.37247  0.41511  1.0000
  H   H1331     1.0  0.88199  0.46573  0.45829  1.0000
  C   C838      1.0  0.83602  0.36256  0.40646  1.0000
  C   C839      1.0  0.86339  0.57450  0.50331  1.0000
  H   H1332     1.0  0.81146  0.39085  0.36521  1.0000
  H   H1333     1.0  0.90446  0.47299  0.47197  1.0000
  H   H1334     1.0  0.87409  0.54544  0.32182  1.0000
  H   H1335     1.0  0.88095  0.57090  0.33063  1.0000
  H   H1336     1.0  0.79964  0.38027  0.39123  1.0000
  H   H1337     1.0  0.89932  0.55657  0.31199  1.0000
  H   H1338     1.0  0.93896  0.62742  0.49310  1.0000
  S   S340      1.0  0.93373  0.34630  0.40573  1.0000
  S   S341      1.0  0.93609  0.37058  0.46369  1.0000
  H   H1339     1.0  0.93575  0.43716  0.45359  1.0000
  H   H1340     1.0  0.86818  0.53111  0.36059  1.0000
  H   H1341     1.0  0.85751  0.39117  0.37967  1.0000
  H   H1342     1.0  0.91427  0.51264  0.35370  1.0000
  H   H1343     1.0  0.81136  0.34297  0.38097  1.0000
  H   H1344     1.0  0.98956  0.53779  0.44416  1.0000
  H   H1345     1.0  0.91088  0.66557  0.17592  1.0000
  C   C840      1.0  0.85206  0.37711  0.37176  1.0000
  H   H1346     1.0  0.98183  0.35328  0.47344  1.0000
  H   H1347     1.0  0.89426  0.41744  0.49617  1.0000
  C   C841      1.0  0.87491  0.65863  0.33041  1.0000
  H   H1348     1.0  0.86903  0.62505  0.32785  1.0000
  C   C842      1.0  0.89705  0.36771  0.48807  1.0000
  C   C843      1.0  0.82631  0.34965  0.37277  1.0000
  H   H1349     1.0  0.89707  0.44488  0.50223  1.0000
  H   H1350     1.0  0.97538  0.35727  0.43420  1.0000
  C   C844      1.0  0.89166  0.43463  0.48989  1.0000
  H   H1351     1.0  0.98119  0.38204  0.47412  1.0000
  H   H1352     1.0  0.90826  0.46558  0.44420  1.0000
  H   H1353     1.0  0.89498  0.34462  0.34381  1.0000
  C   C845      1.0  0.98570  0.37138  0.43230  1.0000
  H   H1354     1.0  0.89528  0.66962  0.21377  1.0000
  H   H1355     1.0  0.93704  0.66901  0.18471  1.0000
  Fe  Fe174     1.0  0.92446  0.41713  0.59257  1.0000
  S   S342      1.0  0.91129  0.41618  0.62776  1.0000
  S   S343      1.0  0.95390  0.43371  0.57853  1.0000
  Fe  Fe175     1.0  0.88884  0.39164  0.57832  1.0000
  S   S344      1.0  0.87195  0.38939  0.61207  1.0000
  S   S345      1.0  0.87528  0.37550  0.55128  1.0000
  Fe  Fe176     1.0  0.87985  0.42418  0.61306  1.0000
  S   S346      1.0  0.85551  0.45097  0.62157  1.0000
  Fe  Fe177     1.0  0.90471  0.38138  0.62364  1.0000
  H   H1356     1.0  0.94348  0.38214  0.50637  1.0000
  S   S347      1.0  0.89357  0.42705  0.57815  1.0000
  S   S348      1.0  0.92119  0.38184  0.58961  1.0000
  Fe  Fe178     1.0  0.92997  0.57975  0.59981  1.0000
  S   S349      1.0  0.91705  0.61374  0.59397  1.0000
  S   S350      1.0  0.96084  0.56759  0.58252  1.0000
  Fe  Fe179     1.0  0.89220  0.56737  0.63054  1.0000
  S   S351      1.0  0.87524  0.60062  0.62740  1.0000
  S   S352      1.0  0.88561  0.53803  0.65360  1.0000
  Fe  Fe180     1.0  0.88574  0.59900  0.59138  1.0000
  S   S353      1.0  0.86899  0.61396  0.56240  1.0000
  Fe  Fe181     1.0  0.90777  0.61326  0.63017  1.0000
  S   S354      1.0  0.91783  0.64279  0.64586  1.0000
  S   S355      1.0  0.89956  0.56485  0.59437  1.0000
  S   S356      1.0  0.92387  0.58035  0.63609  1.0000
  C   C846      1.0  0.96401  0.38428  0.63645  1.0000
  N   N85       1.0  0.98172  0.62407  0.64180  1.0000
  C   C847      1.0  0.89191  0.64178  0.68497  1.0000
  H   H1357     1.0  0.96820  0.39410  0.64973  1.0000
  H   H1358     1.0  0.88526  0.62752  0.67973  1.0000
  C   C848      1.0  0.86717  0.59839  0.53987  1.0000
  C   C849      1.0  0.88445  0.64989  0.70522  1.0000
  H   H1359     1.0  0.92983  0.50650  0.62716  1.0000
  C   C850      1.0  0.92678  0.37852  0.50662  1.0000
  H   H1360     1.0  0.97300  0.43956  0.65311  1.0000
  H   H1361     1.0  0.98382  0.64897  0.66391  1.0000
  H   H1362     1.0  0.86687  0.56768  0.55862  1.0000
  H   H1363     1.0  0.92076  0.47026  0.58385  1.0000
  H   H1364     1.0  0.95871  0.62250  0.51280  1.0000
  C   C851      1.0  0.88410  0.34883  0.67778  1.0000
  H   H1365     1.0  0.87804  0.36454  0.67144  1.0000
  C   C852      1.0  0.89195  0.37487  0.52672  1.0000
  C   C853      1.0  0.91342  0.38004  0.52605  1.0000
  H   H1366     1.0  0.96454  0.39474  0.62096  1.0000
  C   C854      1.0  0.91751  0.48175  0.59695  1.0000
  C   C855      1.0  0.92621  0.51259  0.57214  1.0000
  H   H1367     1.0  0.93602  0.52704  0.56880  1.0000
  H   H1368     1.0  0.91984  0.38488  0.54059  1.0000
  N   N86       1.0  0.93109  0.50053  0.59296  1.0000
  H   H1369     1.0  0.98483  0.54482  0.65479  1.0000
  C   C856      1.0  0.00104  0.37150  0.63076  1.0000
  C   C857      1.0  0.86528  0.47508  0.62917  1.0000
  C   C858      1.0  0.85717  0.49509  0.62024  1.0000
  C   C859      1.0  0.86391  0.51455  0.62702  1.0000
  C   C860      1.0  0.87809  0.51404  0.64344  1.0000
  C   C861      1.0  0.88633  0.49403  0.65222  1.0000
  C   C862      1.0  0.88026  0.47460  0.64483  1.0000
  H   H1370     1.0  0.84546  0.49554  0.60824  1.0000
  H   H1371     1.0  0.85740  0.52991  0.62024  1.0000
  H   H1372     1.0  0.89726  0.49358  0.66498  1.0000
  H   H1373     1.0  0.88637  0.45925  0.65199  1.0000
  H   H1374     1.0  0.87201  0.64179  0.71546  1.0000
  C   C863      1.0  0.97437  0.55368  0.62269  1.0000
  C   C864      1.0  0.98019  0.56218  0.60143  1.0000
  C   C865      1.0  0.97343  0.35328  0.61551  1.0000
  H   H1375     1.0  0.91160  0.59645  0.54126  1.0000
  H   H1376     1.0  0.95815  0.54923  0.62730  1.0000
  C   C866      1.0  0.95397  0.49301  0.59171  1.0000
  H   H1377     1.0  0.92032  0.47261  0.61281  1.0000
  H   H1378     1.0  0.86676  0.62630  0.51681  1.0000
  C   C867      1.0  0.97201  0.43480  0.59841  1.0000
  C   C868      1.0  0.96458  0.43883  0.61992  1.0000
  N   N87       1.0  0.97867  0.36487  0.63435  1.0000
  H   H1379     1.0  0.94710  0.37995  0.64035  1.0000
  H   H1380     1.0  0.94778  0.44285  0.62400  1.0000
  H   H1381     1.0  0.97579  0.60482  0.61552  1.0000
  C   C869      1.0  0.97887  0.43709  0.63634  1.0000
  H   H1382     1.0  0.86644  0.34404  0.63190  1.0000
  H   H1383     1.0  0.95291  0.61353  0.66007  1.0000
  C   C870      1.0  0.97342  0.62177  0.62034  1.0000
  H   H1384     1.0  0.96460  0.50684  0.58851  1.0000
  C   C871      1.0  0.90790  0.65215  0.67156  1.0000
  C   C872      1.0  0.94941  0.58083  0.52398  1.0000
  H   H1385     1.0  0.95590  0.62621  0.62071  1.0000
  C   C873      1.0  0.92663  0.51494  0.61104  1.0000
  H   H1386     1.0  0.85568  0.34451  0.79138  1.0000
  C   C874      1.0  0.97054  0.60952  0.65862  1.0000
  S   S357      1.0  0.91516  0.35021  0.64268  1.0000
  C   C875      1.0  0.86423  0.56399  0.52427  1.0000
  C   C876      1.0  0.98954  0.55107  0.63827  1.0000
  H   H1387     1.0  0.97977  0.35894  0.66914  1.0000
  H   H1388     1.0  0.95821  0.48410  0.60727  1.0000
  H   H1389     1.0  0.93648  0.52934  0.60849  1.0000
  H   H1390     1.0  0.90958  0.52102  0.61228  1.0000
  H   H1391     1.0  0.86291  0.54666  0.52646  1.0000
  C   C877      1.0  0.00048  0.43103  0.63128  1.0000
  H   H1392     1.0  0.97298  0.59232  0.65456  1.0000
  H   H1393     1.0  0.95788  0.48182  0.57840  1.0000
  H   H1394     1.0  0.97642  0.61069  0.67504  1.0000
  H   H1395     1.0  0.90901  0.51847  0.57259  1.0000
  C   C878      1.0  0.86651  0.57586  0.54248  1.0000
  C   C879      1.0  0.90201  0.33854  0.66698  1.0000
  H   H1396     1.0  0.96012  0.57268  0.51130  1.0000
  H   H1397     1.0  0.90013  0.48689  0.59757  1.0000
  C   C880      1.0  0.97614  0.35054  0.65462  1.0000
  C   C881      1.0  0.88377  0.36879  0.50767  1.0000
  H   H1398     1.0  0.89215  0.34716  0.59941  1.0000
  H   H1399     1.0  0.92947  0.50225  0.55808  1.0000
  H   H1400     1.0  0.96051  0.65167  0.64881  1.0000
  H   H1401     1.0  0.98160  0.63231  0.60715  1.0000
  H   H1402     1.0  0.86040  0.34696  0.70545  1.0000
  H   H1403     1.0  0.98607  0.65811  0.63533  1.0000
  H   H1404     1.0  0.85335  0.35310  0.59473  1.0000
  H   H1405     1.0  0.93105  0.61607  0.54288  1.0000
  N   N88       1.0  0.93547  0.59822  0.51396  1.0000
  C   C882      1.0  0.87413  0.33883  0.69706  1.0000
  H   H1406     1.0  0.93977  0.56830  0.53347  1.0000
  H   H1407     1.0  0.95939  0.34524  0.65773  1.0000
  H   H1408     1.0  0.91028  0.62127  0.52443  1.0000
  H   H1409     1.0  0.91131  0.57687  0.50738  1.0000
  H   H1410     1.0  0.95978  0.58727  0.53554  1.0000
  H   H1411     1.0  0.99966  0.42711  0.57643  1.0000
  C   C883      1.0  0.92153  0.60848  0.53136  1.0000
  H   H1412     1.0  0.95661  0.34813  0.61769  1.0000
  H   H1413     1.0  0.97503  0.36375  0.59998  1.0000
  H   H1414     1.0  0.83006  0.34807  0.78000  1.0000
  C   C884      1.0  0.86635  0.60887  0.51890  1.0000
  C   C885      1.0  0.97791  0.64671  0.64772  1.0000
  H   H1415     1.0  0.86716  0.36479  0.50812  1.0000
  C   C886      1.0  0.99387  0.43011  0.59311  1.0000
  C   C887      1.0  0.00133  0.56773  0.59567  1.0000
  C   C888      1.0  0.89287  0.66841  0.71229  1.0000
  H   H1416     1.0  0.98420  0.33853  0.61338  1.0000
  C   C889      1.0  0.84448  0.33686  0.78157  1.0000
  Fe  Fe182     1.0  0.76861  0.72179  0.14092  1.0000
  S   S358      1.0  0.80278  0.72844  0.14734  1.0000
  H   H1417     1.0  0.81824  0.78029  0.07255  1.0000
  H   H1418     1.0  0.94791  0.69626  0.36345  1.0000
  Fe  Fe183     1.0  0.87954  0.71435  0.29950  1.0000
  S   S359      1.0  0.89463  0.69515  0.27232  1.0000
  S   S360      1.0  0.88135  0.70186  0.33507  1.0000
  Fe  Fe184     1.0  0.87038  0.75406  0.26860  1.0000
  S   S361      1.0  0.88628  0.73792  0.23934  1.0000
  S   S362      1.0  0.85492  0.78707  0.25903  1.0000
  Fe  Fe185     1.0  0.86772  0.70964  0.25275  1.0000
  S   S363      1.0  0.85044  0.69018  0.23044  1.0000
  Fe  Fe186     1.0  0.91206  0.72514  0.26108  1.0000
  S   S364      1.0  0.94709  0.71828  0.24846  1.0000
  S   S365      1.0  0.85073  0.72605  0.28125  1.0000
  S   S366      1.0  0.89808  0.74404  0.28915  1.0000
  S   S367      1.0  0.76970  0.83073  0.30390  1.0000
  C   C890      1.0  0.92892  0.70964  0.19674  1.0000
  H   H1419     1.0  0.77055  0.74841  0.08865  1.0000
  H   H1420     1.0  0.78762  0.76163  0.18448  1.0000
  H   H1421     1.0  0.75714  0.79011  0.21354  1.0000
  C   C891      1.0  0.82975  0.79633  0.27121  1.0000
  C   C892      1.0  0.82409  0.79238  0.29361  1.0000
  C   C893      1.0  0.80531  0.80253  0.30336  1.0000
  C   C894      1.0  0.79181  0.81630  0.29074  1.0000
  C   C895      1.0  0.79684  0.81922  0.26813  1.0000
  C   C896      1.0  0.81595  0.80964  0.25849  1.0000
  H   H1422     1.0  0.83465  0.78222  0.30359  1.0000
  H   H1423     1.0  0.80145  0.80000  0.32084  1.0000
  H   H1424     1.0  0.78637  0.82935  0.25812  1.0000
  H   H1425     1.0  0.82021  0.81276  0.24115  1.0000
  C   C897      1.0  0.97033  0.72722  0.25922  1.0000
  C   C898      1.0  0.96911  0.74389  0.27345  1.0000
  C   C899      1.0  0.98795  0.75065  0.28138  1.0000
  H   H1426     1.0  0.97681  0.71280  0.30981  1.0000
  C   C900      1.0  0.99060  0.71741  0.25309  1.0000
  H   H1427     1.0  0.95374  0.75192  0.27797  1.0000
  H   H1428     1.0  0.98684  0.76374  0.29216  1.0000
  H   H1429     1.0  0.94435  0.73289  0.34422  1.0000
  C   C901      1.0  0.81418  0.71860  0.17187  1.0000
  C   C902      1.0  0.82923  0.73079  0.18050  1.0000
  C   C903      1.0  0.83951  0.72285  0.19925  1.0000
  C   C904      1.0  0.83552  0.70221  0.20897  1.0000
  C   C905      1.0  0.82026  0.69018  0.20050  1.0000
  C   C906      1.0  0.80934  0.69848  0.18230  1.0000
  H   H1430     1.0  0.83299  0.74643  0.17263  1.0000
  H   H1431     1.0  0.85090  0.73250  0.20581  1.0000
  C   C907      1.0  0.79320  0.74904  0.22658  1.0000
  C   C908      1.0  0.97164  0.70330  0.32526  1.0000
  H   H1432     1.0  0.78314  0.77271  0.09287  1.0000
  C   C909      1.0  0.93858  0.72518  0.33022  1.0000
  H   H1433     1.0  0.77200  0.76957  0.06730  1.0000
  N   N89       1.0  0.91306  0.69360  0.19388  1.0000
  S   S368      1.0  0.75699  0.70406  0.11379  1.0000
  H   H1434     1.0  0.80711  0.77694  0.04710  1.0000
  C   C910      1.0  0.90698  0.68215  0.21524  1.0000
  H   H1435     1.0  0.79494  0.73127  0.22481  1.0000
  N   N90       1.0  0.81604  0.88358  0.28580  1.0000
  C   C911      1.0  0.82254  0.86529  0.27217  1.0000
  C   C912      1.0  0.83411  0.88828  0.29832  1.0000
  C   C913      1.0  0.79748  0.87783  0.30118  1.0000
  C   C914      1.0  0.81002  0.90288  0.27155  1.0000
  H   H1436     1.0  0.80942  0.86166  0.26213  1.0000
  H   H1437     1.0  0.82654  0.85021  0.28240  1.0000
  H   H1438     1.0  0.83683  0.86876  0.26069  1.0000
  H   H1439     1.0  0.82974  0.90201  0.30880  1.0000
  H   H1440     1.0  0.83897  0.87398  0.30922  1.0000
  H   H1441     1.0  0.84844  0.89262  0.28723  1.0000
  H   H1442     1.0  0.80126  0.86308  0.31196  1.0000
  H   H1443     1.0  0.78355  0.87427  0.29230  1.0000
  H   H1444     1.0  0.79210  0.89118  0.31183  1.0000
  H   H1445     1.0  0.79668  0.89971  0.26156  1.0000
  H   H1446     1.0  0.80437  0.91689  0.28124  1.0000
  C   C915      1.0  0.75387  0.95809  0.26725  1.0000
  S   S369      1.0  0.76142  0.93280  0.25625  1.0000
  H   H1447     1.0  0.75882  0.76169  0.18700  1.0000
  C   C916      1.0  0.88001  0.67415  0.34420  1.0000
  H   H1448     1.0  0.78882  0.74323  0.04221  1.0000
  H   H1449     1.0  0.82370  0.90797  0.25994  1.0000
  H   H1450     1.0  0.81702  0.67422  0.20792  1.0000
  C   C917      1.0  0.81280  0.73976  0.09007  1.0000
  C   C918      1.0  0.79781  0.73538  0.05586  1.0000
  H   H1451     1.0  0.80771  0.75625  0.21795  1.0000
  H   H1452     1.0  0.78584  0.79028  0.21100  1.0000
  H   H1453     1.0  0.97931  0.68672  0.32425  1.0000
  H   H1454     1.0  0.92073  0.72542  0.33266  1.0000
  N   N91       1.0  0.80172  0.75106  0.07183  1.0000
  C   C919      1.0  0.81512  0.76814  0.06092  1.0000
  H   H1455     1.0  0.89904  0.69355  0.22683  1.0000
  C   C920      1.0  0.77196  0.78230  0.22005  1.0000
  H   H1456     1.0  0.82856  0.73209  0.08426  1.0000
  H   H1457     1.0  0.99181  0.70458  0.24202  1.0000
  H   H1458     1.0  0.75203  0.70897  0.05818  1.0000
  H   H1459     1.0  0.83092  0.76126  0.05416  1.0000
  C   C921      1.0  0.94186  0.68970  0.34894  1.0000
  H   H1460     1.0  0.92742  0.68594  0.16218  1.0000
  C   C922      1.0  0.78101  0.76095  0.08053  1.0000
  H   H1461     1.0  0.77133  0.97627  0.24094  1.0000
  H   H1462     1.0  0.79782  0.68890  0.17581  1.0000
  H   H1463     1.0  0.97839  0.71079  0.33888  1.0000
  C   C923      1.0  0.92253  0.67782  0.17846  1.0000
  C   C924      1.0  0.93981  0.69337  0.30980  1.0000
  N   N92       1.0  0.77333  0.75872  0.21766  1.0000
  H   H1464     1.0  0.77443  0.73698  0.19190  1.0000
  H   H1465     1.0  0.94363  0.70184  0.20359  1.0000
  H   H1466     1.0  0.75350  0.75194  0.24746  1.0000
  H   H1467     1.0  0.93392  0.71870  0.18100  1.0000
  C   C925      1.0  0.75412  0.99771  0.26332  1.0000
  N   N93       1.0  0.94800  0.70288  0.32856  1.0000
  H   H1468     1.0  0.88101  0.69329  0.18373  1.0000
  H   H1469     1.0  0.94372  0.70318  0.29422  1.0000
  H   H1470     1.0  0.75511  0.73108  0.22846  1.0000
  C   C926      1.0  0.77359  0.75462  0.19425  1.0000
  H   H1471     1.0  0.81307  0.72786  0.04854  1.0000
  S   S370      1.0  0.76193  0.87038  0.25228  1.0000
  H   H1472     1.0  0.94279  0.73557  0.31510  1.0000
  H   H1473     1.0  0.78806  0.72209  0.06375  1.0000
  C   C927      1.0  0.76091  0.97723  0.25587  1.0000
  H   H1474     1.0  0.92206  0.69249  0.31194  1.0000
  C   C928      1.0  0.75497  0.71277  0.02271  1.0000
  H   H1475     1.0  0.92234  0.72175  0.20839  1.0000
  C   C929      1.0  0.75449  0.74890  0.22977  1.0000
  H   H1476     1.0  0.80305  0.72676  0.09866  1.0000
  H   H1477     1.0  0.81569  0.75101  0.10268  1.0000
  H   H1478     1.0  0.88793  0.67951  0.37675  1.0000
  H   H1479     1.0  0.88655  0.71713  0.19627  1.0000
  C   C930      1.0  0.89373  0.70479  0.18519  1.0000
  H   H1480     1.0  0.79346  0.75165  0.24429  1.0000
  H   H1481     1.0  0.89745  0.71322  0.16881  1.0000
  H   H1482     1.0  0.77171  0.78602  0.23753  1.0000
  H   H1483     1.0  0.92408  0.68936  0.35197  1.0000
  H   H1484     1.0  0.76379  0.69738  0.02092  1.0000
  H   H1485     1.0  0.94679  0.67667  0.30779  1.0000
  H   H1486     1.0  0.92119  0.67426  0.22292  1.0000
  H   H1487     1.0  0.94829  0.67264  0.34816  1.0000
  Fe  Fe187     1.0  0.89021  0.70974  0.75150  1.0000
  S   S371      1.0  0.91029  0.71263  0.77986  1.0000
  H   H1488     1.0  0.77677  0.80860  0.82930  1.0000
  Fe  Fe188     1.0  0.87734  0.75825  0.74758  1.0000
  S   S372      1.0  0.89707  0.76532  0.77479  1.0000
  S   S373      1.0  0.85899  0.78077  0.72380  1.0000
  Fe  Fe189     1.0  0.92300  0.74222  0.76061  1.0000
  S   S374      1.0  0.95793  0.75099  0.75125  1.0000
  Fe  Fe190     1.0  0.88309  0.73536  0.79227  1.0000
  S   S375      1.0  0.87036  0.73752  0.82791  1.0000
  S   S376      1.0  0.90437  0.73777  0.73163  1.0000
  S   S377      1.0  0.86199  0.72987  0.76580  1.0000
  N   N94       1.0  0.84867  0.72221  0.69285  1.0000
  H   H1489     1.0  0.77987  0.98478  0.75648  1.0000
  S   S378      1.0  0.78375  0.85488  0.72104  1.0000
  H   H1490     1.0  0.81234  0.75826  0.83141  1.0000
  C   C931      1.0  0.77643  0.77185  0.85484  1.0000
  H   H1491     1.0  0.87946  0.72629  0.67503  1.0000
  H   H1492     1.0  0.83976  0.71118  0.81020  1.0000
  H   H1493     1.0  0.80429  0.69872  0.82567  1.0000
  H   H1494     1.0  0.82975  0.69650  0.68498  1.0000
  S   S379      1.0  0.77892  0.70564  0.86590  1.0000
  C   C932      1.0  0.91640  0.67063  0.67866  1.0000
  H   H1495     1.0  0.87355  0.74340  0.69737  1.0000
  C   C933      1.0  0.77081  0.79449  0.82194  1.0000
  N   N95       1.0  0.78090  0.77392  0.83079  1.0000
  S   S380      1.0  0.76273  0.94277  0.76569  1.0000
  C   C934      1.0  0.77197  0.75561  0.82123  1.0000
  H   H1496     1.0  0.75432  0.75526  0.82527  1.0000
  H   H1497     1.0  0.77516  0.75647  0.80311  1.0000
  C   C935      1.0  0.84551  0.72743  0.83867  1.0000
  C   C936      1.0  0.83726  0.73236  0.85984  1.0000
  C   C937      1.0  0.81701  0.72560  0.86852  1.0000
  C   C938      1.0  0.80495  0.71355  0.85620  1.0000
  C   C939      1.0  0.81342  0.70820  0.83524  1.0000
  C   C940      1.0  0.83350  0.71526  0.82641  1.0000
  H   H1498     1.0  0.84650  0.74167  0.86946  1.0000
  H   H1499     1.0  0.81081  0.72962  0.88477  1.0000
  H   H1500     1.0  0.88046  0.71513  0.70268  1.0000
  S   S381      1.0  0.88199  0.67861  0.73734  1.0000
  C   C941      1.0  0.83761  0.80097  0.72534  1.0000
  C   C942      1.0  0.82513  0.80592  0.74470  1.0000
  C   C943      1.0  0.80812  0.82219  0.74402  1.0000
  C   C944      1.0  0.80377  0.83351  0.72400  1.0000
  C   C945      1.0  0.81639  0.82844  0.70500  1.0000
  C   C946      1.0  0.83299  0.81234  0.70564  1.0000
  H   H1501     1.0  0.82855  0.79722  0.76003  1.0000
  H   H1502     1.0  0.79854  0.82601  0.75885  1.0000
  H   H1503     1.0  0.81331  0.83705  0.68950  1.0000
  H   H1504     1.0  0.84245  0.80876  0.69063  1.0000
  C   C947      1.0  0.98220  0.74365  0.76371  1.0000
  H   H1505     1.0  0.77413  0.79681  0.80386  1.0000
  H   H1506     1.0  0.84403  0.73931  0.66175  1.0000
  H   H1507     1.0  0.84752  0.70991  0.72654  1.0000
  C   C948      1.0  0.98262  0.73214  0.78415  1.0000
  S   S382      1.0  0.77028  0.74499  0.91525  1.0000
  H   H1508     1.0  0.96773  0.72725  0.79285  1.0000
  H   H1509     1.0  0.85504  0.68775  0.69519  1.0000
  H   H1510     1.0  0.81986  0.73584  0.67942  1.0000
  H   H1511     1.0  0.78372  0.75649  0.86213  1.0000
  C   C949      1.0  0.80433  0.77368  0.82522  1.0000
  C   C950      1.0  0.90898  0.67870  0.69894  1.0000
  N   N96       1.0  0.81922  0.90178  0.74692  1.0000
  C   C951      1.0  0.82217  0.87808  0.75131  1.0000
  C   C952      1.0  0.81310  0.91201  0.76769  1.0000
  C   C953      1.0  0.80209  0.90667  0.73193  1.0000
  C   C954      1.0  0.83945  0.91037  0.73668  1.0000
  H   H1512     1.0  0.83486  0.87366  0.76269  1.0000
  H   H1513     1.0  0.82675  0.86988  0.73594  1.0000
  H   H1514     1.0  0.80708  0.87100  0.75871  1.0000
  H   H1515     1.0  0.81051  0.92989  0.76492  1.0000
  H   H1516     1.0  0.79776  0.90605  0.77574  1.0000
  H   H1517     1.0  0.82557  0.90867  0.77952  1.0000
  H   H1518     1.0  0.79903  0.92441  0.72851  1.0000
  H   H1519     1.0  0.78674  0.90021  0.73916  1.0000
  H   H1520     1.0  0.80598  0.89913  0.71607  1.0000
  H   H1521     1.0  0.83772  0.92821  0.73310  1.0000
  H   H1522     1.0  0.84445  0.90296  0.72094  1.0000
  H   H1523     1.0  0.85275  0.90694  0.74756  1.0000
  S   S383      1.0  0.75954  0.87924  0.77634  1.0000
  H   H1524     1.0  0.80839  0.77532  0.80720  1.0000
  C   C955      1.0  0.87154  0.72699  0.69189  1.0000
  H   H1525     1.0  0.91574  0.69286  0.70423  1.0000
  H   H1526     1.0  0.84073  0.73835  0.72246  1.0000
  H   H1527     1.0  0.92877  0.67877  0.66841  1.0000
  H   H1528     1.0  0.78273  0.78540  0.86280  1.0000
  H   H1529     1.0  0.82197  0.71899  0.71714  1.0000
  H   H1530     1.0  0.85429  0.69961  0.66776  1.0000
  H   H1531     1.0  0.83841  0.75531  0.68500  1.0000
  H   H1532     1.0  0.81171  0.78696  0.83259  1.0000
  C   C956      1.0  0.84680  0.70061  0.68478  1.0000
  H   H1533     1.0  0.77912  0.73983  0.82774  1.0000
  C   C957      1.0  0.83720  0.73888  0.67910  1.0000
  C   C958      1.0  0.83926  0.72239  0.71573  1.0000
  C   C959      1.0  0.76415  0.98720  0.76497  1.0000
  Fe  Fe191     1.0  0.75907  0.72083  0.89407  1.0000
  H   H1534     1.0  0.75891  0.77184  0.85958  1.0000
  S   S384      1.0  0.75847  0.71645  0.97762  1.0000
  Fe  Fe192     1.0  0.75625  0.86992  0.74235  1.0000
  H   H1535     1.0  0.75737  0.83728  0.86853  1.0000
  C   C960      1.0  0.75175  0.96921  0.77115  1.0000
  H   H1536     1.0  0.75308  0.79502  0.82557  1.0000
