data_image0
_chemical_formula_structural       CH2CSH2CHC2H3CHC2HCH5NH5CH4NCHC2HCNHFeHFeS2Fe2S2FeSCFeS2FeSFeS2FeSHFeSFeSFeS3FeS2FeSHFeSH2SCH4FeS2FeS2FeHFeHS2H3C3SH3CSCHCNHCHC6H4C4SNH3C7H5SHC6H4C6H5C3H2CFeH2CH2C3HC3H3CH7C2SNHCH5SH2SHCHSHC2SC2HC2H6C2HNC2HCHNC4HCH10CHC3H3C2HCHCH3CH9C2H3CSHSH2CH2SH8CHCHCHFeHSCHCHSHFeSHFeS2FeSFeS3CHCHCHCSCH3SH3C2SHC2H8CH2C7H4C6H4C6H4CHCH3CHCH5FeHC2H3CH2CSHCH3N2C4H12CHCNC4NH3NCSHC2H11NH2SH2SCH2CH2SHFeSH3FeSHFeS2FeSFeS2H2CH2CFeCSHCHC2H2CH2NH3C7H4SC5H5CHC2HCSH3CHNH4NCH2CH2C2H2CSNHNHFeHSH4SFeS2FeHSH2FeHS2HC2H2CHCHCH2C7H4CH5C7H4CH3CH3NH2SCHFeCSCHC3H2CSCHCH2FeSFe2S2FeSFeHS3HSH2S3HSFeSFeSCH2FeS2FeSCFeSCFeSFeS3C6H3NH3SH2C2H3CH2FeSC2FeC6H4C6H5S2C3H5CFeH4CFeCH5C2FeHCFeCH3SC2H3N2H2CHCH2NC2S2H3NC4H14SH5CH2NC3H2NCSHCHNH4CH6CH3SH2CH4C3H2S2H2SC2H2CHSHC2H2SC3HC2HCH2SH3CH2CH4C2HNC2H3C2HCH2CH7FeHCHC3HSHFeS2FeS2FeSFeS3FeNH3SFeS2FeS2FeSFeS3NHCHFeHS2HC2H3C5H2C9H5C3FeH3C4HCH3C6H4C6H4C3H3S2CS2C2SH2CH3CFeCHSH4C2FeNC4H12C2HSFeCH3FeCSHC3HNHCH2CH2CSCNC4H13CH4SHCH4S2CSFeH2CHSH3C2H4CNCH2CSCSH2FeSH2SCH2FeH5CNHC2HFeCHCH3NC2FeHC4HFeH3CH2CH2C2H2CH4CH2C2NHNFeS2H2FeS3FeSHFeS2FeSFeS3H2FeHS3CSCHCFeSH3FeSCSFeS2FeH2Fe2S3C6H4C6H2CHC6H4C6HCH2SCHC6H7CH2CH5SCH3CNC2H6CHCSH4NCH3CH3CH2FeH4CHC2FeHC2NC2SCSHSCH8NC3H5CH5SH2CSHC3SH3CH2FeHC2H2CHCHC2H2CH5CH4NH5CHN2H2C4H2CHC3H2SH3CHNH8CHCH6CH2CH2CHSH2SHC3H3FeS2FeSHFeSFeS3FeS2FeS2FeSFeHS2FeS2FeS2FeSFeS3H2CHNCNC3HS2H2CHC2H4C6H4C6H4C7H3CHC2HCH3CHC5H5SHC3H3CSH2SH4CHCHC3HNC2H2CH6CH4NC4HCH2CH3CH4C2H3FeHCHSH4C2NC4H7CNH3SH2C2HCHC2HSH3NCH2C2H10C2HCH2NCHCH5CH4CH2FeCH2C3HCHSNSHCH2CHCFeS2FeSNSHCH3SHNHFeSHFeS2FeSFeS3CH2FeS2FeSH2SCFeS2FeS2FeSFeS3C6H4C6H4C6H4C5HSC6H4C6H6FeNHCH2C3NC2HCHCH9SC2H2CN2C3H11CH2CH6C2H4CH3CNCHSCH4CH6NC4H25CHCH2CH2CH2CHCSH3CFeH2CHS2FeSFeSFeCFeSHSFeSFeS2FeSFeCS2C2HC4HCNFeS2FeS2FeSFeHS2HSC6H8C6H4C7H7C6H2CHC4SCH3SHC3H3CSH2CH3SCH2CSH3NCSH4C2HCH2C2H4CH2SH3C2H4FeHCH4NH4FeCH2CHSH3NC3HCH13C2H2CH5CSH2NCHNCNC2H5CNHNHSH2C2H9SHC3HFeHCHCH2SFeS2FeS2FeSFeS3FeCSH6CNFeS2FeSCHFeS2HFeSCFeS2FeSFeS3HCH3NH4CHC3H2C2H2C2H2SC7H4CH2CH3C6HCH4C6H4C6H4NHCHSNHC2HCH4CSHCH3C3H5NH2NC4H12C2H12CH2CHCH5C2FeH2C2HCH2C3SH2CH4CH5CNCHFeSCFeS2FeHFeS3FeS2FeSCFeHFeS2FeS2FeS2FeSFeS3H3CHCH2CNC3H4NCH2C6H2CHNCHSHCHCH2C3H3C6H4C6H4C5H4C3H2CFeCSH8NH3SHNC4H12NC4H12CH2SHSHCH5C2HCSC2SH2C3H3C3H2C2H2SCH4SCH9CH2NC2H3SFeS2FeSFeCS2HCSFeS2CHFeSCSH3FeHSCFeSNSFeS2FeS2FeSFeS3FeCSHCSHSCHC6H4C2HCH3C6H4C6H4CH3C6H4C6H6NHC3H3NHC3HCH5C2SHCH2CH5CH3CHCHNCH6CHSH5C2H2FeCH2NC4H14N2SHCHCHNC2H2NCH4FeC2HC2H5CHNH3C2H6CSH2CH5C2H2CH2SHS2HFeSHCSFeSHFeS2FeSFeS3FeS2FeS2FeSFeHS2FeSHFeSCFeHFeHSCFeS2H3NH2CH2CSCHCHC3H2C4H6C6H4C6H4C6H8CHCH2C6H2SCFeHSNC4H13CH2SCH2C2HNCH3NHC2H2CH2CHCHC3H3NCHCHC2H3CHCHCHSCH2CHC2H2NH3SH2CFeCH2SH4CS2C2FeH5C3NH2SHCH5CH2C2HS2NC2FeHCH5CSHNHSH4FeHFeC2HCHC2H2CHCHSH2CH2CHC2NH7SCH3C3SH9CH5CFeH2SFeHSFeS2FeS2FeSFeS3HSHFe2SH3SFeS2FeHCFeSFeNS2HSFeS2FeSFeCS2HC6H4CHC3HFeHC2H2SC3HCH3C7H4C6H4C2HC6H4CHNC4SH8CH2CHNC4H15C2HCHCSH6CH2SCH4CNHSHNHCHNC4H12CSCH3CS2HCHSH2SFeCFeSHCHCFeCFeSHC2HFeSCHNSFeH6C2H2CHCH5CHSCH3C3NHCHCFeHSHCH2FeSCSH2SH3C2HNH2CHC2H4SH4C3HSCHC2H2SHFeH5CSH5CHFeS2FeS2FeSFeS3FeSHFeHSFeHS3HCSFeSFeS3HCH3CH3SCH2C2HNCFeC3H3SH2CSC7H4CSH2C4H2C6H4C6H7CH2FeH2C6H3CHCHSHC2H2C2HFeHCH2CNC4HC2NSHFeH2NC3H9C3HCH6NHC2H3CHFeCH4C2HCH2CH2SCHNSCSFeH6NH3C2H2CHC3HSH5C2H6CH8CNHCH2FeHCSHCFe2S2H3CHFeH2SFeS2FeS3C2NSCHFeH2C2HFeH3FeCH3SC7H5NH2CHSC2SFeH4SH2CHSCH4CH3CH2CNH4SHSH2CFeC2FeS2FeSHFeSFeS2FeSHFeSCFeSFeS3C2HCNH2C2H3CH2NH3C7H4CH3C2H5CHCHCHCH2SHSH4CH2CH4FeCSFeH3SHNSCHS2CH2CH4C4H2CH5FeSCFeS2FeSFeS3CH2FeS2H2FeSHSCSHSFeSFeSHCHFeSHC2SCSFeSFeSHC2NCH4CH2CHC3HFeCHCH2C3HFeH2C3NH6C2H2C2H2C6H7FeHC6H4C6H7CSC2HCHCH4S3H2NCH5CHSHNHSCSFeH3CH2C2H3CH9NCH3CH3FeHNSHC2SC2HCH2CSH3CH2CH6C2H3CH3FeHCH3CH6NFeCFeS2FeSCFeSFeS3FeS2FeS2FeSFeHS2CSCHSCH4SHCHSH4CH2SHFeH2CH3CH2SC6SCH3FeHCHS2CHCH5SH3C6H4CH6C6H4C6H4NH4CFeNHCH6C3HC2FeC3HC2H2NH2CHCHCNSCH2NHCH3CH3NCH2C2HC3HCFeH2CS2HCH6C2S2H3SHCH3CH5NH2C
_chemical_formula_sum              "C1440 H2304 S576 N144 Fe288"
_cell_length_a       68.4706
_cell_length_b       68.5092
_cell_length_c       68.5152
_cell_angle_alpha    83.1096
_cell_angle_beta     83.2238
_cell_angle_gamma    83.3343

_space_group_name_H-M_alt    "P 1"
_space_group_IT_number       1

loop_
  _space_group_symop_operation_xyz
  'x, y, z'

loop_
  _atom_site_type_symbol
  _atom_site_label
  _atom_site_symmetry_multiplicity
  _atom_site_fract_x
  _atom_site_fract_y
  _atom_site_fract_z
  _atom_site_occupancy
  C   C1        1.0  0.19876  0.00900  0.49087  1.0000
  H   H1        1.0  0.18722  0.01797  0.48341  1.0000
  H   H2        1.0  0.25303  0.08485  0.48787  1.0000
  C   C2        1.0  0.02216  0.00163  0.29994  1.0000
  S   S1        1.0  0.00347  0.17549  0.46265  1.0000
  H   H3        1.0  0.06369  0.23783  0.47343  1.0000
  H   H4        1.0  0.00555  0.02370  0.33843  1.0000
  C   C3        1.0  0.06603  0.22295  0.48181  1.0000
  H   H5        1.0  0.03386  0.01039  0.29328  1.0000
  C   C4        1.0  0.00229  0.01006  0.30071  1.0000
  C   C5        1.0  0.00951  0.07285  0.33816  1.0000
  H   H6        1.0  0.02454  0.03767  0.32549  1.0000
  H   H7        1.0  0.03757  0.16247  0.48325  1.0000
  H   H8        1.0  0.02102  0.03529  0.35206  1.0000
  C   C6        1.0  0.23990  0.04879  0.49501  1.0000
  H   H9        1.0  0.02084  0.07455  0.32519  1.0000
  C   C7        1.0  0.23037  0.06906  0.46566  1.0000
  C   C8        1.0  0.01316  0.03723  0.33853  1.0000
  H   H10       1.0  0.99905  0.08665  0.33770  1.0000
  C   C9        1.0  0.01156  0.18345  0.48397  1.0000
  H   H11       1.0  0.23443  0.03574  0.49000  1.0000
  H   H12       1.0  0.25595  0.04835  0.48986  1.0000
  H   H13       1.0  0.22212  0.08297  0.45950  1.0000
  H   H14       1.0  0.00002  0.05786  0.30617  1.0000
  H   H15       1.0  0.01711  0.07197  0.35178  1.0000
  N   N1        1.0  0.22884  0.06748  0.48748  1.0000
  H   H16       1.0  0.06641  0.21169  0.47129  1.0000
  H   H17       1.0  0.10315  0.21350  0.46580  1.0000
  H   H18       1.0  0.20075  0.05563  0.49053  1.0000
  H   H19       1.0  0.22416  0.05648  0.46049  1.0000
  H   H20       1.0  0.11546  0.22218  0.48432  1.0000
  C   C10       1.0  0.10146  0.22410  0.47715  1.0000
  H   H21       1.0  0.24604  0.06892  0.45909  1.0000
  H   H22       1.0  0.09996  0.23932  0.46933  1.0000
  H   H23       1.0  0.05273  0.22119  0.49265  1.0000
  H   H24       1.0  0.22895  0.09872  0.48871  1.0000
  N   N2        1.0  0.08427  0.22066  0.49185  1.0000
  C   C11       1.0  0.20781  0.06772  0.49551  1.0000
  H   H25       1.0  0.19918  0.08198  0.49086  1.0000
  C   C12       1.0  0.23722  0.08437  0.49376  1.0000
  C   C13       1.0  0.02952  0.17451  0.49065  1.0000
  H   H26       1.0  0.08840  0.18904  0.49151  1.0000
  C   C14       1.0  0.00133  0.19902  0.49371  1.0000
  N   N3        1.0  0.99898  0.05525  0.33789  1.0000
  H   H27       1.0  0.99881  0.02504  0.29426  1.0000
  Fe  Fe1       1.0  0.43653  0.26605  0.71788  1.0000
  H   H28       1.0  0.48630  0.25079  0.70199  1.0000
  Fe  Fe2       1.0  0.08664  0.19955  0.58836  1.0000
  S   S2        1.0  0.10664  0.17149  0.58403  1.0000
  S   S3        1.0  0.08673  0.21486  0.61651  1.0000
  Fe  Fe3       1.0  0.10779  0.18226  0.55173  1.0000
  Fe  Fe4       1.0  0.07928  0.15869  0.57865  1.0000
  S   S4        1.0  0.07168  0.12780  0.58890  1.0000
  S   S5        1.0  0.05886  0.18571  0.58509  1.0000
  Fe  Fe5       1.0  0.20113  0.08203  0.55117  1.0000
  S   S6        1.0  0.23163  0.06624  0.55198  1.0000
  C   C15       1.0  0.18253  0.14404  0.51487  1.0000
  Fe  Fe6       1.0  0.18486  0.05386  0.58440  1.0000
  S   S7        1.0  0.21426  0.03641  0.58818  1.0000
  S   S8        1.0  0.15694  0.04467  0.60169  1.0000
  Fe  Fe7       1.0  0.22588  0.06636  0.58506  1.0000
  S   S9        1.0  0.25124  0.07661  0.59906  1.0000
  Fe  Fe8       1.0  0.21698  0.03819  0.55487  1.0000
  S   S10       1.0  0.19598  0.08364  0.58388  1.0000
  S   S11       1.0  0.18696  0.05408  0.55147  1.0000
  Fe  Fe9       1.0  0.27570  0.17194  0.71421  1.0000
  S   S12       1.0  0.28327  0.17107  0.68160  1.0000
  H   H29       1.0  0.16984  0.17309  0.50450  1.0000
  Fe  Fe10      1.0  0.29986  0.13255  0.72482  1.0000
  S   S13       1.0  0.30887  0.12852  0.69273  1.0000
  Fe  Fe11      1.0  0.31402  0.16079  0.68967  1.0000
  S   S14       1.0  0.34307  0.17178  0.67557  1.0000
  Fe  Fe12      1.0  0.27716  0.13901  0.68764  1.0000
  S   S15       1.0  0.25406  0.12621  0.67229  1.0000
  S   S16       1.0  0.30673  0.16389  0.72187  1.0000
  S   S17       1.0  0.26780  0.14074  0.72033  1.0000
  Fe  Fe13      1.0  0.39882  0.26254  0.69845  1.0000
  S   S18       1.0  0.43035  0.24912  0.69332  1.0000
  S   S19       1.0  0.36930  0.24936  0.70370  1.0000
  Fe  Fe14      1.0  0.41130  0.30307  0.70113  1.0000
  S   S20       1.0  0.44375  0.29279  0.69697  1.0000
  H   H30       1.0  0.19277  0.18310  0.72478  1.0000
  Fe  Fe15      1.0  0.43564  0.27682  0.67282  1.0000
  S   S21       1.0  0.45809  0.27702  0.64543  1.0000
  H   H31       1.0  0.22799  0.16660  0.57713  1.0000
  H   H32       1.0  0.23177  0.10540  0.56899  1.0000
  S   S22       1.0  0.40360  0.28870  0.67576  1.0000
  C   C16       1.0  0.22658  0.22447  0.72588  1.0000
  H   H33       1.0  0.17239  0.17812  0.67403  1.0000
  H   H34       1.0  0.31509  0.31816  0.67734  1.0000
  H   H35       1.0  0.23975  0.32237  0.71387  1.0000
  H   H36       1.0  0.17103  0.32966  0.72128  1.0000
  Fe  Fe16      1.0  0.14696  0.27664  0.67995  1.0000
  S   S23       1.0  0.13031  0.26441  0.70820  1.0000
  S   S24       1.0  0.14115  0.27202  0.64845  1.0000
  Fe  Fe17      1.0  0.17876  0.29074  0.70261  1.0000
  S   S25       1.0  0.16472  0.27820  0.73207  1.0000
  S   S26       1.0  0.20773  0.30306  0.70497  1.0000
  Fe  Fe18      1.0  0.16047  0.25219  0.71673  1.0000
  H   H37       1.0  0.19964  0.12604  0.56801  1.0000
  Fe  Fe19      1.0  0.13625  0.29191  0.72096  1.0000
  H   H38       1.0  0.07456  0.19748  0.51331  1.0000
  S   S27       1.0  0.17690  0.26333  0.68822  1.0000
  S   S28       1.0  0.15042  0.30551  0.69181  1.0000
  H   H39       1.0  0.21066  0.14290  0.54909  1.0000
  H   H40       1.0  0.44913  0.31930  0.65691  1.0000
  H   H41       1.0  0.17960  0.01531  0.57833  1.0000
  C   C17       1.0  0.01907  0.00089  0.63415  1.0000
  C   C18       1.0  0.13213  0.01685  0.59968  1.0000
  C   C19       1.0  0.16839  0.16049  0.51552  1.0000
  S   S29       1.0  0.26050  0.19949  0.72639  1.0000
  H   H42       1.0  0.02771  0.16882  0.55657  1.0000
  H   H43       1.0  0.39715  0.13850  0.71487  1.0000
  H   H44       1.0  0.33874  0.32660  0.74121  1.0000
  C   C20       1.0  0.23923  0.11919  0.56632  1.0000
  S   S30       1.0  0.03714  0.20706  0.53522  1.0000
  C   C21       1.0  0.07860  0.07338  0.58067  1.0000
  H   H45       1.0  0.11548  0.05999  0.58892  1.0000
  C   C22       1.0  0.01806  0.16056  0.56813  1.0000
  N   N4        1.0  0.36712  0.14305  0.72794  1.0000
  H   H46       1.0  0.19794  0.15178  0.57130  1.0000
  C   C23       1.0  0.03289  0.32736  0.73923  1.0000
  H   H47       1.0  0.07463  0.09091  0.61443  1.0000
  C   C24       1.0  0.45723  0.29370  0.62351  1.0000
  C   C25       1.0  0.44001  0.30567  0.61901  1.0000
  C   C26       1.0  0.44003  0.31851  0.60127  1.0000
  C   C27       1.0  0.45735  0.31985  0.58810  1.0000
  C   C28       1.0  0.47459  0.30808  0.59276  1.0000
  C   C29       1.0  0.47445  0.29493  0.61025  1.0000
  H   H48       1.0  0.42658  0.30469  0.62896  1.0000
  H   H49       1.0  0.29633  0.30311  0.71850  1.0000
  H   H50       1.0  0.06038  0.29652  0.74605  1.0000
  H   H51       1.0  0.48783  0.28567  0.61352  1.0000
  C   C30       1.0  0.12707  0.99930  0.59403  1.0000
  C   C31       1.0  0.22284  0.19006  0.72403  1.0000
  C   C32       1.0  0.20221  0.19466  0.72498  1.0000
  C   C33       1.0  0.19383  0.21424  0.72607  1.0000
  S   S31       1.0  0.08945  0.21130  0.55600  1.0000
  N   N5        1.0  0.08474  0.06476  0.60011  1.0000
  H   H52       1.0  0.49126  0.24205  0.67797  1.0000
  H   H53       1.0  0.32789  0.26741  0.71824  1.0000
  H   H54       1.0  0.07660  0.06844  0.63084  1.0000
  C   C34       1.0  0.20400  0.01440  0.50866  1.0000
  C   C35       1.0  0.35008  0.19383  0.68266  1.0000
  C   C36       1.0  0.36891  0.19979  0.67588  1.0000
  C   C37       1.0  0.37519  0.21668  0.68223  1.0000
  C   C38       1.0  0.36264  0.22774  0.69541  1.0000
  C   C39       1.0  0.34386  0.22171  0.70218  1.0000
  C   C40       1.0  0.33757  0.20494  0.69579  1.0000
  H   H55       1.0  0.37869  0.19129  0.66570  1.0000
  H   H56       1.0  0.38966  0.22119  0.67684  1.0000
  H   H57       1.0  0.33406  0.23001  0.71249  1.0000
  H   H58       1.0  0.32301  0.20063  0.70105  1.0000
  H   H59       1.0  0.21234  0.14279  0.60314  1.0000
  S   S32       1.0  0.40456  0.27789  0.72428  1.0000
  H   H60       1.0  0.09595  0.23377  0.51442  1.0000
  C   C41       1.0  0.25177  0.08983  0.61990  1.0000
  C   C42       1.0  0.23480  0.09465  0.63261  1.0000
  C   C43       1.0  0.23587  0.10574  0.64849  1.0000
  C   C44       1.0  0.25389  0.11202  0.65208  1.0000
  C   C45       1.0  0.27088  0.10710  0.63942  1.0000
  C   C46       1.0  0.26978  0.09612  0.62344  1.0000
  H   H61       1.0  0.22086  0.08980  0.63026  1.0000
  H   H62       1.0  0.22264  0.10937  0.65821  1.0000
  H   H63       1.0  0.28485  0.11178  0.64192  1.0000
  H   H64       1.0  0.28304  0.09244  0.61378  1.0000
  C   C47       1.0  0.10237  0.23055  0.62497  1.0000
  C   C48       1.0  0.11782  0.23885  0.61273  1.0000
  C   C49       1.0  0.12932  0.25165  0.62009  1.0000
  C   C50       1.0  0.12582  0.25609  0.63984  1.0000
  C   C51       1.0  0.11048  0.24765  0.65211  1.0000
  C   C52       1.0  0.09886  0.23504  0.64470  1.0000
  H   H65       1.0  0.12068  0.23570  0.59750  1.0000
  H   H66       1.0  0.14104  0.25816  0.61038  1.0000
  H   H67       1.0  0.10731  0.25112  0.66722  1.0000
  H   H68       1.0  0.08686  0.22888  0.65428  1.0000
  H   H69       1.0  0.31876  0.30079  0.73023  1.0000
  C   C53       1.0  0.36586  0.16473  0.72305  1.0000
  C   C54       1.0  0.15066  0.14431  0.54446  1.0000
  C   C55       1.0  0.16504  0.12774  0.54390  1.0000
  H   H70       1.0  0.13830  0.14438  0.55586  1.0000
  H   H71       1.0  0.16371  0.11510  0.55488  1.0000
  C   C56       1.0  0.20608  0.22915  0.72623  1.0000
  Fe  Fe20      1.0  0.06357  0.19473  0.55239  1.0000
  H   H72       1.0  0.34349  0.13985  0.71095  1.0000
  H   H73       1.0  0.02376  0.14464  0.56861  1.0000
  C   C57       1.0  0.02939  0.03360  0.63285  1.0000
  H   H74       1.0  0.16053  0.00316  0.63166  1.0000
  H   H75       1.0  0.04101  0.04315  0.63200  1.0000
  C   C58       1.0  0.02732  0.19705  0.51599  1.0000
  C   C59       1.0  0.04867  0.12906  0.60301  1.0000
  C   C60       1.0  0.03547  0.11519  0.60184  1.0000
  H   H76       1.0  0.35960  0.11774  0.71560  1.0000
  C   C61       1.0  0.02390  0.14677  0.62441  1.0000
  C   C62       1.0  0.04301  0.14456  0.61465  1.0000
  C   C63       1.0  0.46203  0.32794  0.65630  1.0000
  H   H77       1.0  0.05341  0.15487  0.61618  1.0000
  H   H78       1.0  0.08084  0.08935  0.57781  1.0000
  H   H79       1.0  0.47341  0.32246  0.64466  1.0000
  C   C64       1.0  0.01049  0.13330  0.62278  1.0000
  H   H80       1.0  0.21497  0.11697  0.59974  1.0000
  H   H81       1.0  0.32166  0.29424  0.66868  1.0000
  H   H82       1.0  0.46841  0.32439  0.67065  1.0000
  H   H83       1.0  0.37166  0.17211  0.73444  1.0000
  H   H84       1.0  0.24056  0.15795  0.55474  1.0000
  H   H85       1.0  0.23843  0.04666  0.51148  1.0000
  H   H86       1.0  0.35107  0.29292  0.71115  1.0000
  C   C65       1.0  0.32104  0.27342  0.70451  1.0000
  C   C66       1.0  0.10580  0.06734  0.60072  1.0000
  S   S33       1.0  0.08229  0.16682  0.54590  1.0000
  N   N6        1.0  0.32282  0.29481  0.69981  1.0000
  H   H87       1.0  0.11108  0.06094  0.61512  1.0000
  C   C67       1.0  0.00930  0.20591  0.50942  1.0000
  H   H88       1.0  0.37442  0.16886  0.70858  1.0000
  H   H89       1.0  0.03979  0.10322  0.59277  1.0000
  H   H90       1.0  0.06967  0.23273  0.51798  1.0000
  H   H91       1.0  0.25337  0.11588  0.57322  1.0000
  H   H92       1.0  0.32875  0.26490  0.69246  1.0000
  S   S34       1.0  0.19972  0.10771  0.52742  1.0000
  H   H93       1.0  0.08732  0.06587  0.56843  1.0000
  H   H94       1.0  0.24281  0.12228  0.55006  1.0000
  S   S35       1.0  0.22875  0.01131  0.53860  1.0000
  H   H95       1.0  0.08603  0.03647  0.61771  1.0000
  C   C68       1.0  0.00948  0.04186  0.63462  1.0000
  H   H96       1.0  0.19639  0.02728  0.51495  1.0000
  S   S36       1.0  0.13510  0.18200  0.52997  1.0000
  H   H97       1.0  0.06268  0.07212  0.57980  1.0000
  C   C69       1.0  0.08194  0.04349  0.60303  1.0000
  C   C70       1.0  0.03434  0.01309  0.63256  1.0000
  S   S37       1.0  0.16807  0.22002  0.72720  1.0000
  C   C71       1.0  0.22226  0.13087  0.59628  1.0000
  C   C72       1.0  0.07259  0.07488  0.61596  1.0000
  H   H98       1.0  0.23592  0.23605  0.72649  1.0000
  C   C73       1.0  0.18097  0.12762  0.52898  1.0000
  C   C74       1.0  0.31227  0.30555  0.71606  1.0000
  H   H99       1.0  0.00607  0.10678  0.61061  1.0000
  H   H100      1.0  0.19974  0.24430  0.72702  1.0000
  H   H101      1.0  0.02858  0.31326  0.73532  1.0000
  H   H102      1.0  0.36744  0.13755  0.69758  1.0000
  H   H103      1.0  0.01948  0.15907  0.63307  1.0000
  H   H104      1.0  0.19479  0.14410  0.50335  1.0000
  C   C75       1.0  0.34396  0.29821  0.69740  1.0000
  C   C76       1.0  0.48922  0.25552  0.68588  1.0000
  H   H105      1.0  0.23635  0.08352  0.51016  1.0000
  N   N7        1.0  0.22660  0.13581  0.57472  1.0000
  C   C77       1.0  0.16492  0.01092  0.58271  1.0000
  C   C78       1.0  0.21956  0.00348  0.51792  1.0000
  H   H106      1.0  0.48797  0.30879  0.58269  1.0000
  C   C79       1.0  0.38800  0.13512  0.72918  1.0000
  H   H107      1.0  0.31301  0.32178  0.71282  1.0000
  N   N8        1.0  0.15938  0.20828  0.67056  1.0000
  C   C80       1.0  0.16055  0.18820  0.68128  1.0000
  C   C81       1.0  0.15497  0.20750  0.65007  1.0000
  C   C82       1.0  0.17848  0.21651  0.67016  1.0000
  C   C83       1.0  0.14350  0.22104  0.68078  1.0000
  H   H108      1.0  0.16394  0.18849  0.69677  1.0000
  C   C84       1.0  0.20791  0.13933  0.56541  1.0000
  H   H109      1.0  0.42653  0.32735  0.59769  1.0000
  H   H110      1.0  0.16638  0.19767  0.64198  1.0000
  H   H111      1.0  0.14032  0.20203  0.64970  1.0000
  H   H112      1.0  0.15446  0.22245  0.64161  1.0000
  H   H113      1.0  0.17820  0.23155  0.66187  1.0000
  H   H114      1.0  0.19090  0.20703  0.66299  1.0000
  H   H115      1.0  0.18202  0.21783  0.68537  1.0000
  H   H116      1.0  0.14338  0.23666  0.67422  1.0000
  H   H117      1.0  0.14541  0.22085  0.69665  1.0000
  H   H118      1.0  0.12865  0.21627  0.67997  1.0000
  C   C85       1.0  0.23707  0.15379  0.57089  1.0000
  H   H119      1.0  0.14632  0.18164  0.68199  1.0000
  C   C86       1.0  0.35915  0.13409  0.71236  1.0000
  C   C87       1.0  0.08716  0.20044  0.50200  1.0000
  C   C88       1.0  0.15237  0.16073  0.53020  1.0000
  H   H120      1.0  0.25128  0.15156  0.57769  1.0000
  H   H121      1.0  0.05656  0.07368  0.61568  1.0000
  H   H122      1.0  0.09106  0.03525  0.59153  1.0000
  C   C89       1.0  0.31402  0.30204  0.68126  1.0000
  C   C90       1.0  0.23502  0.20498  0.72472  1.0000
  H   H123      1.0  0.05093  0.17381  0.51163  1.0000
  C   C91       1.0  0.01634  0.11730  0.61177  1.0000
  H   H124      1.0  0.00419  0.16525  0.53256  1.0000
  C   C92       1.0  0.08244  0.23509  0.50654  1.0000
  H   H125      1.0  0.10834  0.08327  0.59860  1.0000
  H   H126      1.0  0.35030  0.17117  0.72185  1.0000
  H   H127      1.0  0.39449  0.14161  0.74076  1.0000
  C   C93       1.0  0.15098  0.02279  0.59396  1.0000
  H   H128      1.0  0.30531  0.27021  0.70664  1.0000
  H   H129      1.0  0.12151  0.02569  0.60873  1.0000
  H   H130      1.0  0.23604  0.12859  0.60380  1.0000
  H   H131      1.0  0.06625  0.04102  0.60237  1.0000
  H   H132      1.0  0.47563  0.26440  0.68117  1.0000
  H   H133      1.0  0.35243  0.29008  0.68543  1.0000
  H   H134      1.0  0.00013  0.14111  0.54462  1.0000
  H   H135      1.0  0.38945  0.11877  0.73285  1.0000
  H   H136      1.0  0.22927  0.17496  0.72318  1.0000
  C   C94       1.0  0.21347  0.32769  0.69873  1.0000
  C   C95       1.0  0.03721  0.18103  0.50671  1.0000
  H   H137      1.0  0.10082  0.19814  0.50972  1.0000
  H   H138      1.0  0.02006  0.16551  0.58260  1.0000
  H   H139      1.0  0.29808  0.29965  0.68258  1.0000
  C   C96       1.0  0.16981  0.32636  0.73767  1.0000
  S   S38       1.0  0.05978  0.00368  0.63030  1.0000
  H   H140      1.0  0.17884  0.00095  0.64871  1.0000
  S   S39       1.0  0.45844  0.24822  0.73789  1.0000
  H   H141      1.0  0.34594  0.31418  0.69375  1.0000
  H   H142      1.0  0.00596  0.05763  0.63497  1.0000
  C   C97       1.0  0.99913  0.00912  0.63620  1.0000
  H   H143      1.0  0.20619  0.06593  0.51195  1.0000
  H   H144      1.0  0.37376  0.31661  0.72941  1.0000
  S   S40       1.0  0.11470  0.31285  0.73869  1.0000
  H   H145      1.0  0.48993  0.29455  0.68750  1.0000
  H   H146      1.0  0.07238  0.31810  0.73637  1.0000
  H   H147      1.0  0.08008  0.25055  0.49949  1.0000
  H   H148      1.0  0.00151  0.21837  0.51636  1.0000
  H   H149      1.0  0.49692  0.28330  0.65488  1.0000
  H   H150      1.0  0.15618  0.31884  0.74222  1.0000
  H   H151      1.0  0.18271  0.31560  0.74127  1.0000
  H   H152      1.0  0.99920  0.19411  0.55192  1.0000
  C   C98       1.0  0.36614  0.33003  0.72273  1.0000
  H   H153      1.0  0.33962  0.14407  0.74668  1.0000
  C   C99       1.0  0.34387  0.01388  0.83033  1.0000
  H   H154      1.0  0.33497  0.05451  0.79834  1.0000
  C   C100      1.0  0.06376  0.31109  0.74965  1.0000
  H   H155      1.0  0.46461  0.09193  0.89325  1.0000
  Fe  Fe21      1.0  0.47697  0.19835  0.87496  1.0000
  H   H156      1.0  0.04377  0.31135  0.78601  1.0000
  S   S41       1.0  0.44661  0.18934  0.88665  1.0000
  C   C101      1.0  0.23215  0.19028  0.78009  1.0000
  H   H157      1.0  0.35588  0.12200  0.75119  1.0000
  C   C102      1.0  0.03477  0.31390  0.77324  1.0000
  H   H158      1.0  0.42464  0.07968  0.93287  1.0000
  S   S42       1.0  0.48473  0.19914  0.84226  1.0000
  H   H159      1.0  0.25118  0.16720  0.75332  1.0000
  Fe  Fe22      1.0  0.37711  0.07069  0.83773  1.0000
  S   S43       1.0  0.34945  0.07239  0.85882  1.0000
  H   H160      1.0  0.44891  0.27916  0.76492  1.0000
  Fe  Fe23      1.0  0.39322  0.10554  0.85203  1.0000
  S   S44       1.0  0.36654  0.11072  0.87387  1.0000
  S   S45       1.0  0.42193  0.11946  0.84464  1.0000
  Fe  Fe24      1.0  0.36940  0.07737  0.88142  1.0000
  S   S46       1.0  0.37556  0.06269  0.91220  1.0000
  Fe  Fe25      1.0  0.34904  0.10511  0.84926  1.0000
  S   S47       1.0  0.32316  0.12378  0.83611  1.0000
  S   S48       1.0  0.39697  0.07291  0.86068  1.0000
  S   S49       1.0  0.37569  0.10279  0.82718  1.0000
  C   C103      1.0  0.45389  0.07554  0.82702  1.0000
  H   H161      1.0  0.39116  0.03694  0.94418  1.0000
  C   C104      1.0  0.37858  0.03054  0.94039  1.0000
  H   H162      1.0  0.44437  0.07720  0.84116  1.0000
  C   C105      1.0  0.37358  0.02951  0.81811  1.0000
  H   H163      1.0  0.45097  0.07905  0.92671  1.0000
  C   C106      1.0  0.29829  0.03734  0.77789  1.0000
  S   S50       1.0  0.48674  0.22809  0.87759  1.0000
  C   C107      1.0  0.11437  0.32083  0.80464  1.0000
  H   H164      1.0  0.28868  0.05157  0.77606  1.0000
  H   H165      1.0  0.24518  0.17473  0.81480  1.0000
  H   H166      1.0  0.32910  0.01459  0.83800  1.0000
  S   S51       1.0  0.48238  0.25433  0.82421  1.0000
  H   H167      1.0  0.44830  0.06036  0.89887  1.0000
  H   H168      1.0  0.43349  0.25809  0.85357  1.0000
  H   H169      1.0  0.42907  0.04342  0.80783  1.0000
  C   C108      1.0  0.11542  0.31569  0.76401  1.0000
  C   C109      1.0  0.35196  0.03145  0.91999  1.0000
  S   S52       1.0  0.49082  0.08199  0.85715  1.0000
  H   H170      1.0  0.31020  0.06569  0.79601  1.0000
  C   C110      1.0  0.12563  0.30452  0.79675  1.0000
  C   C111      1.0  0.12622  0.30198  0.77652  1.0000
  H   H171      1.0  0.40202  0.09346  0.90806  1.0000
  H   H172      1.0  0.41179  0.10234  0.88365  1.0000
  H   H173      1.0  0.13383  0.29373  0.80638  1.0000
  H   H174      1.0  0.13473  0.28922  0.77074  1.0000
  H   H175      1.0  0.44960  0.11521  0.89490  1.0000
  H   H176      1.0  0.26099  0.14788  0.77058  1.0000
  H   H177      1.0  0.34379  0.03851  0.90802  1.0000
  H   H178      1.0  0.31441  0.04245  0.81088  1.0000
  C   C112      1.0  0.38191  0.01219  0.81017  1.0000
  H   H179      1.0  0.23469  0.15327  0.77013  1.0000
  H   H180      1.0  0.26757  0.19446  0.79108  1.0000
  C   C113      1.0  0.37253  0.01319  0.95159  1.0000
  C   C114      1.0  0.47460  0.25192  0.80082  1.0000
  C   C115      1.0  0.46319  0.26781  0.79121  1.0000
  C   C116      1.0  0.45759  0.26679  0.77220  1.0000
  C   C117      1.0  0.46366  0.24995  0.76243  1.0000
  C   C118      1.0  0.47509  0.23407  0.77208  1.0000
  C   C119      1.0  0.48038  0.23496  0.79121  1.0000
  H   H181      1.0  0.45872  0.28107  0.79843  1.0000
  H   H182      1.0  0.25754  0.15226  0.80625  1.0000
  H   H183      1.0  0.23122  0.15756  0.80598  1.0000
  H   H184      1.0  0.46675  0.06469  0.83043  1.0000
  C   C120      1.0  0.43968  0.16955  0.87552  1.0000
  C   C121      1.0  0.42044  0.16383  0.87973  1.0000
  C   C122      1.0  0.41468  0.14845  0.87042  1.0000
  C   C123      1.0  0.42818  0.13877  0.85685  1.0000
  C   C124      1.0  0.44740  0.14439  0.85285  1.0000
  C   C125      1.0  0.45312  0.15966  0.86216  1.0000
  H   H185      1.0  0.40995  0.17136  0.89013  1.0000
  H   H186      1.0  0.39979  0.14423  0.87359  1.0000
  H   H187      1.0  0.45801  0.13682  0.84256  1.0000
  H   H188      1.0  0.46804  0.16363  0.85904  1.0000
  C   C126      1.0  0.31645  0.11458  0.77188  1.0000
  C   C127      1.0  0.30639  0.13106  0.78023  1.0000
  C   C128      1.0  0.30844  0.13382  0.79995  1.0000
  C   C129      1.0  0.32077  0.12027  0.81132  1.0000
  C   C130      1.0  0.33103  0.10401  0.80275  1.0000
  C   C131      1.0  0.32895  0.10127  0.78314  1.0000
  H   H189      1.0  0.29701  0.14152  0.77150  1.0000
  H   H190      1.0  0.30058  0.14648  0.80647  1.0000
  H   H191      1.0  0.34043  0.09337  0.81134  1.0000
  H   H192      1.0  0.33719  0.08879  0.77667  1.0000
  C   C132      1.0  0.26747  0.18328  0.78059  1.0000
  H   H193      1.0  0.43304  0.07051  0.87994  1.0000
  C   C133      1.0  0.43642  0.04935  0.81918  1.0000
  H   H194      1.0  0.31773  0.06733  0.75933  1.0000
  H   H195      1.0  0.44759  0.06349  0.78155  1.0000
  H   H196      1.0  0.43623  0.10230  0.92915  1.0000
  C   C134      1.0  0.41448  0.10083  0.89944  1.0000
  H   H197      1.0  0.42571  0.04981  0.83268  1.0000
  C   C135      1.0  0.43421  0.06958  0.89607  1.0000
  H   H198      1.0  0.44850  0.10107  0.87478  1.0000
  H   H199      1.0  0.45957  0.09010  0.82203  1.0000
  H   H200      1.0  0.29199  0.02843  0.79136  1.0000
  H   H201      1.0  0.33254  0.00845  0.92824  1.0000
  H   H202      1.0  0.42172  0.06161  0.90385  1.0000
  Fe  Fe26      1.0  0.49511  0.22834  0.84461  1.0000
  H   H203      1.0  0.32530  0.01172  0.79471  1.0000
  C   C136      1.0  0.33120  0.02148  0.78169  1.0000
  C   C137      1.0  0.35463  0.03030  0.82829  1.0000
  H   H204      1.0  0.44911  0.03838  0.82286  1.0000
  H   H205      1.0  0.34798  0.04372  0.83409  1.0000
  H   H206      1.0  0.47990  0.22101  0.76465  1.0000
  C   C138      1.0  0.42549  0.08341  0.80873  1.0000
  H   H207      1.0  0.41649  0.07873  0.79794  1.0000
  H   H208      1.0  0.23104  0.20120  0.79105  1.0000
  C   C139      1.0  0.45567  0.06794  0.79320  1.0000
  S   S53       1.0  0.38664  0.05029  0.81445  1.0000
  H   H209      1.0  0.27036  0.19088  0.76539  1.0000
  C   C140      1.0  0.44980  0.09989  0.89095  1.0000
  H   H210      1.0  0.46852  0.05669  0.79489  1.0000
  H   H211      1.0  0.34224  0.05556  0.76219  1.0000
  H   H212      1.0  0.41571  0.08484  0.82264  1.0000
  N   N9        1.0  0.43377  0.08947  0.90255  1.0000
  N   N10       1.0  0.42070  0.23343  0.84536  1.0000
  C   C141      1.0  0.44006  0.22179  0.84201  1.0000
  C   C142      1.0  0.40770  0.22942  0.83086  1.0000
  C   C143      1.0  0.42356  0.25469  0.84292  1.0000
  C   C144      1.0  0.41170  0.22771  0.86564  1.0000
  H   H213      1.0  0.45013  0.22458  0.85277  1.0000
  H   H214      1.0  0.44745  0.22564  0.82690  1.0000
  H   H215      1.0  0.43864  0.20561  0.84392  1.0000
  H   H216      1.0  0.39290  0.23797  0.83295  1.0000
  H   H217      1.0  0.41419  0.23349  0.81541  1.0000
  H   H218      1.0  0.40543  0.21345  0.83229  1.0000
  H   H219      1.0  0.40928  0.26406  0.84532  1.0000
  H   H220      1.0  0.43060  0.25934  0.82781  1.0000
  H   H221      1.0  0.42136  0.23023  0.87692  1.0000
  H   H222      1.0  0.40961  0.21166  0.86797  1.0000
  H   H223      1.0  0.39705  0.23620  0.86888  1.0000
  H   H224      1.0  0.29726  0.02922  0.76497  1.0000
  C   C145      1.0  0.43654  0.08755  0.92378  1.0000
  H   H225      1.0  0.41371  0.11601  0.90389  1.0000
  C   C146      1.0  0.36829  0.03987  0.92461  1.0000
  N   N11       1.0  0.24848  0.17448  0.78322  1.0000
  C   C147      1.0  0.24886  0.16004  0.76874  1.0000
  C   C148      1.0  0.35575  0.00522  0.94746  1.0000
  C   C149      1.0  0.34560  0.01438  0.93152  1.0000
  C   C150      1.0  0.31964  0.05130  0.79693  1.0000
  N   N12       1.0  0.44289  0.06905  0.81205  1.0000
  H   H226      1.0  0.43941  0.01027  0.79530  1.0000
  H   H227      1.0  0.38044  0.00643  0.96386  1.0000
  H   H228      1.0  0.28014  0.17188  0.78298  1.0000
  N   N13       1.0  0.31896  0.04071  0.77949  1.0000
  C   C151      1.0  0.24546  0.16431  0.80346  1.0000
  S   S54       1.0  0.11370  0.32350  0.83023  1.0000
  H   H229      1.0  0.18023  0.32865  0.77372  1.0000
  C   C152      1.0  0.32667  0.05271  0.76145  1.0000
  C   C153      1.0  0.49615  0.11993  0.86237  1.0000
  H   H230      1.0  0.42986  0.09843  0.80332  1.0000
  H   H231      1.0  0.46150  0.08232  0.78774  1.0000
  H   H232      1.0  0.21762  0.18420  0.78118  1.0000
  H   H233      1.0  0.39661  0.01154  0.80233  1.0000
  H   H234      1.0  0.07372  0.30818  0.76165  1.0000
  H   H235      1.0  0.23437  0.19864  0.76516  1.0000
  H   H236      1.0  0.33167  0.01333  0.76851  1.0000
  H   H237      1.0  0.34673  0.02339  0.78384  1.0000
  H   H238      1.0  0.02081  0.32296  0.77793  1.0000
  H   H239      1.0  0.03069  0.29932  0.77041  1.0000
  H   H240      1.0  0.48927  0.22269  0.79834  1.0000
  N   N14       1.0  0.04560  0.32381  0.75557  1.0000
  H   H241      1.0  0.48611  0.11811  0.87569  1.0000
  H   H242      1.0  0.49552  0.29041  0.80680  1.0000
  S   S55       1.0  0.47932  0.01671  0.80007  1.0000
  H   H243      1.0  0.36101  0.14471  0.75933  1.0000
  H   H244      1.0  0.32634  0.04522  0.74797  1.0000
  S   S56       1.0  0.31383  0.10984  0.74753  1.0000
  C   C154      1.0  0.35546  0.13826  0.74714  1.0000
  H   H245      1.0  0.01692  0.61143  0.02339  1.0000
  H   H246      1.0  0.13162  0.55974  0.01348  1.0000
  C   C155      1.0  0.00968  0.62354  0.01439  1.0000
  H   H247      1.0  0.13851  0.65815  0.04149  1.0000
  H   H248      1.0  0.03761  0.56730  0.09080  1.0000
  S   S57       1.0  0.48740  0.61713  0.22625  1.0000
  H   H249      1.0  0.13776  0.63953  0.00977  1.0000
  Fe  Fe27      1.0  0.20999  0.62580  0.01163  1.0000
  S   S58       1.0  0.19598  0.60848  0.03899  1.0000
  H   H250      1.0  0.13970  0.60411  0.03688  1.0000
  H   H251      1.0  0.00504  0.55733  0.16149  1.0000
  H   H252      1.0  0.04764  0.64850  0.04504  1.0000
  Fe  Fe28      1.0  0.05822  0.64258  0.12991  1.0000
  S   S59       1.0  0.06822  0.62023  0.15429  1.0000
  H   H253      1.0  0.43657  0.64186  0.21361  1.0000
  Fe  Fe29      1.0  0.09556  0.63339  0.10219  1.0000
  S   S60       1.0  0.10812  0.61048  0.12479  1.0000
  S   S61       1.0  0.11003  0.64294  0.07162  1.0000
  Fe  Fe30      1.0  0.07725  0.60040  0.13000  1.0000
  S   S62       1.0  0.07115  0.56869  0.12673  1.0000
  Fe  Fe31      1.0  0.09745  0.63308  0.14640  1.0000
  S   S63       1.0  0.11436  0.64274  0.16997  1.0000
  S   S64       1.0  0.06552  0.62243  0.10609  1.0000
  H   H254      1.0  0.03952  0.64677  0.17666  1.0000
  H   H255      1.0  0.39584  0.63679  0.23630  1.0000
  C   C156      1.0  0.01545  0.53493  0.14204  1.0000
  H   H256      1.0  0.02927  0.61887  0.14527  1.0000
  H   H257      1.0  0.16944  0.57940  0.03833  1.0000
  C   C157      1.0  0.99960  0.57420  0.10516  1.0000
  Fe  Fe32      1.0  0.48875  0.64991  0.22574  1.0000
  C   C158      1.0  0.01454  0.62495  0.14233  1.0000
  S   S65       1.0  0.21128  0.65857  0.00992  1.0000
  H   H258      1.0  0.16485  0.66135  0.00113  1.0000
  C   C159      1.0  0.03165  0.58312  0.09080  1.0000
  H   H259      1.0  0.17502  0.56231  0.02019  1.0000
  C   C160      1.0  0.06746  0.65882  0.19572  1.0000
  C   C161      1.0  0.05238  0.65432  0.02954  1.0000
  H   H260      1.0  0.00313  0.59656  0.14707  1.0000
  H   H261      1.0  0.04856  0.64388  0.01965  1.0000
  C   C162      1.0  0.00663  0.57945  0.06974  1.0000
  H   H262      1.0  0.00988  0.61634  0.07608  1.0000
  H   H263      1.0  0.03479  0.58791  0.10501  1.0000
  N   N15       1.0  0.01025  0.58598  0.08867  1.0000
  H   H264      1.0  0.15460  0.55940  0.03909  1.0000
  H   H265      1.0  0.10135  0.63851  0.02910  1.0000
  H   H266      1.0  0.08218  0.62635  0.02135  1.0000
  C   C163      1.0  0.01028  0.64525  0.13717  1.0000
  C   C164      1.0  0.17330  0.61929  0.05003  1.0000
  C   C165      1.0  0.16317  0.60929  0.06658  1.0000
  C   C166      1.0  0.14404  0.61684  0.07400  1.0000
  C   C167      1.0  0.13492  0.63431  0.06476  1.0000
  C   C168      1.0  0.14534  0.64454  0.04863  1.0000
  C   C169      1.0  0.16451  0.63716  0.04149  1.0000
  H   H267      1.0  0.16995  0.59552  0.07344  1.0000
  H   H268      1.0  0.13617  0.60882  0.08646  1.0000
  H   H269      1.0  0.06373  0.65119  0.21073  1.0000
  H   H270      1.0  0.17251  0.64508  0.02919  1.0000
  S   S66       1.0  0.08664  0.65632  0.12324  1.0000
  C   C170      1.0  0.01694  0.55216  0.15090  1.0000
  C   C171      1.0  0.03368  0.56281  0.14622  1.0000
  C   C172      1.0  0.04940  0.55615  0.13287  1.0000
  C   C173      1.0  0.04794  0.53889  0.12406  1.0000
  C   C174      1.0  0.03103  0.52846  0.12842  1.0000
  H   H271      1.0  0.03463  0.57590  0.15331  1.0000
  H   H272      1.0  0.06005  0.53347  0.11382  1.0000
  H   H273      1.0  0.03024  0.51519  0.12156  1.0000
  H   H274      1.0  0.08149  0.63104  0.04679  1.0000
  H   H275      1.0  0.44970  0.63955  0.23486  1.0000
  C   C175      1.0  0.43494  0.63882  0.23003  1.0000
  H   H276      1.0  0.00466  0.55814  0.10541  1.0000
  C   C176      1.0  0.40061  0.65190  0.23241  1.0000
  C   C177      1.0  0.13354  0.59391  0.02836  1.0000
  H   H277      1.0  0.01177  0.56351  0.06899  1.0000
  C   C178      1.0  0.16078  0.59728  0.00279  1.0000
  S   S67       1.0  0.24189  0.61894  0.99962  1.0000
  H   H278      1.0  0.12514  0.58369  0.03918  1.0000
  H   H279      1.0  0.04023  0.59179  0.07867  1.0000
  H   H280      1.0  0.00098  0.41402  0.06023  1.0000
  C   C179      1.0  0.08514  0.63725  0.03117  1.0000
  H   H281      1.0  0.00194  0.57871  0.11967  1.0000
  N   N16       1.0  0.42000  0.65318  0.23934  1.0000
  H   H282      1.0  0.12285  0.60306  0.01920  1.0000
  H   H283      1.0  0.07348  0.64721  0.18592  1.0000
  H   H284      1.0  0.02969  0.65038  0.20159  1.0000
  H   H285      1.0  0.16681  0.60767  0.01127  1.0000
  N   N17       1.0  0.14934  0.58306  0.01603  1.0000
  C   C180      1.0  0.14039  0.57066  0.00400  1.0000
  H   H286      1.0  0.01432  0.58808  0.05691  1.0000
  H   H287      1.0  0.40121  0.65528  0.21605  1.0000
  C   C181      1.0  0.16265  0.57043  0.02895  1.0000
  H   H288      1.0  0.43128  0.62333  0.23412  1.0000
  H   H289      1.0  0.38895  0.66252  0.23915  1.0000
  C   C182      1.0  0.99974  0.61226  0.14329  1.0000
  C   C183      1.0  0.03441  0.65820  0.18691  1.0000
  H   H290      1.0  0.13437  0.65966  0.19779  1.0000
  H   H291      1.0  0.00643  0.61285  0.10261  1.0000
  C   C184      1.0  0.00305  0.60714  0.08901  1.0000
  S   S68       1.0  0.02905  0.66103  0.13424  1.0000
  N   N18       1.0  0.07377  0.65665  0.02668  1.0000
  H   H292      1.0  0.35315  0.49512  0.47342  1.0000
  N   N19       1.0  0.37572  0.48335  0.45207  1.0000
  H   H293      1.0  0.44399  0.57737  0.40404  1.0000
  Fe  Fe33      1.0  0.47846  0.61785  0.25883  1.0000
  H   H294      1.0  0.32314  0.56234  0.46903  1.0000
  S   S69       1.0  0.45089  0.60515  0.27436  1.0000
  H   H295      1.0  0.43738  0.64622  0.39219  1.0000
  H   H296      1.0  0.36846  0.47932  0.42323  1.0000
  H   H297      1.0  0.39448  0.47595  0.42601  1.0000
  H   H298      1.0  0.40610  0.48146  0.45808  1.0000
  S   S70       1.0  0.47829  0.65066  0.25776  1.0000
  Fe  Fe34      1.0  0.36879  0.61068  0.40292  1.0000
  S   S71       1.0  0.34538  0.63515  0.41148  1.0000
  S   S72       1.0  0.37741  0.57944  0.41774  1.0000
  Fe  Fe35      1.0  0.39042  0.63869  0.37097  1.0000
  H   H299      1.0  0.45456  0.61772  0.36393  1.0000
  S   S73       1.0  0.41846  0.64546  0.35199  1.0000
  H   H300      1.0  0.48835  0.61278  0.33263  1.0000
  H   H301      1.0  0.42174  0.58261  0.39209  1.0000
  Fe  Fe36      1.0  0.34565  0.64474  0.37870  1.0000
  H   H302      1.0  0.38158  0.50040  0.42396  1.0000
  S   S74       1.0  0.39378  0.62921  0.40285  1.0000
  S   S75       1.0  0.36702  0.61858  0.36993  1.0000
  H   H303      1.0  0.40750  0.65905  0.26870  1.0000
  C   C185      1.0  0.46938  0.57923  0.37072  1.0000
  C   C186      1.0  0.35060  0.54498  0.47486  1.0000
  H   H304      1.0  0.34427  0.49002  0.45116  1.0000
  H   H305      1.0  0.44723  0.59482  0.34182  1.0000
  C   C187      1.0  0.35684  0.49540  0.45713  1.0000
  H   H306      1.0  0.43801  0.56071  0.38774  1.0000
  C   C188      1.0  0.38027  0.48479  0.43034  1.0000
  H   H307      1.0  0.32248  0.64710  0.47393  1.0000
  C   C189      1.0  0.37082  0.54203  0.46861  1.0000
  H   H308      1.0  0.38813  0.45302  0.45667  1.0000
  H   H309      1.0  0.45541  0.61016  0.38983  1.0000
  C   C190      1.0  0.43932  0.58659  0.35485  1.0000
  C   C191      1.0  0.44154  0.61599  0.29611  1.0000
  C   C192      1.0  0.45225  0.62921  0.30325  1.0000
  C   C193      1.0  0.44486  0.63821  0.32028  1.0000
  C   C194      1.0  0.42650  0.63424  0.33027  1.0000
  C   C195      1.0  0.41547  0.62118  0.32309  1.0000
  C   C196      1.0  0.42308  0.61195  0.30607  1.0000
  H   H310      1.0  0.46635  0.63246  0.29570  1.0000
  H   H311      1.0  0.41451  0.63334  0.26574  1.0000
  H   H312      1.0  0.40121  0.61810  0.33070  1.0000
  H   H313      1.0  0.41462  0.60179  0.30054  1.0000
  C   C197      1.0  0.43762  0.57657  0.38998  1.0000
  H   H314      1.0  0.33731  0.66309  0.44208  1.0000
  H   H315      1.0  0.39398  0.50622  0.45477  1.0000
  H   H316      1.0  0.38017  0.53100  0.47679  1.0000
  H   H317      1.0  0.43714  0.42054  0.48771  1.0000
  H   H318      1.0  0.35744  0.51118  0.45109  1.0000
  C   C198      1.0  0.44757  0.60855  0.37687  1.0000
  C   C199      1.0  0.36832  0.65109  0.48662  1.0000
  C   C200      1.0  0.33880  0.55985  0.46435  1.0000
  C   C201      1.0  0.39178  0.49073  0.46085  1.0000
  C   C202      1.0  0.37886  0.55303  0.45137  1.0000
  C   C203      1.0  0.36700  0.56767  0.44061  1.0000
  C   C204      1.0  0.34697  0.57129  0.44746  1.0000
  H   H319      1.0  0.39438  0.55017  0.44629  1.0000
  H   H320      1.0  0.33760  0.58239  0.43930  1.0000
  H   H321      1.0  0.47075  0.56347  0.36787  1.0000
  H   H322      1.0  0.45353  0.64822  0.32577  1.0000
  C   C205      1.0  0.34878  0.64645  0.48851  1.0000
  H   H323      1.0  0.47688  0.58024  0.38408  1.0000
  H   H324      1.0  0.37067  0.46090  0.47632  1.0000
  H   H325      1.0  0.42363  0.59321  0.35608  1.0000
  C   C206      1.0  0.37403  0.46249  0.45995  1.0000
  H   H326      1.0  0.38851  0.49039  0.47717  1.0000
  H   H327      1.0  0.36209  0.45632  0.45369  1.0000
  H   H328      1.0  0.43955  0.57107  0.35152  1.0000
  N   N20       1.0  0.44848  0.58769  0.37311  1.0000
  H   H329      1.0  0.43202  0.61505  0.37977  1.0000
  H   H330      1.0  0.47787  0.58746  0.35812  1.0000
  S   S76       1.0  0.49507  0.62208  0.37094  1.0000
  C   C207      1.0  0.47189  0.64608  0.48139  1.0000
  H   H331      1.0  0.48671  0.63984  0.47676  1.0000
  Fe  Fe37      1.0  0.37053  0.65393  0.40884  1.0000
  C   C208      1.0  0.33757  0.65076  0.47249  1.0000
  S   S77       1.0  0.33930  0.52980  0.49502  1.0000
  C   C209      1.0  0.34594  0.65980  0.45454  1.0000
  H   H332      1.0  0.41837  0.65478  0.42414  1.0000
  C   C210      1.0  0.49666  0.62547  0.33066  1.0000
  C   C211      1.0  0.44627  0.65864  0.39284  1.0000
  C   C212      1.0  0.37656  0.66049  0.46880  1.0000
  H   H333      1.0  0.43309  0.64940  0.26674  1.0000
  H   H334      1.0  0.44081  0.66106  0.43184  1.0000
  C   C213      1.0  0.41864  0.64859  0.26107  1.0000
  S   S78       1.0  0.31934  0.65862  0.36269  1.0000
  C   C214      1.0  0.46268  0.66153  0.46933  1.0000
  H   H335      1.0  0.45945  0.65267  0.40059  1.0000
  C   C215      1.0  0.43357  0.66242  0.49401  1.0000
  H   H336      1.0  0.45162  0.66389  0.37732  1.0000
  H   H337      1.0  0.39177  0.66384  0.46727  1.0000
  Fe  Fe38      1.0  0.35517  0.50599  0.51562  1.0000
  S   S79       1.0  0.38790  0.50441  0.51636  1.0000
  Fe  Fe39      1.0  0.48463  0.34591  0.54747  1.0000
  Fe  Fe40      1.0  0.35104  0.47023  0.54836  1.0000
  S   S80       1.0  0.38378  0.46618  0.55058  1.0000
  S   S81       1.0  0.33241  0.44722  0.56620  1.0000
  Fe  Fe41      1.0  0.38077  0.49935  0.54926  1.0000
  S   S82       1.0  0.39326  0.51639  0.56998  1.0000
  Fe  Fe42      1.0  0.38732  0.47156  0.51759  1.0000
  H   H338      1.0  0.45083  0.53166  0.73921  1.0000
  S   S83       1.0  0.34785  0.50323  0.54881  1.0000
  S   S84       1.0  0.35480  0.47323  0.51494  1.0000
  S   S85       1.0  0.33453  0.52091  0.74078  1.0000
  H   H339      1.0  0.41119  0.57901  0.53974  1.0000
  S   S86       1.0  0.25398  0.44937  0.74252  1.0000
  H   H340      1.0  0.43827  0.56576  0.69465  1.0000
  H   H341      1.0  0.44642  0.53613  0.67699  1.0000
  S   S87       1.0  0.43197  0.63896  0.53031  1.0000
  S   S88       1.0  0.33807  0.63629  0.51124  1.0000
  S   S89       1.0  0.26258  0.43098  0.69244  1.0000
  H   H342      1.0  0.40446  0.56243  0.59311  1.0000
  S   S90       1.0  0.28964  0.38975  0.68323  1.0000
  Fe  Fe43      1.0  0.29442  0.42165  0.68321  1.0000
  S   S91       1.0  0.31062  0.44234  0.65995  1.0000
  Fe  Fe44      1.0  0.25814  0.39881  0.69481  1.0000
  S   S92       1.0  0.23157  0.39056  0.68184  1.0000
  C   C216      1.0  0.41322  0.41249  0.55031  1.0000
  H   H343      1.0  0.32229  0.49483  0.68827  1.0000
  H   H344      1.0  0.24935  0.35643  0.70531  1.0000
  Fe  Fe45      1.0  0.20166  0.62685  0.72387  1.0000
  S   S93       1.0  0.19050  0.64248  0.69552  1.0000
  S   S94       1.0  0.21256  0.59459  0.72478  1.0000
  Fe  Fe46      1.0  0.36046  0.51616  0.71722  1.0000
  S   S95       1.0  0.35843  0.52854  0.68567  1.0000
  C   C217      1.0  0.44488  0.52690  0.69151  1.0000
  Fe  Fe47      1.0  0.40244  0.49476  0.70785  1.0000
  S   S96       1.0  0.40318  0.50559  0.67570  1.0000
  C   C218      1.0  0.38481  0.43523  0.66507  1.0000
  Fe  Fe48      1.0  0.38997  0.53473  0.68555  1.0000
  S   S97       1.0  0.40328  0.56240  0.67143  1.0000
  Fe  Fe49      1.0  0.37192  0.49852  0.67883  1.0000
  S   S98       1.0  0.36116  0.48270  0.65633  1.0000
  S   S99       1.0  0.39114  0.52464  0.71787  1.0000
  S   S100      1.0  0.37183  0.48517  0.71033  1.0000
  C   C219      1.0  0.39291  0.57172  0.64937  1.0000
  C   C220      1.0  0.39819  0.58944  0.63859  1.0000
  C   C221      1.0  0.38993  0.59652  0.62085  1.0000
  C   C222      1.0  0.37651  0.58575  0.61386  1.0000
  C   C223      1.0  0.37139  0.56808  0.62463  1.0000
  C   C224      1.0  0.37945  0.56121  0.64231  1.0000
  H   H345      1.0  0.40854  0.59773  0.64402  1.0000
  H   H346      1.0  0.39396  0.61021  0.61262  1.0000
  H   H347      1.0  0.37526  0.54767  0.65045  1.0000
  N   N21       1.0  0.42359  0.57186  0.56743  1.0000
  H   H348      1.0  0.26482  0.66030  0.66284  1.0000
  H   H349      1.0  0.40706  0.59762  0.57844  1.0000
  H   H350      1.0  0.19830  0.37179  0.67354  1.0000
  S   S101      1.0  0.45672  0.33611  0.56588  1.0000
  H   H351      1.0  0.42828  0.36899  0.57631  1.0000
  H   H352      1.0  0.43703  0.39266  0.57630  1.0000
  C   C225      1.0  0.34952  0.55475  0.53898  1.0000
  C   C226      1.0  0.31751  0.55482  0.72043  1.0000
  H   H353      1.0  0.14484  0.60422  0.68055  1.0000
  H   H354      1.0  0.30409  0.58126  0.70487  1.0000
  H   H355      1.0  0.33022  0.55353  0.70956  1.0000
  C   C227      1.0  0.43684  0.55592  0.70882  1.0000
  H   H356      1.0  0.33721  0.54946  0.54966  1.0000
  H   H357      1.0  0.12554  0.63458  0.72154  1.0000
  Fe  Fe50      1.0  0.37176  0.62137  0.57248  1.0000
  S   S102      1.0  0.38329  0.61850  0.54090  1.0000
  C   C228      1.0  0.20728  0.36106  0.68249  1.0000
  C   C229      1.0  0.35437  0.43904  0.68664  1.0000
  Fe  Fe51      1.0  0.27001  0.42559  0.72389  1.0000
  C   C230      1.0  0.38451  0.50714  0.59411  1.0000
  C   C231      1.0  0.37436  0.49027  0.59716  1.0000
  C   C232      1.0  0.36769  0.48255  0.61632  1.0000
  C   C233      1.0  0.37042  0.49208  0.63251  1.0000
  C   C234      1.0  0.38046  0.50901  0.62955  1.0000
  C   C235      1.0  0.38762  0.51648  0.61039  1.0000
  H   H358      1.0  0.37152  0.48309  0.58483  1.0000
  H   H359      1.0  0.36042  0.46920  0.61858  1.0000
  H   H360      1.0  0.38255  0.51645  0.64198  1.0000
  H   H361      1.0  0.39522  0.52963  0.60830  1.0000
  C   C236      1.0  0.32637  0.44595  0.59227  1.0000
  C   C237      1.0  0.32066  0.42824  0.60287  1.0000
  C   C238      1.0  0.31584  0.42675  0.62359  1.0000
  C   C239      1.0  0.31621  0.44316  0.63386  1.0000
  C   C240      1.0  0.32166  0.46088  0.62322  1.0000
  C   C241      1.0  0.32675  0.46228  0.60258  1.0000
  H   H362      1.0  0.32036  0.41549  0.59503  1.0000
  H   H363      1.0  0.31228  0.41283  0.63160  1.0000
  H   H364      1.0  0.32226  0.47363  0.63100  1.0000
  H   H365      1.0  0.33102  0.47604  0.59468  1.0000
  H   H366      1.0  0.29525  0.50591  0.73697  1.0000
  S   S103      1.0  0.22692  0.63455  0.73840  1.0000
  S   S104      1.0  0.40763  0.45204  0.49799  1.0000
  C   C242      1.0  0.46610  0.42834  0.52262  1.0000
  C   C243      1.0  0.45474  0.44481  0.52989  1.0000
  C   C244      1.0  0.43684  0.45226  0.52231  1.0000
  H   H367      1.0  0.40034  0.41723  0.56080  1.0000
  H   H368      1.0  0.44446  0.36954  0.62899  1.0000
  H   H369      1.0  0.45965  0.45166  0.54164  1.0000
  H   H370      1.0  0.42804  0.46482  0.52820  1.0000
  H   H371      1.0  0.39761  0.38432  0.53485  1.0000
  C   C245      1.0  0.43831  0.42522  0.69531  1.0000
  Fe  Fe52      1.0  0.35789  0.64041  0.53368  1.0000
  H   H372      1.0  0.48093  0.52773  0.70273  1.0000
  H   H373      1.0  0.33024  0.58393  0.55854  1.0000
  H   H374      1.0  0.30062  0.51221  0.69115  1.0000
  H   H375      1.0  0.39105  0.44601  0.67293  1.0000
  C   C246      1.0  0.43015  0.44398  0.70058  1.0000
  Fe  Fe53      1.0  0.23686  0.60182  0.74113  1.0000
  C   C247      1.0  0.47073  0.54157  0.70373  1.0000
  H   H376      1.0  0.47504  0.54935  0.71567  1.0000
  H   H377      1.0  0.39355  0.57358  0.56079  1.0000
  H   H378      1.0  0.42934  0.52346  0.69418  1.0000
  H   H379      1.0  0.40910  0.41731  0.53509  1.0000
  H   H380      1.0  0.20095  0.34374  0.74425  1.0000
  C   C248      1.0  0.32632  0.57743  0.52115  1.0000
  C   C249      1.0  0.23606  0.35246  0.70033  1.0000
  Fe  Fe54      1.0  0.29504  0.38712  0.71523  1.0000
  H   H381      1.0  0.43277  0.59502  0.58184  1.0000
  C   C250      1.0  0.12584  0.59597  0.71692  1.0000
  Fe  Fe55      1.0  0.39956  0.64473  0.54254  1.0000
  C   C251      1.0  0.41978  0.55901  0.58611  1.0000
  H   H382      1.0  0.36319  0.57221  0.50340  1.0000
  H   H383      1.0  0.37533  0.58013  0.52254  1.0000
  H   H384      1.0  0.48559  0.35595  0.64062  1.0000
  S   S105      1.0  0.43114  0.47858  0.71782  1.0000
  C   C252      1.0  0.44114  0.45524  0.71011  1.0000
  C   C253      1.0  0.37621  0.34206  0.70790  1.0000
  H   H385      1.0  0.24969  0.65570  0.64450  1.0000
  H   H386      1.0  0.37408  0.36885  0.68801  1.0000
  H   H387      1.0  0.46977  0.37653  0.64978  1.0000
  N   N22       1.0  0.41876  0.39091  0.55328  1.0000
  N   N23       1.0  0.44991  0.53722  0.70768  1.0000
  H   H388      1.0  0.35348  0.42106  0.65409  1.0000
  H   H389      1.0  0.36298  0.55290  0.54698  1.0000
  C   C254      1.0  0.46046  0.44767  0.71397  1.0000
  H   H390      1.0  0.43001  0.56087  0.59705  1.0000
  C   C255      1.0  0.42411  0.38523  0.57362  1.0000
  H   H391      1.0  0.31365  0.57297  0.53181  1.0000
  H   H392      1.0  0.34652  0.44822  0.67485  1.0000
  N   N24       1.0  0.34479  0.57548  0.53074  1.0000
  C   C256      1.0  0.46874  0.42903  0.70843  1.0000
  C   C257      1.0  0.30265  0.57061  0.71782  1.0000
  S   S106      1.0  0.36690  0.59266  0.59105  1.0000
  S   S107      1.0  0.48792  0.41870  0.53317  1.0000
  H   H393      1.0  0.27682  0.66383  0.61793  1.0000
  H   H394      1.0  0.32477  0.48258  0.73254  1.0000
  H   H395      1.0  0.27630  0.50795  0.72061  1.0000
  N   N25       1.0  0.25378  0.42840  0.63128  1.0000
  C   C258      1.0  0.24221  0.44050  0.64596  1.0000
  C   C259      1.0  0.26837  0.41421  0.64118  1.0000
  C   C260      1.0  0.26427  0.44140  0.61569  1.0000
  C   C261      1.0  0.24032  0.41741  0.62245  1.0000
  H   H396      1.0  0.23069  0.45107  0.63915  1.0000
  H   H397      1.0  0.25187  0.44927  0.65267  1.0000
  H   H398      1.0  0.23457  0.43105  0.65825  1.0000
  H   H399      1.0  0.27768  0.40510  0.63052  1.0000
  H   H400      1.0  0.27837  0.42196  0.64856  1.0000
  H   H401      1.0  0.26098  0.40386  0.65270  1.0000
  H   H402      1.0  0.27334  0.43275  0.60444  1.0000
  H   H403      1.0  0.27460  0.44982  0.62199  1.0000
  H   H404      1.0  0.25377  0.45235  0.60785  1.0000
  H   H405      1.0  0.24858  0.40798  0.61142  1.0000
  H   H406      1.0  0.22904  0.42761  0.61484  1.0000
  H   H407      1.0  0.23226  0.40749  0.63400  1.0000
  H   H408      1.0  0.43264  0.38994  0.52350  1.0000
  H   H409      1.0  0.32773  0.56798  0.50883  1.0000
  S   S108      1.0  0.34465  0.64091  0.56487  1.0000
  H   H410      1.0  0.44700  0.57571  0.54395  1.0000
  H   H411      1.0  0.42959  0.41649  0.68825  1.0000
  H   H412      1.0  0.47977  0.35715  0.66674  1.0000
  H   H413      1.0  0.41161  0.38927  0.58480  1.0000
  H   H414      1.0  0.43536  0.34561  0.63230  1.0000
  C   C262      1.0  0.40189  0.38043  0.55013  1.0000
  H   H415      1.0  0.35227  0.54473  0.52713  1.0000
  H   H416      1.0  0.16184  0.59086  0.73043  1.0000
  N   N26       1.0  0.14228  0.60846  0.71137  1.0000
  C   C263      1.0  0.16122  0.59648  0.71459  1.0000
  C   C264      1.0  0.13961  0.62509  0.72367  1.0000
  C   C265      1.0  0.14255  0.61634  0.69030  1.0000
  H   H417      1.0  0.35811  0.59713  0.50952  1.0000
  H   H418      1.0  0.11123  0.60458  0.71513  1.0000
  N   N27       1.0  0.36980  0.42462  0.67815  1.0000
  C   C266      1.0  0.37933  0.41227  0.69434  1.0000
  S   S109      1.0  0.26836  0.59358  0.72781  1.0000
  H   H419      1.0  0.46906  0.45620  0.72141  1.0000
  C   C267      1.0  0.18756  0.35397  0.74101  1.0000
  H   H420      1.0  0.37829  0.44384  0.65211  1.0000
  N   N28       1.0  0.30151  0.48724  0.71347  1.0000
  H   H421      1.0  0.37163  0.40066  0.66017  1.0000
  H   H422      1.0  0.16356  0.58343  0.70605  1.0000
  H   H423      1.0  0.36080  0.44933  0.69488  1.0000
  H   H424      1.0  0.01900  0.33685  0.74334  1.0000
  C   C268      1.0  0.43042  0.44351  0.50712  1.0000
  H   H425      1.0  0.12846  0.62543  0.68728  1.0000
  H   H426      1.0  0.12553  0.58946  0.73263  1.0000
  H   H427      1.0  0.18906  0.35842  0.72477  1.0000
  H   H428      1.0  0.42496  0.60284  0.55775  1.0000
  H   H429      1.0  0.44909  0.39258  0.54139  1.0000
  H   H430      1.0  0.34301  0.43157  0.69687  1.0000
  C   C269      1.0  0.44365  0.56614  0.55802  1.0000
  H   H431      1.0  0.42567  0.42085  0.55247  1.0000
  H   H432      1.0  0.17395  0.60533  0.70999  1.0000
  H   H433      1.0  0.31963  0.51130  0.70710  1.0000
  S   S110      1.0  0.46695  0.39363  0.69278  1.0000
  H   H434      1.0  0.42130  0.54311  0.58357  1.0000
  H   H435      1.0  0.45994  0.34837  0.62076  1.0000
  C   C270      1.0  0.44303  0.64741  0.50636  1.0000
  H   H436      1.0  0.36119  0.55956  0.61924  1.0000
  H   H437      1.0  0.34873  0.40433  0.67577  1.0000
  H   H438      1.0  0.45511  0.56760  0.56787  1.0000
  H   H439      1.0  0.41527  0.44962  0.69761  1.0000
  C   C271      1.0  0.45763  0.41762  0.69921  1.0000
  C   C272      1.0  0.44076  0.35581  0.66772  1.0000
  C   C273      1.0  0.43588  0.38543  0.53904  1.0000
  H   H440      1.0  0.44576  0.35217  0.68277  1.0000
  H   H441      1.0  0.42098  0.55320  0.71167  1.0000
  S   S111      1.0  0.38948  0.64631  0.57513  1.0000
  S   S112      1.0  0.48254  0.36470  0.51819  1.0000
  H   H442      1.0  0.30939  0.46276  0.73475  1.0000
  H   H443      1.0  0.45421  0.51257  0.69028  1.0000
  S   S113      1.0  0.31140  0.35940  0.72920  1.0000
  C   C274      1.0  0.22454  0.36644  0.68880  1.0000
  C   C275      1.0  0.33640  0.35317  0.72097  1.0000
  H   H444      1.0  0.38865  0.38428  0.56057  1.0000
  H   H445      1.0  0.39729  0.42490  0.65930  1.0000
  C   C276      1.0  0.45974  0.41966  0.50734  1.0000
  H   H446      1.0  0.44527  0.55053  0.55455  1.0000
  S   S114      1.0  0.40125  0.33571  0.69991  1.0000
  H   H447      1.0  0.46856  0.40713  0.50145  1.0000
  C   C277      1.0  0.34220  0.58828  0.54693  1.0000
  C   C278      1.0  0.44717  0.52445  0.72659  1.0000
  H   H448      1.0  0.43671  0.37208  0.66577  1.0000
  H   H449      1.0  0.33865  0.37848  0.69944  1.0000
  S   S115      1.0  0.30248  0.41844  0.71456  1.0000
  C   C279      1.0  0.34637  0.36509  0.70596  1.0000
  C   C280      1.0  0.36632  0.35962  0.69956  1.0000
  C   C281      1.0  0.29073  0.47540  0.70251  1.0000
  H   H450      1.0  0.12727  0.58340  0.70778  1.0000
  C   C282      1.0  0.36111  0.58149  0.51593  1.0000
  C   C283      1.0  0.31608  0.54110  0.73723  1.0000
  H   H451      1.0  0.15478  0.62592  0.68578  1.0000
  C   C284      1.0  0.42205  0.59272  0.57153  1.0000
  H   H452      1.0  0.38645  0.42143  0.70329  1.0000
  H   H453      1.0  0.43162  0.52079  0.72998  1.0000
  S   S116      1.0  0.26305  0.39396  0.72684  1.0000
  H   H454      1.0  0.44012  0.36917  0.54053  1.0000
  H   H455      1.0  0.48357  0.42336  0.71161  1.0000
  H   H456      1.0  0.32737  0.46626  0.71355  1.0000
  C   C285      1.0  0.44864  0.35347  0.63269  1.0000
  H   H457      1.0  0.13930  0.61971  0.73967  1.0000
  H   H458      1.0  0.30089  0.46771  0.69129  1.0000
  C   C286      1.0  0.40884  0.56950  0.55400  1.0000
  H   H459      1.0  0.40562  0.36408  0.55229  1.0000
  H   H460      1.0  0.36841  0.40411  0.70457  1.0000
  H   H461      1.0  0.45655  0.51005  0.72611  1.0000
  H   H462      1.0  0.39103  0.40109  0.68857  1.0000
  C   C287      1.0  0.31144  0.50201  0.69937  1.0000
  C   C288      1.0  0.34634  0.33570  0.72939  1.0000
  H   H463      1.0  0.28326  0.46394  0.71263  1.0000
  N   N29       1.0  0.45624  0.34937  0.65223  1.0000
  C   C289      1.0  0.20170  0.34176  0.68751  1.0000
  C   C290      1.0  0.28610  0.57288  0.73188  1.0000
  H   H464      1.0  0.35592  0.58734  0.55430  1.0000
  H   H465      1.0  0.27932  0.48662  0.73848  1.0000
  H   H466      1.0  0.15192  0.63468  0.71995  1.0000
  C   C291      1.0  0.28744  0.49739  0.72800  1.0000
  C   C292      1.0  0.31644  0.47408  0.72402  1.0000
  H   H467      1.0  0.32247  0.59298  0.51480  1.0000
  C   C293      1.0  0.36058  0.41203  0.66653  1.0000
  H   H468      1.0  0.47325  0.55113  0.68953  1.0000
  H   H469      1.0  0.40955  0.55387  0.55073  1.0000
  C   C294      1.0  0.47362  0.36024  0.65225  1.0000
  H   H470      1.0  0.44014  0.56420  0.72083  1.0000
  H   H471      1.0  0.33839  0.60404  0.54145  1.0000
  H   H472      1.0  0.27913  0.48480  0.69463  1.0000
  H   H473      1.0  0.46970  0.62769  0.50931  1.0000
  H   H474      1.0  0.15268  0.36234  0.72589  1.0000
  H   H475      1.0  0.13786  0.35124  0.74668  1.0000
  H   H476      1.0  0.18855  0.33766  0.68236  1.0000
  Fe  Fe56      1.0  0.49791  0.38638  0.53123  1.0000
  H   H477      1.0  0.04059  0.33491  0.72568  1.0000
  C   C295      1.0  0.23059  0.33317  0.70516  1.0000
  H   H478      1.0  0.42713  0.34847  0.66764  1.0000
  C   C296      1.0  0.46219  0.63923  0.49987  1.0000
  C   C297      1.0  0.15189  0.35816  0.74216  1.0000
  C   C298      1.0  0.44200  0.42732  0.49952  1.0000
  H   H479      1.0  0.37730  0.64709  0.49869  1.0000
  S   S117      1.0  0.49837  0.36853  0.56074  1.0000
  H   H480      1.0  0.08945  0.42104  0.78822  1.0000
  Fe  Fe57      1.0  0.19691  0.51569  0.85029  1.0000
  S   S118      1.0  0.22767  0.52325  0.85236  1.0000
  S   S119      1.0  0.17410  0.53322  0.83259  1.0000
  Fe  Fe58      1.0  0.20195  0.47665  0.87548  1.0000
  S   S120      1.0  0.23331  0.48072  0.87943  1.0000
  S   S121      1.0  0.18686  0.45023  0.89081  1.0000
  Fe  Fe59      1.0  0.22190  0.51224  0.88482  1.0000
  S   S122      1.0  0.22594  0.52322  0.91447  1.0000
  Fe  Fe60      1.0  0.23636  0.49124  0.84682  1.0000
  S   S123      1.0  0.26228  0.47995  0.82545  1.0000
  S   S124      1.0  0.19041  0.50721  0.88272  1.0000
  S   S125      1.0  0.20600  0.48485  0.84273  1.0000
  Fe  Fe61      1.0  0.23073  0.62229  0.96944  1.0000
  N   N30       1.0  0.00440  0.60862  0.93367  1.0000
  H   H481      1.0  0.23272  0.48777  0.94476  1.0000
  H   H482      1.0  0.19789  0.49216  0.93772  1.0000
  H   H483      1.0  0.23146  0.43568  0.93435  1.0000
  S   S126      1.0  0.11112  0.62660  0.98584  1.0000
  Fe  Fe62      1.0  0.03935  0.50704  0.80803  1.0000
  S   S127      1.0  0.04133  0.50491  0.84081  1.0000
  S   S128      1.0  0.02743  0.48206  0.79460  1.0000
  Fe  Fe63      1.0  0.06735  0.54106  0.79942  1.0000
  S   S129      1.0  0.07099  0.54024  0.83145  1.0000
  S   S130      1.0  0.08337  0.56517  0.78028  1.0000
  Fe  Fe64      1.0  0.07351  0.50751  0.83201  1.0000
  S   S131      1.0  0.09725  0.48840  0.84693  1.0000
  Fe  Fe65      1.0  0.03852  0.53825  0.83678  1.0000
  S   S132      1.0  0.02292  0.55988  0.85735  1.0000
  S   S133      1.0  0.07226  0.50815  0.79956  1.0000
  S   S134      1.0  0.03414  0.54062  0.80444  1.0000
  N   N31       1.0  0.00927  0.41397  0.85097  1.0000
  H   H484      1.0  0.24904  0.51046  0.78597  1.0000
  C   C299      1.0  0.00769  0.62580  0.91886  1.0000
  H   H485      1.0  0.01199  0.63837  0.92578  1.0000
  Fe  Fe66      1.0  0.20801  0.62782  0.76700  1.0000
  H   H486      1.0  0.01134  0.58721  0.91267  1.0000
  S   S135      1.0  0.21986  0.59570  0.77115  1.0000
  S   S136      1.0  0.07736  0.40507  0.84906  1.0000
  H   H487      1.0  0.01399  0.44233  0.83498  1.0000
  C   C300      1.0  0.21976  0.44659  0.92831  1.0000
  C   C301      1.0  0.20914  0.51892  0.78789  1.0000
  H   H488      1.0  0.10505  0.45897  0.76741  1.0000
  H   H489      1.0  0.16717  0.35253  0.77718  1.0000
  H   H490      1.0  0.08008  0.45256  0.76867  1.0000
  C   C302      1.0  0.10951  0.56462  0.77713  1.0000
  C   C303      1.0  0.12170  0.54688  0.77585  1.0000
  C   C304      1.0  0.14231  0.54708  0.77140  1.0000
  C   C305      1.0  0.16755  0.33924  0.76919  1.0000
  C   C306      1.0  0.02264  0.60225  0.94328  1.0000
  H   H491      1.0  0.01879  0.42201  0.82034  1.0000
  H   H492      1.0  0.11521  0.53302  0.77778  1.0000
  C   C307      1.0  0.00708  0.36260  0.94391  1.0000
  C   C308      1.0  0.15475  0.44324  0.84641  1.0000
  C   C309      1.0  0.14600  0.42584  0.85306  1.0000
  C   C310      1.0  0.06332  0.57566  0.90053  1.0000
  C   C311      1.0  0.06392  0.55615  0.89606  1.0000
  C   C312      1.0  0.05184  0.55138  0.88252  1.0000
  C   C313      1.0  0.03872  0.56602  0.87367  1.0000
  C   C314      1.0  0.03806  0.58558  0.87815  1.0000
  C   C315      1.0  0.05055  0.59044  0.89137  1.0000
  H   H493      1.0  0.05241  0.53627  0.87916  1.0000
  H   H494      1.0  0.02811  0.59698  0.87111  1.0000
  H   H495      1.0  0.05047  0.60559  0.89432  1.0000
  H   H496      1.0  0.19528  0.52654  0.78230  1.0000
  H   H497      1.0  0.04338  0.34885  0.90768  1.0000
  C   C316      1.0  0.02000  0.42651  0.83519  1.0000
  C   C317      1.0  0.12888  0.64341  0.98036  1.0000
  C   C318      1.0  0.17862  0.64486  0.89758  1.0000
  Fe  Fe67      1.0  0.10938  0.39408  0.84483  1.0000
  H   H498      1.0  0.02652  0.42024  0.87326  1.0000
  H   H499      1.0  0.09483  0.34708  0.79784  1.0000
  H   H500      1.0  0.17356  0.46411  0.85261  1.0000
  C   C319      1.0  0.22806  0.54730  0.92123  1.0000
  C   C320      1.0  0.23362  0.56294  0.90736  1.0000
  C   C321      1.0  0.23663  0.58121  0.91364  1.0000
  C   C322      1.0  0.23375  0.58430  0.93380  1.0000
  H   H501      1.0  0.15176  0.45126  0.83230  1.0000
  C   C323      1.0  0.22500  0.55046  0.94137  1.0000
  H   H502      1.0  0.23624  0.56078  0.89185  1.0000
  H   H503      1.0  0.24159  0.59289  0.90279  1.0000
  H   H504      1.0  0.22083  0.53851  0.95229  1.0000
  C   C324      1.0  0.15327  0.51998  0.83546  1.0000
  C   C325      1.0  0.15184  0.50379  0.84985  1.0000
  C   C326      1.0  0.13481  0.49388  0.85303  1.0000
  C   C327      1.0  0.11911  0.49998  0.84170  1.0000
  C   C328      1.0  0.12074  0.51578  0.82677  1.0000
  C   C329      1.0  0.13779  0.52584  0.82376  1.0000
  H   H505      1.0  0.16375  0.49890  0.85875  1.0000
  H   H506      1.0  0.13382  0.48164  0.86447  1.0000
  H   H507      1.0  0.10891  0.52035  0.81758  1.0000
  H   H508      1.0  0.13898  0.53820  0.81248  1.0000
  C   C330      1.0  0.25644  0.45541  0.76662  1.0000
  C   C331      1.0  0.23975  0.46429  0.77750  1.0000
  C   C332      1.0  0.24118  0.47097  0.79591  1.0000
  C   C333      1.0  0.25950  0.46959  0.80339  1.0000
  C   C334      1.0  0.27623  0.46072  0.79250  1.0000
  C   C335      1.0  0.27470  0.45344  0.77434  1.0000
  H   H509      1.0  0.22556  0.46594  0.77168  1.0000
  H   H510      1.0  0.22814  0.47757  0.80410  1.0000
  H   H511      1.0  0.29050  0.45958  0.79810  1.0000
  H   H512      1.0  0.28773  0.44679  0.76612  1.0000
  C   C336      1.0  0.14979  0.41579  0.87149  1.0000
  C   C337      1.0  0.16231  0.42328  0.88313  1.0000
  C   C338      1.0  0.17115  0.44073  0.87630  1.0000
  H   H513      1.0  0.14333  0.40219  0.87665  1.0000
  H   H514      1.0  0.16537  0.41545  0.89728  1.0000
  H   H515      1.0  0.20498  0.51237  0.80328  1.0000
  S   S137      1.0  0.10600  0.36769  0.86735  1.0000
  S   S138      1.0  0.05505  0.40075  0.80150  1.0000
  C   C339      1.0  0.16721  0.45060  0.85794  1.0000
  S   S139      1.0  0.23452  0.65496  0.96504  1.0000
  S   S140      1.0  0.07956  0.66043  0.95023  1.0000
  C   C340      1.0  0.04208  0.36419  0.80486  1.0000
  C   C341      1.0  0.03800  0.38437  0.79904  1.0000
  S   S141      1.0  0.18170  0.62263  0.75214  1.0000
  H   H516      1.0  0.05661  0.35834  0.80874  1.0000
  H   H517      1.0  0.23879  0.63091  0.80049  1.0000
  C   C342      1.0  0.11822  0.58251  0.77450  1.0000
  H   H518      1.0  0.03395  0.39176  0.85325  1.0000
  H   H519      1.0  0.20602  0.43913  0.92911  1.0000
  H   H520      1.0  0.10654  0.45301  0.82210  1.0000
  C   C343      1.0  0.01941  0.63064  0.99607  1.0000
  Fe  Fe68      1.0  0.07304  0.37788  0.87027  1.0000
  C   C344      1.0  0.21346  0.65046  0.81013  1.0000
  H   H521      1.0  0.12337  0.65058  0.94982  1.0000
  S   S142      1.0  0.12989  0.41809  0.83791  1.0000
  H   H522      1.0  0.21425  0.62346  0.89579  1.0000
  H   H523      1.0  0.08455  0.47544  0.77650  1.0000
  H   H524      1.0  0.17355  0.58966  0.99407  1.0000
  H   H525      1.0  0.15378  0.33216  0.77457  1.0000
  C   C345      1.0  0.07217  0.45124  0.80806  1.0000
  C   C346      1.0  0.10579  0.45945  0.80646  1.0000
  Fe  Fe69      1.0  0.24243  0.65217  0.99627  1.0000
  N   N32       1.0  0.09272  0.44061  0.89126  1.0000
  C   C347      1.0  0.10965  0.45253  0.88636  1.0000
  C   C348      1.0  0.09975  0.41945  0.89061  1.0000
  C   C349      1.0  0.07827  0.44673  0.87672  1.0000
  C   C350      1.0  0.08320  0.44375  0.91130  1.0000
  H   H526      1.0  0.10498  0.46854  0.88730  1.0000
  H   H527      1.0  0.11652  0.45119  0.87095  1.0000
  H   H528      1.0  0.12144  0.44781  0.89633  1.0000
  H   H529      1.0  0.08741  0.40997  0.89452  1.0000
  H   H530      1.0  0.10666  0.41653  0.87561  1.0000
  H   H531      1.0  0.11104  0.41442  0.90106  1.0000
  H   H532      1.0  0.06547  0.43775  0.87965  1.0000
  H   H533      1.0  0.08523  0.44503  0.86139  1.0000
  H   H534      1.0  0.07252  0.46261  0.87696  1.0000
  H   H535      1.0  0.07043  0.43482  0.91544  1.0000
  H   H536      1.0  0.07758  0.45956  0.91228  1.0000
  H   H537      1.0  0.09378  0.43939  0.92259  1.0000
  C   C351      1.0  0.13213  0.65299  0.96122  1.0000
  C   C352      1.0  0.09934  0.42881  0.79573  1.0000
  H   H538      1.0  0.10130  0.47551  0.80674  1.0000
  S   S143      1.0  0.06673  0.61462  0.96011  1.0000
  Fe  Fe70      1.0  0.09360  0.63020  0.95997  1.0000
  C   C353      1.0  0.10432  0.33205  0.77185  1.0000
  H   H539      1.0  0.03544  0.59836  0.93232  1.0000
  H   H540      1.0  0.07383  0.54466  0.90305  1.0000
  H   H541      1.0  0.18663  0.47159  0.93104  1.0000
  Fe  Fe71      1.0  0.07339  0.38700  0.82535  1.0000
  C   C354      1.0  0.23485  0.47406  0.93716  1.0000
  S   S144      1.0  0.07904  0.58084  0.91739  1.0000
  H   H542      1.0  0.18050  0.65384  0.88294  1.0000
  C   C355      1.0  0.02104  0.39117  0.92516  1.0000
  C   C356      1.0  0.00861  0.35891  0.80036  1.0000
  C   C357      1.0  0.01803  0.39322  0.85091  1.0000
  H   H543      1.0  0.01649  0.40724  0.78823  1.0000
  N   N33       1.0  0.09193  0.44983  0.79666  1.0000
  H   H544      1.0  0.03602  0.42545  0.83697  1.0000
  C   C358      1.0  0.20076  0.47835  0.93031  1.0000
  H   H545      1.0  0.02091  0.58905  0.95425  1.0000
  H   H546      1.0  0.23997  0.47866  0.92142  1.0000
  C   C359      1.0  0.22760  0.56887  0.94762  1.0000
  H   H547      1.0  0.13025  0.57989  0.99412  1.0000
  H   H548      1.0  0.11443  0.42708  0.78770  1.0000
  C   C360      1.0  0.22931  0.54118  0.76664  1.0000
  S   S145      1.0  0.23898  0.60732  0.94089  1.0000
  C   C361      1.0  0.01953  0.39168  0.79301  1.0000
  N   N34       1.0  0.11180  0.57535  0.85009  1.0000
  C   C362      1.0  0.13346  0.57556  0.84905  1.0000
  C   C363      1.0  0.10587  0.57680  0.82984  1.0000
  C   C364      1.0  0.10175  0.59227  0.86016  1.0000
  C   C365      1.0  0.10608  0.55675  0.86137  1.0000
  H   H549      1.0  0.13835  0.58951  0.84092  1.0000
  H   H550      1.0  0.14142  0.56316  0.84120  1.0000
  H   H551      1.0  0.13854  0.57400  0.86406  1.0000
  H   H552      1.0  0.11238  0.56377  0.82213  1.0000
  H   H553      1.0  0.08952  0.57754  0.82995  1.0000
  H   H554      1.0  0.11076  0.59020  0.82061  1.0000
  H   H555      1.0  0.08537  0.59249  0.86111  1.0000
  H   H556      1.0  0.10578  0.60662  0.85221  1.0000
  H   H557      1.0  0.10565  0.59151  0.87560  1.0000
  H   H558      1.0  0.10952  0.55559  0.87698  1.0000
  H   H559      1.0  0.11392  0.54359  0.85475  1.0000
  H   H560      1.0  0.08997  0.55575  0.86171  1.0000
  H   H561      1.0  0.20734  0.47194  0.96844  1.0000
  C   C366      1.0  0.01995  0.35039  0.93184  1.0000
  H   H562      1.0  0.24703  0.46406  0.94350  1.0000
  H   H563      1.0  0.00328  0.41139  0.88266  1.0000
  H   H564      1.0  0.22148  0.44824  0.96706  1.0000
  H   H565      1.0  0.25859  0.63727  0.82693  1.0000
  S   S146      1.0  0.10555  0.37828  0.81900  1.0000
  H   H566      1.0  0.22547  0.57088  0.96317  1.0000
  C   C367      1.0  0.21004  0.45877  0.96005  1.0000
  H   H567      1.0  0.17776  0.62932  0.89483  1.0000
  H   H568      1.0  0.23886  0.51518  0.81042  1.0000
  H   H569      1.0  0.06611  0.46687  0.80918  1.0000
  H   H570      1.0  0.06131  0.44424  0.80096  1.0000
  S   S147      1.0  0.06236  0.63957  0.91616  1.0000
  S   S148      1.0  0.05159  0.39008  0.89526  1.0000
  C   C368      1.0  0.99917  0.59217  0.92382  1.0000
  S   S149      1.0  0.06668  0.36040  0.84633  1.0000
  Fe  Fe72      1.0  0.19455  0.59103  0.75440  1.0000
  H   H571      1.0  0.15155  0.53327  0.77011  1.0000
  H   H572      1.0  0.20388  0.63537  0.93801  1.0000
  C   C369      1.0  0.01019  0.64613  0.98409  1.0000
  H   H573      1.0  0.02156  0.40701  0.92289  1.0000
  S   S150      1.0  0.20002  0.64933  0.78998  1.0000
  H   H574      1.0  0.15148  0.60632  0.99209  1.0000
  H   H575      1.0  0.27231  0.56111  0.75996  1.0000
  H   H576      1.0  0.02660  0.61418  0.95128  1.0000
  C   C370      1.0  0.24365  0.64433  0.82635  1.0000
  C   C371      1.0  0.28459  0.55915  0.74872  1.0000
  H   H577      1.0  0.01688  0.38747  0.83662  1.0000
  H   H578      1.0  0.00403  0.43634  0.87101  1.0000
  H   H579      1.0  0.14545  0.59645  0.76880  1.0000
  H   H580      1.0  0.01980  0.33451  0.93453  1.0000
  C   C372      1.0  0.29029  0.65619  0.95300  1.0000
  N   N35       1.0  0.22424  0.53283  0.78728  1.0000
  C   C373      1.0  0.24223  0.52232  0.79514  1.0000
  H   H581      1.0  0.21234  0.54304  0.81511  1.0000
  H   H582      1.0  0.16408  0.65035  0.90523  1.0000
  C   C374      1.0  0.21628  0.54891  0.79949  1.0000
  S   S151      1.0  0.19898  0.62662  0.98191  1.0000
  C   C375      1.0  0.09040  0.45961  0.77639  1.0000
  S   S152      1.0  0.10630  0.62317  0.92980  1.0000
  H   H583      1.0  0.10889  0.59630  0.77551  1.0000
  H   H584      1.0  0.01614  0.44753  0.78043  1.0000
  Fe  Fe73      1.0  0.05306  0.64431  0.94827  1.0000
  S   S153      1.0  0.02162  0.65495  0.96047  1.0000
  H   H585      1.0  0.23578  0.52946  0.75716  1.0000
  H   H586      1.0  0.03760  0.35317  0.76404  1.0000
  S   S154      1.0  0.17689  0.56439  0.76177  1.0000
  C   C376      1.0  0.00750  0.38309  0.94027  1.0000
  H   H587      1.0  0.22719  0.55972  0.79949  1.0000
  H   H588      1.0  0.10030  0.42101  0.81079  1.0000
  Fe  Fe74      1.0  0.20342  0.65871  0.97910  1.0000
  H   H589      1.0  0.01056  0.38335  0.86286  1.0000
  H   H590      1.0  0.21605  0.54882  0.76003  1.0000
  H   H591      1.0  0.20253  0.55703  0.79413  1.0000
  H   H592      1.0  0.22669  0.63986  0.90728  1.0000
  H   H593      1.0  0.07272  0.44389  0.82336  1.0000
  C   C377      1.0  0.13890  0.58266  0.77052  1.0000
  N   N36       1.0  0.21637  0.46443  0.93896  1.0000
  H   H594      1.0  0.19609  0.45153  0.96187  1.0000
  C   C378      1.0  0.03335  0.35849  0.91657  1.0000
  C   C379      1.0  0.05098  0.34291  0.76017  1.0000
  H   H595      1.0  0.12110  0.45774  0.79892  1.0000
  Fe  Fe75      1.0  0.07768  0.61080  0.92843  1.0000
  C   C380      1.0  0.00473  0.37901  0.79391  1.0000
  H   H596      1.0  0.22441  0.45034  0.91230  1.0000
  C   C381      1.0  0.02735  0.35146  0.80565  1.0000
  H   H597      1.0  0.21452  0.50658  0.77881  1.0000
  H   H598      1.0  0.21693  0.64808  0.88413  1.0000
  H   H599      1.0  0.20519  0.48287  0.91449  1.0000
  N   N37       1.0  0.19501  0.64631  0.90941  1.0000
  C   C382      1.0  0.23247  0.64069  0.81140  1.0000
  C   C383      1.0  0.01080  0.42082  0.87033  1.0000
  Fe  Fe76      1.0  0.09969  0.35249  0.84122  1.0000
  H   H600      1.0  0.17766  0.63888  0.93702  1.0000
  C   C384      1.0  0.21402  0.63915  0.89866  1.0000
  C   C385      1.0  0.23584  0.65768  0.84002  1.0000
  C   C386      1.0  0.03418  0.37894  0.91335  1.0000
  C   C387      1.0  0.15101  0.56494  0.76856  1.0000
  H   H601      1.0  0.25366  0.53251  0.79558  1.0000
  Fe  Fe77      1.0  0.09066  0.65255  0.91959  1.0000
  H   H602      1.0  0.24014  0.55221  0.76573  1.0000
  H   H603      1.0  0.29841  0.53291  0.76454  1.0000
  H   H604      1.0  0.01972  0.62204  0.90711  1.0000
  C   C388      1.0  0.14035  0.64676  0.99494  1.0000
  H   H605      1.0  0.30336  0.64503  0.95117  1.0000
  H   H606      1.0  0.19227  0.61819  0.92669  1.0000
  C   C389      1.0  0.19200  0.63413  0.92862  1.0000
  H   H607      1.0  0.28024  0.65439  0.94183  1.0000
  H   H608      1.0  0.03397  0.62398  0.99119  1.0000
  C   C390      1.0  0.00423  0.45242  0.79115  1.0000
  C   C391      1.0  0.00572  0.46932  0.80055  1.0000
  H   H609      1.0  0.15191  0.56238  0.99441  1.0000
  H   H610      1.0  0.05995  0.34086  0.77295  1.0000
  C   C392      1.0  0.15563  0.65898  0.99012  1.0000
  H   H611      1.0  0.07610  0.65428  0.99549  1.0000
  H   H612      1.0  0.15083  0.37196  0.74945  1.0000
  H   H613      1.0  0.28237  0.65233  0.96789  1.0000
  H   H614      1.0  0.18791  0.36748  0.74845  1.0000
  C   C393      1.0  0.20540  0.66305  0.82436  1.0000
  H   H615      1.0  0.09608  0.34285  0.76229  1.0000
  H   H616      1.0  0.03036  0.33597  0.81078  1.0000
  C   C394      1.0  0.10375  0.33460  0.79201  1.0000
  C   C395      1.0  0.29952  0.54331  0.75136  1.0000
  N   N38       1.0  0.16922  0.34446  0.74752  1.0000
  H   H617      1.0  0.05984  0.35045  0.74741  1.0000
  N   N39       1.0  0.23508  0.75704  0.18967  1.0000
  Fe  Fe78      1.0  0.16317  0.78422  0.19222  1.0000
  S   S155      1.0  0.13028  0.78294  0.19847  1.0000
  S   S156      1.0  0.17925  0.80546  0.16962  1.0000
  H   H618      1.0  0.38133  0.77008  0.06617  1.0000
  H   H619      1.0  0.23429  0.75486  0.07055  1.0000
  Fe  Fe79      1.0  0.13762  0.74963  0.20216  1.0000
  S   S157      1.0  0.11901  0.73251  0.18562  1.0000
  S   S158      1.0  0.16711  0.78608  0.22401  1.0000
  S   S159      1.0  0.17024  0.75136  0.19386  1.0000
  Fe  Fe80      1.0  0.28380  0.76955  0.04437  1.0000
  S   S160      1.0  0.26048  0.79315  0.05420  1.0000
  H   H620      1.0  0.40790  0.96706  0.09429  1.0000
  Fe  Fe81      1.0  0.31073  0.77894  0.07468  1.0000
  S   S161      1.0  0.28881  0.80276  0.08657  1.0000
  S   S162      1.0  0.34169  0.77285  0.08397  1.0000
  Fe  Fe82      1.0  0.26644  0.78123  0.08511  1.0000
  S   S163      1.0  0.24299  0.76710  0.10664  1.0000
  Fe  Fe83      1.0  0.28514  0.81233  0.05435  1.0000
  S   S164      1.0  0.28518  0.84206  0.03526  1.0000
  S   S165      1.0  0.28892  0.75670  0.07523  1.0000
  S   S166      1.0  0.30808  0.78938  0.04265  1.0000
  H   H621      1.0  0.47128  0.82032  0.08413  1.0000
  H   H622      1.0  0.22094  0.73405  0.09996  1.0000
  Fe  Fe84      1.0  0.35514  0.92800  0.01618  1.0000
  H   H623      1.0  0.35114  0.85305  0.00742  1.0000
  S   S167      1.0  0.33337  0.91515  0.04075  1.0000
  S   S168      1.0  0.38509  0.91185  0.00982  1.0000
  S   S169      1.0  0.42638  0.93985  0.01857  1.0000
  C   C396      1.0  0.45158  0.70690  0.19429  1.0000
  S   S170      1.0  0.36667  0.95781  0.01537  1.0000
  C   C397      1.0  0.49573  0.77779  0.18024  1.0000
  H   H624      1.0  0.35669  0.76681  0.04278  1.0000
  C   C398      1.0  0.32875  0.82100  0.19793  1.0000
  Fe  Fe85      1.0  0.47684  0.97138  0.10248  1.0000
  S   S171      1.0  0.47611  0.97771  0.13422  1.0000
  H   H625      1.0  0.34615  0.84490  0.21712  1.0000
  H   H626      1.0  0.32563  0.89549  0.00713  1.0000
  H   H627      1.0  0.47346  0.73276  0.23267  1.0000
  Fe  Fe86      1.0  0.47705  0.94449  0.14094  1.0000
  S   S172      1.0  0.45789  0.92775  0.16545  1.0000
  C   C399      1.0  0.46724  0.72551  0.22204  1.0000
  S   S173      1.0  0.47643  0.93870  0.10960  1.0000
  Fe  Fe87      1.0  0.38334  0.79283  0.18169  1.0000
  S   S174      1.0  0.38117  0.82450  0.18776  1.0000
  S   S175      1.0  0.35516  0.78480  0.17177  1.0000
  Fe  Fe88      1.0  0.42228  0.78229  0.20043  1.0000
  H   H628      1.0  0.25659  0.73024  0.08944  1.0000
  H   H629      1.0  0.13669  0.69432  0.20426  1.0000
  Fe  Fe89      1.0  0.38998  0.81196  0.21758  1.0000
  Fe  Fe90      1.0  0.41358  0.82308  0.17758  1.0000
  S   S176      1.0  0.42724  0.84551  0.15423  1.0000
  S   S177      1.0  0.39046  0.78035  0.21229  1.0000
  S   S178      1.0  0.41536  0.79198  0.16911  1.0000
  C   C400      1.0  0.44973  0.90466  0.16243  1.0000
  C   C401      1.0  0.43900  0.89427  0.17834  1.0000
  C   C402      1.0  0.43216  0.87603  0.17623  1.0000
  C   C403      1.0  0.43577  0.86814  0.15806  1.0000
  C   C404      1.0  0.44627  0.87866  0.14213  1.0000
  C   C405      1.0  0.45334  0.89669  0.14434  1.0000
  H   H630      1.0  0.43610  0.90028  0.19242  1.0000
  H   H631      1.0  0.42404  0.86814  0.18863  1.0000
  H   H632      1.0  0.44946  0.87260  0.12810  1.0000
  H   H633      1.0  0.46191  0.90419  0.13211  1.0000
  C   C406      1.0  0.43322  0.95321  0.03679  1.0000
  C   C407      1.0  0.45127  0.94710  0.04462  1.0000
  C   C408      1.0  0.45765  0.95742  0.05883  1.0000
  C   C409      1.0  0.44610  0.97411  0.06522  1.0000
  C   C410      1.0  0.42809  0.98035  0.05731  1.0000
  C   C411      1.0  0.42154  0.96981  0.04329  1.0000
  H   H634      1.0  0.46042  0.93433  0.03959  1.0000
  H   H635      1.0  0.24827  0.73795  0.99813  1.0000
  C   C412      1.0  0.45835  0.75647  0.01380  1.0000
  H   H636      1.0  0.40771  0.97476  0.03720  1.0000
  C   C413      1.0  0.34532  0.77716  0.10815  1.0000
  C   C414      1.0  0.32932  0.77967  0.12262  1.0000
  C   C415      1.0  0.33261  0.78218  0.14199  1.0000
  C   C416      1.0  0.35186  0.78256  0.14699  1.0000
  C   C417      1.0  0.36787  0.78050  0.13243  1.0000
  C   C418      1.0  0.36461  0.77761  0.11311  1.0000
  H   H637      1.0  0.31444  0.77921  0.11900  1.0000
  H   H638      1.0  0.32018  0.78366  0.15321  1.0000
  H   H639      1.0  0.38276  0.78057  0.13621  1.0000
  H   H640      1.0  0.37708  0.77549  0.10210  1.0000
  C   C419      1.0  0.30112  0.86038  0.03706  1.0000
  C   C420      1.0  0.30887  0.87127  0.01971  1.0000
  C   C421      1.0  0.31976  0.88734  0.02063  1.0000
  C   C422      1.0  0.32237  0.89322  0.03894  1.0000
  C   C423      1.0  0.31474  0.88227  0.05628  1.0000
  C   C424      1.0  0.30445  0.86575  0.05537  1.0000
  H   H641      1.0  0.39438  0.76449  0.01308  1.0000
  C   C425      1.0  0.11695  0.66777  0.17327  1.0000
  H   H642      1.0  0.31658  0.88671  0.07053  1.0000
  H   H643      1.0  0.29833  0.85772  0.06884  1.0000
  S   S179      1.0  0.42242  0.81342  0.20799  1.0000
  C   C426      1.0  0.44581  0.72708  0.19613  1.0000
  H   H644      1.0  0.43557  0.73542  0.18659  1.0000
  C   C427      1.0  0.19586  0.79552  0.15072  1.0000
  C   C428      1.0  0.21023  0.80691  0.14014  1.0000
  C   C429      1.0  0.22451  0.79869  0.12603  1.0000
  C   C430      1.0  0.22444  0.77901  0.12250  1.0000
  C   C431      1.0  0.20984  0.76780  0.13280  1.0000
  C   C432      1.0  0.19556  0.77604  0.14675  1.0000
  H   H645      1.0  0.21047  0.82204  0.14309  1.0000
  H   H646      1.0  0.23574  0.80744  0.11820  1.0000
  H   H647      1.0  0.20962  0.75259  0.13014  1.0000
  H   H648      1.0  0.18429  0.76730  0.15442  1.0000
  H   H649      1.0  0.44051  0.67478  0.23885  1.0000
  H   H650      1.0  0.30842  0.82851  0.00038  1.0000
  H   H651      1.0  0.02972  0.69569  0.19624  1.0000
  C   C433      1.0  0.48069  0.80592  0.19676  1.0000
  H   H652      1.0  0.47160  0.95256  0.06470  1.0000
  H   H653      1.0  0.48348  0.76880  0.18651  1.0000
  C   C434      1.0  0.24786  0.74887  0.20526  1.0000
  H   H654      1.0  0.35144  0.79315  0.03933  1.0000
  H   H655      1.0  0.22923  0.78592  0.19985  1.0000
  H   H656      1.0  0.38982  0.96556  0.11546  1.0000
  H   H657      1.0  0.30636  0.86737  0.00546  1.0000
  H   H658      1.0  0.41686  0.96267  0.13748  1.0000
  S   S180      1.0  0.19967  0.73918  0.23928  1.0000
  C   C435      1.0  0.05597  0.68081  0.16826  1.0000
  H   H659      1.0  0.21635  0.71064  0.05461  1.0000
  H   H660      1.0  0.29553  0.94040  0.04115  1.0000
  H   H661      1.0  0.33739  0.82275  0.18312  1.0000
  C   C436      1.0  0.44900  0.79617  0.01952  1.0000
  N   N40       1.0  0.23413  0.72329  0.07273  1.0000
  C   C437      1.0  0.25413  0.71936  0.07936  1.0000
  C   C438      1.0  0.23124  0.70811  0.06000  1.0000
  H   H662      1.0  0.46817  0.79759  0.20372  1.0000
  H   H663      1.0  0.25646  0.70437  0.08751  1.0000
  H   H664      1.0  0.26582  0.72038  0.06662  1.0000
  H   H665      1.0  0.23268  0.69298  0.06807  1.0000
  H   H666      1.0  0.24241  0.70812  0.04681  1.0000
  H   H667      1.0  0.41498  0.68469  0.24046  1.0000
  C   C439      1.0  0.28595  0.95260  0.03360  1.0000
  H   H668      1.0  0.48294  0.69688  0.22999  1.0000
  C   C440      1.0  0.46820  0.76494  0.02723  1.0000
  S   S181      1.0  0.47403  0.79612  0.04831  1.0000
  H   H669      1.0  0.30070  0.86525  0.19349  1.0000
  H   H670      1.0  0.28151  0.80764  0.01462  1.0000
  H   H671      1.0  0.41089  0.76635  0.03106  1.0000
  H   H672      1.0  0.07972  0.66794  0.19660  1.0000
  N   N41       1.0  0.29518  0.95913  0.01362  1.0000
  C   C441      1.0  0.36149  0.78049  0.03396  1.0000
  H   H673      1.0  0.34539  0.85525  0.19187  1.0000
  H   H674      1.0  0.30033  0.85139  0.22826  1.0000
  H   H675      1.0  0.05432  0.69591  0.20291  1.0000
  C   C442      1.0  0.10805  0.68371  0.16157  1.0000
  H   H676      1.0  0.44567  0.69980  0.18331  1.0000
  H   H677      1.0  0.43610  0.80932  0.12868  1.0000
  H   H678      1.0  0.45461  0.83836  0.07184  1.0000
  C   C443      1.0  0.28177  0.69537  0.02345  1.0000
  H   H679      1.0  0.45417  0.82664  0.12599  1.0000
  H   H680      1.0  0.43045  0.85142  0.10950  1.0000
  Fe  Fe91      1.0  0.13485  0.78211  0.23060  1.0000
  H   H681      1.0  0.31742  0.83084  0.23536  1.0000
  H   H682      1.0  0.44741  0.79564  0.08714  1.0000
  H   H683      1.0  0.43718  0.94399  0.13445  1.0000
  H   H684      1.0  0.46452  0.84368  0.09366  1.0000
  C   C444      1.0  0.28352  0.71509  0.02638  1.0000
  H   H685      1.0  0.21102  0.77971  0.18554  1.0000
  C   C445      1.0  0.45880  0.83193  0.08665  1.0000
  C   C446      1.0  0.47266  0.70523  0.22051  1.0000
  Fe  Fe92      1.0  0.39653  0.94166  0.00669  1.0000
  H   H686      1.0  0.24310  0.74414  0.04820  1.0000
  C   C447      1.0  0.43533  0.80781  0.08943  1.0000
  C   C448      1.0  0.46504  0.69591  0.20643  1.0000
  N   N42       1.0  0.41411  0.94266  0.11618  1.0000
  C   C449      1.0  0.40328  0.92913  0.13090  1.0000
  C   C450      1.0  0.39999  0.95656  0.10530  1.0000
  S   S182      1.0  0.47169  0.67053  0.20373  1.0000
  C   C451      1.0  0.07825  0.67056  0.04005  1.0000
  S   S183      1.0  0.45356  0.98705  0.08345  1.0000
  H   H687      1.0  0.42736  0.67719  0.21749  1.0000
  S   S184      1.0  0.37403  0.82350  0.24545  1.0000
  C   C452      1.0  0.25531  0.70628  0.00300  1.0000
  H   H688      1.0  0.28345  0.96487  0.04317  1.0000
  H   H689      1.0  0.27147  0.94694  0.03298  1.0000
  H   H690      1.0  0.29514  0.84172  0.18762  1.0000
  H   H691      1.0  0.49212  0.80383  0.20731  1.0000
  H   H692      1.0  0.41916  0.99336  0.06207  1.0000
  H   H693      1.0  0.03809  0.67923  0.21677  1.0000
  H   H694      1.0  0.39326  0.93740  0.14179  1.0000
  H   H695      1.0  0.37781  0.81421  0.02811  1.0000
  N   N43       1.0  0.32006  0.84030  0.20426  1.0000
  C   C453      1.0  0.33611  0.85243  0.20619  1.0000
  C   C454      1.0  0.30740  0.85053  0.18934  1.0000
  C   C455      1.0  0.30804  0.83724  0.22356  1.0000
  H   H696      1.0  0.41367  0.91864  0.13946  1.0000
  H   H697      1.0  0.46742  0.81828  0.16157  1.0000
  H   H698      1.0  0.31603  0.85291  0.17456  1.0000
  H   H699      1.0  0.04334  0.66866  0.02616  1.0000
  H   H700      1.0  0.05989  0.86606  0.23704  1.0000
  C   C456      1.0  0.44383  0.76777  0.00307  1.0000
  H   H701      1.0  0.35909  0.77980  0.01828  1.0000
  H   H702      1.0  0.26869  0.79591  0.99871  1.0000
  H   H703      1.0  0.10024  0.68099  0.14955  1.0000
  H   H704      1.0  0.43772  0.92002  0.10978  1.0000
  H   H705      1.0  0.43438  0.96450  0.11587  1.0000
  S   S185      1.0  0.13988  0.74868  0.23494  1.0000
  H   H706      1.0  0.20388  0.72554  0.08575  1.0000
  H   H707      1.0  0.46060  0.80304  0.11697  1.0000
  C   C457      1.0  0.21917  0.72266  0.09016  1.0000
  S   S186      1.0  0.44827  0.76215  0.21184  1.0000
  H   H708      1.0  0.33018  0.86698  0.21131  1.0000
  C   C458      1.0  0.46346  0.78484  0.03035  1.0000
  C   C459      1.0  0.45378  0.73651  0.20989  1.0000
  C   C460      1.0  0.24741  0.76431  0.17168  1.0000
  S   S187      1.0  0.27481  0.75576  0.01837  1.0000
  H   H709      1.0  0.25633  0.76034  0.20947  1.0000
  H   H710      1.0  0.23894  0.74292  0.21888  1.0000
  H   H711      1.0  0.25864  0.73652  0.20036  1.0000
  C   C461      1.0  0.22127  0.77360  0.19669  1.0000
  H   H712      1.0  0.42260  0.80124  0.09841  1.0000
  H   H713      1.0  0.46190  0.74097  0.01186  1.0000
  Fe  Fe93      1.0  0.17191  0.75309  0.22617  1.0000
  H   H714      1.0  0.46028  0.79397  0.17006  1.0000
  C   C462      1.0  0.22371  0.74141  0.18505  1.0000
  C   C463      1.0  0.23203  0.74307  0.06142  1.0000
  H   H715      1.0  0.22040  0.70801  0.09917  1.0000
  H   H716      1.0  0.10187  0.71544  0.15647  1.0000
  C   C464      1.0  0.12739  0.67182  0.18861  1.0000
  H   H717      1.0  0.04307  0.68925  0.16155  1.0000
  C   C465      1.0  0.39514  0.76554  0.02904  1.0000
  H   H718      1.0  0.38712  0.80025  0.00793  1.0000
  C   C466      1.0  0.26776  0.69083  0.01168  1.0000
  C   C467      1.0  0.38476  0.78400  0.05688  1.0000
  H   H719      1.0  0.40325  0.80384  0.02577  1.0000
  H   H720      1.0  0.21192  0.76880  0.21041  1.0000
  C   C468      1.0  0.38793  0.80108  0.02393  1.0000
  H   H721      1.0  0.21420  0.73561  0.19831  1.0000
  H   H722      1.0  0.21381  0.74706  0.17342  1.0000
  H   H723      1.0  0.43081  0.81352  0.07455  1.0000
  H   H724      1.0  0.02115  0.66687  0.18109  1.0000
  H   H725      1.0  0.44524  0.81158  0.02171  1.0000
  C   C469      1.0  0.42612  0.95396  0.12643  1.0000
  H   H726      1.0  0.25650  0.77586  0.17467  1.0000
  H   H727      1.0  0.31725  0.81104  0.19693  1.0000
  H   H728      1.0  0.23362  0.72868  0.17968  1.0000
  H   H729      1.0  0.29156  0.68354  0.03012  1.0000
  N   N44       1.0  0.44205  0.82358  0.09918  1.0000
  H   H730      1.0  0.39087  0.94864  0.09705  1.0000
  H   H731      1.0  0.26757  0.97010  0.00225  1.0000
  H   H732      1.0  0.12867  0.83315  0.23252  1.0000
  H   H733      1.0  0.41294  0.83364  0.11191  1.0000
  H   H734      1.0  0.33903  0.81310  0.20834  1.0000
  C   C470      1.0  0.11942  0.70739  0.18085  1.0000
  H   H735      1.0  0.23812  0.77104  0.15986  1.0000
  N   N45       1.0  0.05012  0.67098  0.18814  1.0000
  N   N46       1.0  0.38234  0.78278  0.03594  1.0000
  H   H736      1.0  0.25762  0.75216  0.16552  1.0000
  H   H737      1.0  0.47918  0.75594  0.03545  1.0000
  C   C471      1.0  0.43945  0.78780  0.00581  1.0000
  C   C472      1.0  0.29850  0.94224  0.00167  1.0000
  C   C473      1.0  0.42569  0.83936  0.10216  1.0000
  C   C474      1.0  0.27161  0.73058  0.01710  1.0000
  H   H738      1.0  0.12445  0.86806  0.24027  1.0000
  H   H739      1.0  0.21709  0.74664  0.05629  1.0000
  C   C475      1.0  0.42588  0.67336  0.23383  1.0000
  H   H740      1.0  0.42034  0.84602  0.08789  1.0000
  C   C476      1.0  0.44849  0.81520  0.11855  1.0000
  C   C477      1.0  0.12876  0.69149  0.19231  1.0000
  C   C478      1.0  0.10907  0.70330  0.16549  1.0000
  H   H741      1.0  0.29466  0.71834  0.03514  1.0000
  H   H742      1.0  0.07120  0.67911  0.00199  1.0000
  S   S188      1.0  0.49521  0.83274  0.12203  1.0000
  H   H743      1.0  0.41858  0.92286  0.09352  1.0000
  H   H744      1.0  0.31412  0.79308  0.99954  1.0000
  H   H745      1.0  0.09548  0.66608  0.00317  1.0000
  C   C479      1.0  0.47306  0.80233  0.16399  1.0000
  H   H746      1.0  0.35368  0.79190  0.23507  1.0000
  N   N47       1.0  0.48874  0.79910  0.17747  1.0000
  H   H747      1.0  0.47504  0.82189  0.19512  1.0000
  H   H748      1.0  0.43608  0.94071  0.09124  1.0000
  H   H749      1.0  0.48783  0.87028  0.13826  1.0000
  H   H750      1.0  0.29668  0.82694  0.22322  1.0000
  H   H751      1.0  0.05723  0.83998  0.24007  1.0000
  H   H752      1.0  0.40018  0.78640  0.05882  1.0000
  H   H753      1.0  0.39078  0.75143  0.03730  1.0000
  H   H754      1.0  0.07422  0.66513  0.05585  1.0000
  C   C480      1.0  0.28208  0.97515  0.00396  1.0000
  H   H755      1.0  0.39421  0.92018  0.12370  1.0000
  C   C481      1.0  0.42717  0.93102  0.10208  1.0000
  H   H756      1.0  0.37459  0.79624  0.06297  1.0000
  H   H757      1.0  0.27919  0.98809  0.01267  1.0000
  H   H758      1.0  0.07015  0.68544  0.03703  1.0000
  H   H759      1.0  0.28443  0.93610  0.00032  1.0000
  H   H760      1.0  0.47870  0.79748  0.14925  1.0000
  H   H761      1.0  0.30849  0.92999  0.00851  1.0000
  C   C482      1.0  0.04270  0.68612  0.20162  1.0000
  H   H762      1.0  0.06713  0.69128  0.16874  1.0000
  H   H763      1.0  0.06255  0.66983  0.15801  1.0000
  C   C483      1.0  0.31431  0.96649  0.01526  1.0000
  H   H764      1.0  0.09437  0.67231  0.03848  1.0000
  H   H765      1.0  0.32435  0.95489  0.02290  1.0000
  C   C484      1.0  0.25747  0.72606  0.00545  1.0000
  H   H766      1.0  0.31242  0.97948  0.02386  1.0000
  S   S189      1.0  0.49763  0.78312  0.09917  1.0000
  H   H767      1.0  0.42855  0.79677  0.99752  1.0000
  H   H768      1.0  0.32201  0.97108  0.00043  1.0000
  S   S190      1.0  0.26756  0.66592  0.00689  1.0000
  H   H769      1.0  0.26469  0.82231  0.99954  1.0000
  C   C485      1.0  0.27606  0.80932  0.99982  1.0000
  C   C486      1.0  0.07936  0.66442  0.00595  1.0000
  C   C487      1.0  0.12129  0.83685  0.24666  1.0000
  H   H770      1.0  0.32044  0.78155  0.24656  1.0000
  H   H771      1.0  0.03715  0.82096  0.33977  1.0000
  H   H772      1.0  0.19555  0.78827  0.27556  1.0000
  Fe  Fe94      1.0  0.21561  0.91905  0.42747  1.0000
  S   S191      1.0  0.18568  0.90800  0.43186  1.0000
  S   S192      1.0  0.24139  0.90169  0.41078  1.0000
  Fe  Fe95      1.0  0.20102  0.95687  0.44841  1.0000
  S   S193      1.0  0.17003  0.94841  0.45330  1.0000
  H   H773      1.0  0.14316  0.85490  0.44419  1.0000
  Fe  Fe96      1.0  0.18429  0.91804  0.46205  1.0000
  S   S194      1.0  0.08607  0.83574  0.47963  1.0000
  Fe  Fe97      1.0  0.17446  0.93940  0.42254  1.0000
  S   S195      1.0  0.15351  0.94924  0.39915  1.0000
  S   S196      1.0  0.21513  0.92665  0.45885  1.0000
  S   S197      1.0  0.20455  0.95027  0.41650  1.0000
  Fe  Fe98      1.0  0.04431  0.89994  0.32163  1.0000
  S   S198      1.0  0.05545  0.91707  0.29351  1.0000
  S   S199      1.0  0.01424  0.89048  0.32070  1.0000
  Fe  Fe99      1.0  0.07945  0.90612  0.34268  1.0000
  S   S200      1.0  0.09291  0.92419  0.31591  1.0000
  S   S201      1.0  0.09329  0.89669  0.37148  1.0000
  Fe  Fe100     1.0  0.06167  0.93883  0.31335  1.0000
  S   S202      1.0  0.05228  0.97181  0.30623  1.0000
  Fe  Fe101     1.0  0.08501  0.90045  0.29879  1.0000
  H   H774      1.0  0.04098  0.85693  0.33475  1.0000
  S   S203      1.0  0.04898  0.92238  0.34139  1.0000
  S   S204      1.0  0.07322  0.88169  0.32562  1.0000
  Fe  Fe102     1.0  0.23913  0.77355  0.32678  1.0000
  S   S205      1.0  0.24214  0.80435  0.31283  1.0000
  S   S206      1.0  0.21222  0.75811  0.32484  1.0000
  Fe  Fe103     1.0  0.27745  0.77091  0.34576  1.0000
  S   S207      1.0  0.28330  0.80214  0.33385  1.0000
  S   S208      1.0  0.29850  0.75146  0.36478  1.0000
  Fe  Fe104     1.0  0.25059  0.81018  0.34234  1.0000
  S   S209      1.0  0.23077  0.83525  0.35614  1.0000
  Fe  Fe105     1.0  0.27423  0.79376  0.30567  1.0000
  S   S210      1.0  0.28955  0.79602  0.27451  1.0000
  S   S211      1.0  0.24577  0.77954  0.35661  1.0000
  S   S212      1.0  0.27031  0.76223  0.31722  1.0000
  H   H775      1.0  0.12479  0.85758  0.46505  1.0000
  H   H776      1.0  0.05367  0.85667  0.41752  1.0000
  C   C488      1.0  0.07676  0.89444  0.42905  1.0000
  H   H777      1.0  0.16845  0.91457  0.36801  1.0000
  N   N48       1.0  0.02325  0.77775  0.39264  1.0000
  C   C489      1.0  0.02557  0.85923  0.25936  1.0000
  N   N49       1.0  0.23809  0.71344  0.36532  1.0000
  C   C490      1.0  0.31417  0.80160  0.26899  1.0000
  C   C491      1.0  0.32147  0.81605  0.27809  1.0000
  C   C492      1.0  0.34019  0.82227  0.27118  1.0000
  H   H778      1.0  0.33944  0.78965  0.32993  1.0000
  S   S213      1.0  0.17208  0.90101  0.48987  1.0000
  S   S214      1.0  0.20257  0.98701  0.45924  1.0000
  H   H779      1.0  0.31233  0.82314  0.28976  1.0000
  H   H780      1.0  0.34548  0.83403  0.27770  1.0000
  C   C493      1.0  0.34484  0.79866  0.24707  1.0000
  H   H781      1.0  0.16007  0.80895  0.31512  1.0000
  C   C494      1.0  0.11949  0.90667  0.46800  1.0000
  C   C495      1.0  0.13914  0.90860  0.47037  1.0000
  H   H782      1.0  0.42103  0.68729  0.37681  1.0000
  H   H783      1.0  0.20603  0.92929  0.32697  1.0000
  H   H784      1.0  0.11367  0.91215  0.45413  1.0000
  H   H785      1.0  0.14834  0.91536  0.45818  1.0000
  C   C496      1.0  0.23854  0.88198  0.39699  1.0000
  C   C497      1.0  0.25527  0.87227  0.38688  1.0000
  C   C498      1.0  0.25335  0.85737  0.37484  1.0000
  C   C499      1.0  0.23459  0.85226  0.37261  1.0000
  C   C500      1.0  0.21792  0.86185  0.38288  1.0000
  C   C501      1.0  0.21988  0.87642  0.39517  1.0000
  H   H786      1.0  0.26979  0.87643  0.38818  1.0000
  H   H787      1.0  0.26631  0.85023  0.36694  1.0000
  H   H788      1.0  0.20337  0.85797  0.38128  1.0000
  H   H789      1.0  0.20691  0.88359  0.40293  1.0000
  C   C502      1.0  0.13711  0.93416  0.39167  1.0000
  C   C503      1.0  0.12627  0.94148  0.37571  1.0000
  C   C504      1.0  0.11314  0.92997  0.36913  1.0000
  C   C505      1.0  0.11069  0.91102  0.37851  1.0000
  C   C506      1.0  0.12177  0.90354  0.39431  1.0000
  C   C507      1.0  0.13494  0.91505  0.40089  1.0000
  H   H790      1.0  0.12788  0.95623  0.36849  1.0000
  H   H791      1.0  0.10465  0.93593  0.35701  1.0000
  H   H792      1.0  0.12006  0.88883  0.40156  1.0000
  H   H793      1.0  0.14325  0.90926  0.41317  1.0000
  C   C508      1.0  0.20275  0.74531  0.26284  1.0000
  C   C509      1.0  0.22124  0.75000  0.26667  1.0000
  C   C510      1.0  0.22419  0.75428  0.28559  1.0000
  C   C511      1.0  0.20882  0.75323  0.30092  1.0000
  C   C512      1.0  0.19040  0.74833  0.29717  1.0000
  C   C513      1.0  0.18726  0.74470  0.27807  1.0000
  C   C514      1.0  0.42796  0.66693  0.42358  1.0000
  H   H794      1.0  0.23845  0.75805  0.28836  1.0000
  H   H795      1.0  0.17850  0.74738  0.30901  1.0000
  H   H796      1.0  0.17305  0.74081  0.27526  1.0000
  C   C515      1.0  0.35175  0.81387  0.25537  1.0000
  H   H797      1.0  0.29019  0.72453  0.33727  1.0000
  C   C516      1.0  0.06020  0.85254  0.24782  1.0000
  C   C517      1.0  0.30467  0.72583  0.36325  1.0000
  H   H798      1.0  0.26687  0.70641  0.37561  1.0000
  C   C518      1.0  0.04705  0.83706  0.27940  1.0000
  H   H799      1.0  0.07237  0.90797  0.43672  1.0000
  H   H800      1.0  0.22363  0.74301  0.36537  1.0000
  H   H801      1.0  0.20025  0.81366  0.27394  1.0000
  C   C519      1.0  0.01858  0.82085  0.45153  1.0000
  H   H802      1.0  0.01069  0.76810  0.36853  1.0000
  C   C520      1.0  0.10777  0.89673  0.48316  1.0000
  C   C521      1.0  0.18906  0.80374  0.27186  1.0000
  C   C522      1.0  0.02701  0.98177  0.30727  1.0000
  C   C523      1.0  0.22320  0.98061  0.49248  1.0000
  C   C524      1.0  0.00851  0.82456  0.32892  1.0000
  H   H803      1.0  0.34775  0.73273  0.30875  1.0000
  H   H804      1.0  0.25849  0.73232  0.37292  1.0000
  H   H805      1.0  0.18684  0.80546  0.25588  1.0000
  H   H806      1.0  0.16140  0.77879  0.28621  1.0000
  H   H807      1.0  0.14753  0.83243  0.28744  1.0000
  S   S215      1.0  0.10497  0.88716  0.27344  1.0000
  H   H808      1.0  0.18384  0.91511  0.38729  1.0000
  C   C525      1.0  0.02801  0.85161  0.33054  1.0000
  C   C526      1.0  0.02586  0.83129  0.33336  1.0000
  C   C527      1.0  0.22026  0.72740  0.36909  1.0000
  H   H809      1.0  0.31706  0.78129  0.30763  1.0000
  H   H810      1.0  0.25887  0.70579  0.34062  1.0000
  H   H811      1.0  0.32082  0.75802  0.29758  1.0000
  C   C528      1.0  0.01185  0.76404  0.38465  1.0000
  S   S216      1.0  0.04062  0.82812  0.45895  1.0000
  H   H812      1.0  0.18100  0.92330  0.33322  1.0000
  H   H813      1.0  0.22759  0.69031  0.38665  1.0000
  S   S217      1.0  0.36920  0.66503  0.37716  1.0000
  H   H814      1.0  0.32901  0.68605  0.38843  1.0000
  H   H815      1.0  0.24820  0.71638  0.39333  1.0000
  H   H816      1.0  0.03978  0.87458  0.28837  1.0000
  H   H817      1.0  0.35936  0.77195  0.33758  1.0000
  C   C529      1.0  0.32603  0.79272  0.25369  1.0000
  H   H818      1.0  0.01518  0.95515  0.32104  1.0000
  C   C530      1.0  0.30313  0.69559  0.34834  1.0000
  H   H819      1.0  0.17698  0.83834  0.44991  1.0000
  C   C531      1.0  0.29856  0.71620  0.34846  1.0000
  C   C532      1.0  0.04911  0.87929  0.44747  1.0000
  C   C533      1.0  0.01170  0.97045  0.31544  1.0000
  H   H820      1.0  0.21402  0.72565  0.38486  1.0000
  N   N50       1.0  0.15166  0.83961  0.47173  1.0000
  C   C534      1.0  0.14099  0.85636  0.46033  1.0000
  C   C535      1.0  0.01228  0.82939  0.43328  1.0000
  H   H821      1.0  0.02008  0.84096  0.42478  1.0000
  H   H822      1.0  0.14136  0.79780  0.28962  1.0000
  C   C536      1.0  0.44343  0.66956  0.47573  1.0000
  H   H823      1.0  0.15262  0.80789  0.47623  1.0000
  H   H824      1.0  0.45970  0.68638  0.41089  1.0000
  H   H825      1.0  0.03008  0.75759  0.41811  1.0000
  H   H826      1.0  0.14964  0.96648  0.49189  1.0000
  H   H827      1.0  0.02408  0.87282  0.24873  1.0000
  H   H828      1.0  0.43785  0.70339  0.41072  1.0000
  C   C537      1.0  0.14734  0.84162  0.49309  1.0000
  H   H829      1.0  0.01280  0.79913  0.47632  1.0000
  H   H830      1.0  0.01492  0.80290  0.37229  1.0000
  H   H831      1.0  0.00755  0.77355  0.42165  1.0000
  H   H832      1.0  0.06179  0.83406  0.28505  1.0000
  N   N51       1.0  0.17026  0.80816  0.28429  1.0000
  C   C538      1.0  0.01290  0.86499  0.32313  1.0000
  C   C539      1.0  0.11886  0.85664  0.25110  1.0000
  C   C540      1.0  0.17397  0.80585  0.30531  1.0000
  C   C541      1.0  0.15611  0.79434  0.28133  1.0000
  H   H833      1.0  0.30810  0.71166  0.48628  1.0000
  C   C542      1.0  0.01419  0.79821  0.38840  1.0000
  H   H834      1.0  0.43619  0.68159  0.46662  1.0000
  H   H835      1.0  0.04430  0.77968  0.36685  1.0000
  C   C543      1.0  0.44636  0.69117  0.40303  1.0000
  H   H836      1.0  0.31207  0.75912  0.32323  1.0000
  H   H837      1.0  0.49506  0.71932  0.25929  1.0000
  H   H838      1.0  0.05122  0.76081  0.38612  1.0000
  C   C544      1.0  0.14517  0.82084  0.46753  1.0000
  H   H839      1.0  0.23333  0.75035  0.25500  1.0000
  H   H840      1.0  0.40743  0.66948  0.39221  1.0000
  H   H841      1.0  0.23090  0.96771  0.48621  1.0000
  H   H842      1.0  0.15377  0.79502  0.26548  1.0000
  C   C545      1.0  0.31421  0.68457  0.36270  1.0000
  C   C546      1.0  0.04383  0.77606  0.38320  1.0000
  H   H843      1.0  0.33905  0.73521  0.33419  1.0000
  H   H844      1.0  0.40731  0.69353  0.39982  1.0000
  H   H845      1.0  0.04425  0.89295  0.45478  1.0000
  Fe  Fe106     1.0  0.05428  0.82969  0.48788  1.0000
  H   H846      1.0  0.20848  0.72529  0.35985  1.0000
  C   C547      1.0  0.21750  0.92035  0.36340  1.0000
  H   H847      1.0  0.21841  0.92275  0.37906  1.0000
  S   S218      1.0  0.47480  0.67197  0.44666  1.0000
  H   H848      1.0  0.19101  0.94944  0.37503  1.0000
  H   H849      1.0  0.24932  0.73142  0.33958  1.0000
  H   H850      1.0  0.41928  0.67867  0.43184  1.0000
  H   H851      1.0  0.09824  0.81578  0.28927  1.0000
  C   C548      1.0  0.10407  0.82716  0.27856  1.0000
  C   C549      1.0  0.31590  0.71485  0.37742  1.0000
  N   N52       1.0  0.34285  0.76270  0.31608  1.0000
  C   C550      1.0  0.34876  0.74143  0.32125  1.0000
  C   C551      1.0  0.34406  0.77357  0.33322  1.0000
  C   C552      1.0  0.32232  0.76538  0.31088  1.0000
  C   C553      1.0  0.35614  0.77047  0.29903  1.0000
  H   H852      1.0  0.35523  0.76298  0.28565  1.0000
  H   H853      1.0  0.34160  0.69383  0.48089  1.0000
  H   H854      1.0  0.01442  0.86147  0.27236  1.0000
  H   H855      1.0  0.03077  0.78332  0.42100  1.0000
  H   H856      1.0  0.04452  0.82387  0.27237  1.0000
  H   H857      1.0  0.02176  0.80892  0.39501  1.0000
  H   H858      1.0  0.08416  0.89916  0.41420  1.0000
  C   C554      1.0  0.00816  0.80596  0.46232  1.0000
  N   N53       1.0  0.43436  0.67459  0.40298  1.0000
  H   H859      1.0  0.17207  0.83958  0.28069  1.0000
  H   H860      1.0  0.01874  0.74852  0.38672  1.0000
  H   H861      1.0  0.37184  0.76845  0.30226  1.0000
  S   S219      1.0  0.00355  0.80020  0.33601  1.0000
  H   H862      1.0  0.20129  0.90435  0.33593  1.0000
  H   H863      1.0  0.15899  0.83083  0.26275  1.0000
  C   C555      1.0  0.25355  0.71731  0.37731  1.0000
  C   C556      1.0  0.32067  0.69436  0.37715  1.0000
  H   H864      1.0  0.32076  0.72217  0.38887  1.0000
  C   C557      1.0  0.10173  0.84691  0.28304  1.0000
  H   H865      1.0  0.09424  0.85061  0.29712  1.0000
  C   C558      1.0  0.10881  0.86185  0.26916  1.0000
  C   C559      1.0  0.19631  0.92018  0.33763  1.0000
  H   H866      1.0  0.18893  0.89597  0.37102  1.0000
  S   S220      1.0  0.08452  0.89143  0.47878  1.0000
  H   H867      1.0  0.03585  0.87146  0.44692  1.0000
  H   H868      1.0  0.17851  0.85369  0.46903  1.0000
  H   H869      1.0  0.05887  0.86959  0.45731  1.0000
  N   N54       1.0  0.05953  0.88376  0.42755  1.0000
  C   C560      1.0  0.16190  0.82865  0.27857  1.0000
  H   H870      1.0  0.22348  0.90476  0.36167  1.0000
  H   H871      1.0  0.04073  0.91048  0.42080  1.0000
  C   C561      1.0  0.14696  0.90081  0.48796  1.0000
  C   C562      1.0  0.04598  0.89620  0.41476  1.0000
  H   H872      1.0  0.22761  0.93004  0.35396  1.0000
  H   H873      1.0  0.14635  0.87059  0.46239  1.0000
  H   H874      1.0  0.23405  0.71360  0.33459  1.0000
  H   H875      1.0  0.17427  0.94904  0.35697  1.0000
  H   H876      1.0  0.03578  0.83827  0.29239  1.0000
  H   H877      1.0  0.03277  0.88863  0.41332  1.0000
  H   H878      1.0  0.18170  0.82723  0.47428  1.0000
  H   H879      1.0  0.24627  0.68204  0.36790  1.0000
  H   H880      1.0  0.05346  0.89971  0.39956  1.0000
  H   H881      1.0  0.07642  0.85526  0.42826  1.0000
  C   C563      1.0  0.06633  0.86509  0.41886  1.0000
  C   C564      1.0  0.24545  0.71611  0.34411  1.0000
  H   H882      1.0  0.14839  0.81866  0.45160  1.0000
  C   C565      1.0  0.23310  0.69293  0.37071  1.0000
  H   H883      1.0  0.35222  0.78656  0.29501  1.0000
  H   H884      1.0  0.33420  0.76804  0.34636  1.0000
  N   N55       1.0  0.19698  0.92452  0.35815  1.0000
  C   C566      1.0  0.19005  0.94556  0.35987  1.0000
  H   H885      1.0  0.07440  0.86793  0.40385  1.0000
  C   C567      1.0  0.18401  0.91195  0.37171  1.0000
  H   H886      1.0  0.19900  0.95554  0.34937  1.0000
  H   H887      1.0  0.36422  0.73878  0.32521  1.0000
  H   H888      1.0  0.18462  0.81605  0.30811  1.0000
  H   H889      1.0  0.29822  0.68813  0.33704  1.0000
  H   H890      1.0  0.08793  0.88507  0.43754  1.0000
  C   C568      1.0  0.02300  0.77279  0.41428  1.0000
  H   H891      1.0  0.22144  0.68953  0.36196  1.0000
  H   H892      1.0  0.12899  0.82042  0.47160  1.0000
  H   H893      1.0  0.06542  0.86970  0.27990  1.0000
  H   H894      1.0  0.45154  0.69724  0.38775  1.0000
  C   C569      1.0  0.05032  0.87210  0.27505  1.0000
  H   H895      1.0  0.02154  0.84673  0.25218  1.0000
  H   H896      1.0  0.05273  0.78640  0.38878  1.0000
  Fe  Fe107     1.0  0.07779  0.86258  0.49545  1.0000
  C   C570      1.0  0.41680  0.68162  0.39246  1.0000
  H   H897      1.0  0.18038  0.79053  0.31003  1.0000
  H   H898      1.0  0.18552  0.96082  0.49202  1.0000
  C   C571      1.0  0.17317  0.83968  0.46598  1.0000
  C   C572      1.0  0.34574  0.70081  0.49348  1.0000
  C   C573      1.0  0.20841  0.99215  0.48260  1.0000
  H   H899      1.0  0.35233  0.71463  0.48728  1.0000
  C   C574      1.0  0.11365  0.82204  0.26029  1.0000
  H   H900      1.0  0.31877  0.73255  0.49259  1.0000
  S   S221      1.0  0.11511  0.79711  0.25513  1.0000
  N   N56       1.0  0.04580  0.85523  0.26539  1.0000
  S   S222      1.0  0.37623  0.67445  0.42996  1.0000
  H   H901      1.0  0.04959  0.88606  0.26489  1.0000
  C   C575      1.0  0.36540  0.66468  0.45274  1.0000
  H   H902      1.0  0.07557  0.84934  0.25195  1.0000
  H   H903      1.0  0.15292  0.85515  0.49692  1.0000
  C   C576      1.0  0.08303  0.81144  0.57762  1.0000
  H   H904      1.0  0.43320  0.92583  0.72229  1.0000
  C   C577      1.0  0.33474  0.71386  0.52467  1.0000
  Fe  Fe108     1.0  0.25459  0.83904  0.71366  1.0000
  S   S223      1.0  0.22154  0.84123  0.71879  1.0000
  S   S224      1.0  0.26936  0.81270  0.69880  1.0000
  Fe  Fe109     1.0  0.22297  0.87377  0.70972  1.0000
  S   S225      1.0  0.20594  0.88869  0.68409  1.0000
  N   N57       1.0  0.16463  0.95591  0.51760  1.0000
  S   S226      1.0  0.25630  0.87122  0.70318  1.0000
  H   H905      1.0  0.19611  0.70071  0.64659  1.0000
  C   C578      1.0  0.41051  0.89682  0.73783  1.0000
  H   H906      1.0  0.19499  0.79313  0.72086  1.0000
  H   H907      1.0  0.39698  0.93484  0.72928  1.0000
  H   H908      1.0  0.21825  0.80073  0.66893  1.0000
  S   S227      1.0  0.34729  0.69367  0.57750  1.0000
  H   H909      1.0  0.05122  0.77764  0.57425  1.0000
  N   N58       1.0  0.16936  0.97330  0.64347  1.0000
  H   H910      1.0  0.11222  0.99524  0.59789  1.0000
  Fe  Fe110     1.0  0.07477  0.97215  0.62821  1.0000
  S   S228      1.0  0.07939  0.95763  0.59991  1.0000
  H   H911      1.0  0.16261  0.92610  0.53098  1.0000
  Fe  Fe111     1.0  0.10478  0.94016  0.64844  1.0000
  S   S229      1.0  0.11173  0.92428  0.62135  1.0000
  S   S230      1.0  0.11800  0.92971  0.67741  1.0000
  Fe  Fe112     1.0  0.11161  0.95457  0.60461  1.0000
  S   S231      1.0  0.13616  0.96285  0.58110  1.0000
  Fe  Fe113     1.0  0.07894  0.92853  0.61935  1.0000
  S   S232      1.0  0.06256  0.90126  0.62055  1.0000
  S   S233      1.0  0.10724  0.97010  0.63204  1.0000
  S   S234      1.0  0.07180  0.94343  0.64744  1.0000
  C   C579      1.0  0.43374  0.92080  0.73829  1.0000
  H   H912      1.0  0.27869  0.69257  0.66042  1.0000
  H   H913      1.0  0.17672  0.97681  0.53269  1.0000
  Fe  Fe114     1.0  0.25762  0.87509  0.73531  1.0000
  S   S235      1.0  0.08818  0.84785  0.52395  1.0000
  S   S236      1.0  0.37463  0.66682  0.53276  1.0000
  Fe  Fe115     1.0  0.05702  0.84036  0.53025  1.0000
  S   S237      1.0  0.04304  0.84245  0.56159  1.0000
  H   H914      1.0  0.15974  0.94894  0.63132  1.0000
  H   H915      1.0  0.14082  0.88616  0.51731  1.0000
  S   S238      1.0  0.06232  0.81150  0.51640  1.0000
  C   C580      1.0  0.19402  0.67495  0.66805  1.0000
  Fe  Fe116     1.0  0.23651  0.73977  0.59250  1.0000
  S   S239      1.0  0.20609  0.73278  0.60644  1.0000
  S   S240      1.0  0.25482  0.71742  0.57404  1.0000
  Fe  Fe117     1.0  0.23350  0.77824  0.61088  1.0000
  S   S241      1.0  0.20374  0.77355  0.62655  1.0000
  S   S242      1.0  0.24347  0.80772  0.61405  1.0000
  Fe  Fe118     1.0  0.21605  0.74215  0.63371  1.0000
  S   S243      1.0  0.21456  0.72880  0.66569  1.0000
  Fe  Fe119     1.0  0.19648  0.76518  0.59761  1.0000
  S   S244      1.0  0.16803  0.78385  0.58912  1.0000
  S   S245      1.0  0.24670  0.74758  0.62024  1.0000
  S   S246      1.0  0.22610  0.77122  0.58160  1.0000
  C   C581      1.0  0.13509  0.79564  0.53313  1.0000
  C   C582      1.0  0.15063  0.78034  0.53450  1.0000
  C   C583      1.0  0.16122  0.77672  0.55129  1.0000
  C   C584      1.0  0.15625  0.78831  0.56697  1.0000
  C   C585      1.0  0.14100  0.80389  0.56537  1.0000
  C   C586      1.0  0.13062  0.80768  0.54849  1.0000
  H   H916      1.0  0.15430  0.77098  0.52266  1.0000
  H   H917      1.0  0.17291  0.76468  0.55227  1.0000
  H   H918      1.0  0.13717  0.81309  0.57732  1.0000
  H   H919      1.0  0.11902  0.81977  0.54747  1.0000
  C   C587      1.0  0.05814  0.88578  0.60284  1.0000
  C   C588      1.0  0.04580  0.87087  0.60945  1.0000
  C   C589      1.0  0.04144  0.85797  0.59655  1.0000
  C   C590      1.0  0.04942  0.85956  0.57675  1.0000
  C   C591      1.0  0.06207  0.87430  0.56995  1.0000
  C   C592      1.0  0.06639  0.88747  0.58299  1.0000
  H   H920      1.0  0.03926  0.86946  0.62465  1.0000
  H   H921      1.0  0.03160  0.84679  0.60196  1.0000
  H   H922      1.0  0.06823  0.87580  0.55464  1.0000
  H   H923      1.0  0.07591  0.89894  0.57768  1.0000
  C   C593      1.0  0.32134  0.69950  0.57754  1.0000
  C   C594      1.0  0.31199  0.71626  0.58613  1.0000
  C   C595      1.0  0.29155  0.72177  0.58552  1.0000
  C   C596      1.0  0.28032  0.71065  0.57609  1.0000
  C   C597      1.0  0.28962  0.69380  0.56772  1.0000
  C   C598      1.0  0.30996  0.68818  0.56853  1.0000
  H   H924      1.0  0.32067  0.72517  0.59307  1.0000
  H   H925      1.0  0.28463  0.73488  0.59192  1.0000
  H   H926      1.0  0.28103  0.68505  0.56049  1.0000
  H   H927      1.0  0.17486  0.96427  0.61410  1.0000
  C   C599      1.0  0.18373  0.95077  0.50596  1.0000
  C   C600      1.0  0.19926  0.69406  0.66116  1.0000
  C   C601      1.0  0.20810  0.70464  0.67337  1.0000
  C   C602      1.0  0.21186  0.69591  0.69234  1.0000
  C   C603      1.0  0.18718  0.96151  0.65046  1.0000
  H   H928      1.0  0.21865  0.70399  0.70189  1.0000
  S   S247      1.0  0.25892  0.84252  0.74506  1.0000
  C   C604      1.0  0.26382  0.81214  0.67445  1.0000
  C   C605      1.0  0.25389  0.82858  0.66432  1.0000
  C   C606      1.0  0.24812  0.82727  0.64554  1.0000
  C   C607      1.0  0.25174  0.80937  0.63709  1.0000
  C   C608      1.0  0.26168  0.79295  0.64719  1.0000
  C   C609      1.0  0.26806  0.79447  0.66564  1.0000
  H   H929      1.0  0.25056  0.84229  0.67099  1.0000
  H   H930      1.0  0.24051  0.84006  0.63776  1.0000
  H   H931      1.0  0.26479  0.77920  0.64062  1.0000
  H   H932      1.0  0.27594  0.78179  0.67332  1.0000
  C   C610      1.0  0.18110  0.89922  0.68287  1.0000
  C   C611      1.0  0.16822  0.90294  0.69975  1.0000
  C   C612      1.0  0.14889  0.91214  0.69785  1.0000
  C   C613      1.0  0.14220  0.91757  0.67912  1.0000
  C   C614      1.0  0.15493  0.91349  0.66227  1.0000
  C   C615      1.0  0.17430  0.90451  0.66416  1.0000
  H   H933      1.0  0.17327  0.89904  0.71423  1.0000
  H   H934      1.0  0.13916  0.91526  0.71099  1.0000
  H   H935      1.0  0.14990  0.91731  0.64780  1.0000
  H   H936      1.0  0.18414  0.90162  0.65103  1.0000
  H   H937      1.0  0.24089  0.97778  0.51697  1.0000
  H   H938      1.0  0.19983  0.77072  0.67331  1.0000
  Fe  Fe120     1.0  0.09333  0.82014  0.50907  1.0000
  N   N59       1.0  0.26235  0.68343  0.63875  1.0000
  H   H939      1.0  0.09845  0.81113  0.58129  1.0000
  C   C616      1.0  0.16426  0.97589  0.52385  1.0000
  H   H940      1.0  0.20806  0.76909  0.72627  1.0000
  H   H941      1.0  0.33135  0.67566  0.52408  1.0000
  C   C617      1.0  0.22886  0.98637  0.50992  1.0000
  C   C618      1.0  0.09004  0.78073  0.56288  1.0000
  C   C619      1.0  0.20679  0.67677  0.69914  1.0000
  N   N60       1.0  0.07718  0.79128  0.57800  1.0000
  C   C620      1.0  0.21423  0.80160  0.68506  1.0000
  C   C621      1.0  0.24752  0.69235  0.62540  1.0000
  H   H942      1.0  0.02261  0.98509  0.63404  1.0000
  C   C622      1.0  0.05635  0.79252  0.57379  1.0000
  H   H943      1.0  0.23175  0.75433  0.69994  1.0000
  C   C623      1.0  0.09830  0.87647  0.69304  1.0000
  H   H944      1.0  0.08785  0.87392  0.70659  1.0000
  H   H945      1.0  0.09483  0.77928  0.60142  1.0000
  H   H946      1.0  0.19995  0.81107  0.68700  1.0000
  H   H947      1.0  0.10577  0.77883  0.56602  1.0000
  H   H948      1.0  0.17122  0.98323  0.56998  1.0000
  H   H949      1.0  0.29996  0.72147  0.50942  1.0000
  H   H950      1.0  0.06973  0.78805  0.60948  1.0000
  H   H951      1.0  0.04627  0.80093  0.58457  1.0000
  H   H952      1.0  0.42220  0.88420  0.73952  1.0000
  S   S248      1.0  0.22427  0.88032  0.74095  1.0000
  C   C624      1.0  0.13490  0.89186  0.50355  1.0000
  C   C625      1.0  0.07927  0.78045  0.59776  1.0000
  H   H953      1.0  0.24311  0.68130  0.61655  1.0000
  H   H954      1.0  0.15029  0.98002  0.53321  1.0000
  C   C626      1.0  0.39868  0.92998  0.74513  1.0000
  N   N61       1.0  0.32855  0.70469  0.50822  1.0000
  N   N62       1.0  0.08776  0.88078  0.67512  1.0000
  C   C627      1.0  0.10224  0.88418  0.65760  1.0000
  C   C628      1.0  0.07685  0.86396  0.67278  1.0000
  C   C629      1.0  0.07362  0.89864  0.67696  1.0000
  H   H955      1.0  0.11076  0.89675  0.65887  1.0000
  H   H956      1.0  0.09479  0.88770  0.64382  1.0000
  H   H957      1.0  0.11310  0.87099  0.65569  1.0000
  H   H958      1.0  0.06882  0.86700  0.65928  1.0000
  H   H959      1.0  0.08702  0.85020  0.67130  1.0000
  H   H960      1.0  0.06567  0.86104  0.68566  1.0000
  H   H961      1.0  0.08131  0.91165  0.67884  1.0000
  H   H962      1.0  0.06239  0.89661  0.68996  1.0000
  H   H963      1.0  0.06551  0.90244  0.66360  1.0000
  H   H964      1.0  0.10662  0.88904  0.69505  1.0000
  H   H965      1.0  0.28696  0.68700  0.61641  1.0000
  C   C630      1.0  0.14125  0.98685  0.58380  1.0000
  H   H966      1.0  0.24454  0.77618  0.69742  1.0000
  H   H967      1.0  0.19965  0.96093  0.63846  1.0000
  C   C631      1.0  0.20910  0.78375  0.71747  1.0000
  H   H968      1.0  0.31687  0.67527  0.56189  1.0000
  H   H969      1.0  0.18253  0.78083  0.69228  1.0000
  H   H970      1.0  0.13115  0.84257  0.49779  1.0000
  H   H971      1.0  0.22559  0.80949  0.69032  1.0000
  H   H972      1.0  0.27393  0.71104  0.64011  1.0000
  H   H973      1.0  0.16563  0.98728  0.51087  1.0000
  C   C632      1.0  0.16319  0.96441  0.62687  1.0000
  C   C633      1.0  0.23218  0.76956  0.69227  1.0000
  H   H974      1.0  0.20956  0.67031  0.71386  1.0000
  H   H975      1.0  0.34133  0.72789  0.51936  1.0000
  H   H976      1.0  0.31047  0.86988  0.74196  1.0000
  H   H977      1.0  0.05428  0.80043  0.55891  1.0000
  C   C634      1.0  0.32044  0.68589  0.51601  1.0000
  H   H978      1.0  0.19646  0.95179  0.51436  1.0000
  H   H979      1.0  0.44620  0.90891  0.73970  1.0000
  H   H980      1.0  0.07500  0.76515  0.59858  1.0000
  C   C635      1.0  0.16012  0.99283  0.57780  1.0000
  N   N63       1.0  0.21315  0.78177  0.69607  1.0000
  C   C636      1.0  0.26757  0.69877  0.65010  1.0000
  H   H981      1.0  0.10920  0.86316  0.69216  1.0000
  S   S249      1.0  0.12147  0.79903  0.51219  1.0000
  C   C637      1.0  0.14833  0.95559  0.50530  1.0000
  H   H982      1.0  0.13950  0.98229  0.65509  1.0000
  H   H983      1.0  0.15735  0.97992  0.67269  1.0000
  H   H984      1.0  0.07317  0.82009  0.58834  1.0000
  H   H985      1.0  0.08556  0.76575  0.56217  1.0000
  C   C638      1.0  0.19718  0.77221  0.68945  1.0000
  H   H986      1.0  0.18426  0.94598  0.65579  1.0000
  H   H987      1.0  0.25434  0.70536  0.65907  1.0000
  H   H988      1.0  0.14971  0.97285  0.62142  1.0000
  H   H989      1.0  0.08204  0.81989  0.56279  1.0000
  H   H990      1.0  0.08949  0.78894  0.54785  1.0000
  H   H991      1.0  0.25343  0.70434  0.61476  1.0000
  N   N64       1.0  0.20328  0.83313  0.57558  1.0000
  C   C639      1.0  0.22507  0.83135  0.57142  1.0000
  C   C640      1.0  0.19552  0.85425  0.57390  1.0000
  C   C641      1.0  0.19774  0.82395  0.59581  1.0000
  C   C642      1.0  0.19477  0.82294  0.56123  1.0000
  H   H992      1.0  0.22987  0.83812  0.55630  1.0000
  H   H993      1.0  0.23145  0.81560  0.57271  1.0000
  H   H994      1.0  0.23199  0.83868  0.58216  1.0000
  H   H995      1.0  0.17912  0.85612  0.57704  1.0000
  H   H996      1.0  0.20171  0.86230  0.58457  1.0000
  H   H997      1.0  0.19941  0.86165  0.55880  1.0000
  H   H998      1.0  0.18141  0.82469  0.59943  1.0000
  H   H999      1.0  0.20401  0.83112  0.60710  1.0000
  H   H1000     1.0  0.20350  0.80807  0.59753  1.0000
  H   H1001     1.0  0.17835  0.82402  0.56396  1.0000
  H   H1002     1.0  0.20008  0.80688  0.56239  1.0000
  H   H1003     1.0  0.19879  0.82928  0.54575  1.0000
  H   H1004     1.0  0.23590  0.76810  0.67620  1.0000
  H   H1005     1.0  0.22105  0.79082  0.72285  1.0000
  H   H1006     1.0  0.30692  0.68832  0.52650  1.0000
  H   H1007     1.0  0.32204  0.71728  0.53589  1.0000
  H   H1008     1.0  0.39618  0.89137  0.74446  1.0000
  H   H1009     1.0  0.17403  0.94144  0.54503  1.0000
  H   H1010     1.0  0.14778  0.94467  0.54422  1.0000
  H   H1011     1.0  0.14837  0.94076  0.50015  1.0000
  H   H1012     1.0  0.35760  0.69055  0.50008  1.0000
  H   H1013     1.0  0.19624  0.75700  0.69711  1.0000
  H   H1014     1.0  0.14928  0.95826  0.66513  1.0000
  H   H1015     1.0  0.13366  0.95920  0.51367  1.0000
  H   H1016     1.0  0.34599  0.70388  0.53257  1.0000
  C   C643      1.0  0.15318  0.97347  0.65981  1.0000
  H   H1017     1.0  0.43743  0.93344  0.74555  1.0000
  C   C644      1.0  0.16219  0.94136  0.53523  1.0000
  H   H1018     1.0  0.19231  0.96781  0.66296  1.0000
  H   H1019     1.0  0.40937  0.90087  0.72175  1.0000
  C   C645      1.0  0.28025  0.67527  0.62691  1.0000
  H   H1020     1.0  0.10599  0.88273  0.51306  1.0000
  H   H1021     1.0  0.23392  0.69894  0.63376  1.0000
  C   C646      1.0  0.31316  0.71821  0.49869  1.0000
  H   H1022     1.0  0.31649  0.67803  0.50395  1.0000
  H   H1023     1.0  0.18558  0.99433  0.62402  1.0000
  C   C647      1.0  0.17380  0.99380  0.63671  1.0000
  H   H1024     1.0  0.29179  0.66831  0.63647  1.0000
  C   C648      1.0  0.25401  0.66745  0.65255  1.0000
  S   S250      1.0  0.04611  0.85747  0.50288  1.0000
  H   H1025     1.0  0.41889  0.66893  0.49879  1.0000
  H   H1026     1.0  0.24054  0.67316  0.66178  1.0000
  H   H1027     1.0  0.18695  0.66693  0.65866  1.0000
  C   C649      1.0  0.19773  0.66626  0.68708  1.0000
  Fe  Fe121     1.0  0.36277  0.66599  0.56489  1.0000
  H   H1028     1.0  0.18491  0.93549  0.50169  1.0000
  H   H1029     1.0  0.15432  0.82871  0.50220  1.0000
  C   C650      1.0  0.11530  0.88969  0.50107  1.0000
  H   H1030     1.0  0.29727  0.68041  0.91916  1.0000
  S   S251      1.0  0.38382  0.89777  0.95540  1.0000
  S   S252      1.0  0.18092  0.67956  0.96429  1.0000
  Fe  Fe122     1.0  0.40190  0.93318  0.81336  1.0000
  S   S253      1.0  0.38258  0.94167  0.84047  1.0000
  Fe  Fe123     1.0  0.36871  0.91275  0.79906  1.0000
  S   S254      1.0  0.34725  0.91999  0.82507  1.0000
  Fe  Fe124     1.0  0.35896  0.94949  0.82004  1.0000
  C   C651      1.0  0.21535  0.71244  0.94589  1.0000
  Fe  Fe125     1.0  0.37267  0.91128  0.84330  1.0000
  S   S255      1.0  0.36520  0.89547  0.87367  1.0000
  H   H1031     1.0  0.25815  0.71433  0.81632  1.0000
  S   S256      1.0  0.39367  0.90169  0.81779  1.0000
  Fe  Fe126     1.0  0.40586  0.76923  0.96866  1.0000
  S   S257      1.0  0.40034  0.80199  0.96233  1.0000
  Fe  Fe127     1.0  0.37159  0.76246  0.94415  1.0000
  S   S258      1.0  0.36371  0.79503  0.93722  1.0000
  S   S259      1.0  0.35724  0.74274  0.92634  1.0000
  Fe  Fe128     1.0  0.39637  0.79689  0.93140  1.0000
  S   S260      1.0  0.41063  0.81366  0.90397  1.0000
  Fe  Fe129     1.0  0.36846  0.79676  0.96877  1.0000
  C   C652      1.0  0.46658  0.99493  0.80477  1.0000
  S   S261      1.0  0.40451  0.76419  0.93689  1.0000
  S   S262      1.0  0.37370  0.76401  0.97669  1.0000
  C   C653      1.0  0.25210  0.72342  0.77811  1.0000
  C   C654      1.0  0.41619  0.90765  0.76870  1.0000
  H   H1032     1.0  0.31974  0.79591  0.97333  1.0000
  C   C655      1.0  0.18517  0.73089  0.95821  1.0000
  C   C656      1.0  0.43653  0.97911  0.80244  1.0000
  C   C657      1.0  0.30227  0.90888  0.76922  1.0000
  C   C658      1.0  0.28466  0.81405  0.96454  1.0000
  H   H1033     1.0  0.30164  0.67505  0.98135  1.0000
  C   C659      1.0  0.44609  0.96045  0.80814  1.0000
  N   N65       1.0  0.43391  0.85333  0.94235  1.0000
  Fe  Fe130     1.0  0.20898  0.72145  0.88510  1.0000
  S   S263      1.0  0.21774  0.71467  0.85383  1.0000
  S   S264      1.0  0.17873  0.72139  0.90297  1.0000
  Fe  Fe131     1.0  0.25171  0.72558  0.89296  1.0000
  S   S265      1.0  0.26389  0.71797  0.86260  1.0000
  S   S266      1.0  0.26648  0.73337  0.91905  1.0000
  Fe  Fe132     1.0  0.23827  0.73838  0.85161  1.0000
  S   S267      1.0  0.24781  0.75514  0.82202  1.0000
  Fe  Fe133     1.0  0.24254  0.69488  0.86654  1.0000
  H   H1034     1.0  0.23106  0.71292  0.93963  1.0000
  S   S268      1.0  0.22718  0.74744  0.88184  1.0000
  S   S269      1.0  0.23282  0.70025  0.89797  1.0000
  H   H1035     1.0  0.34923  0.77888  0.89673  1.0000
  S   S270      1.0  0.20943  0.83473  0.77786  1.0000
  C   C660      1.0  0.23614  0.77685  0.80997  1.0000
  C   C661      1.0  0.24449  0.78393  0.79111  1.0000
  C   C662      1.0  0.23608  0.80132  0.78094  1.0000
  C   C663      1.0  0.21929  0.81194  0.78963  1.0000
  C   C664      1.0  0.21077  0.80477  0.80842  1.0000
  C   C665      1.0  0.21914  0.78725  0.81858  1.0000
  H   H1036     1.0  0.25767  0.77600  0.78435  1.0000
  H   H1037     1.0  0.24271  0.80658  0.76645  1.0000
  H   H1038     1.0  0.19774  0.81290  0.81523  1.0000
  H   H1039     1.0  0.21255  0.78189  0.83309  1.0000
  H   H1040     1.0  0.20712  0.70736  0.93466  1.0000
  H   H1041     1.0  0.17726  0.72621  0.94646  1.0000
  H   H1042     1.0  0.37784  0.98228  0.80639  1.0000
  H   H1043     1.0  0.41275  0.87528  0.92933  1.0000
  C   C666      1.0  0.12857  0.68335  0.89735  1.0000
  C   C667      1.0  0.12872  0.69309  0.91412  1.0000
  C   C668      1.0  0.14408  0.70479  0.91548  1.0000
  C   C669      1.0  0.15970  0.70656  0.90031  1.0000
  C   C670      1.0  0.15972  0.69662  0.88360  1.0000
  C   C671      1.0  0.14408  0.68533  0.88203  1.0000
  H   H1044     1.0  0.11682  0.69190  0.92594  1.0000
  H   H1045     1.0  0.14390  0.71234  0.92849  1.0000
  H   H1046     1.0  0.17150  0.69800  0.87169  1.0000
  H   H1047     1.0  0.29667  0.81617  0.95226  1.0000
  C   C672      1.0  0.22409  0.71372  0.80048  1.0000
  C   C673      1.0  0.33173  0.74175  0.92389  1.0000
  C   C674      1.0  0.32658  0.73330  0.90769  1.0000
  C   C675      1.0  0.30664  0.73149  0.90547  1.0000
  C   C676      1.0  0.29159  0.73752  0.91982  1.0000
  C   C677      1.0  0.29673  0.74592  0.93605  1.0000
  C   C678      1.0  0.31663  0.74828  0.93796  1.0000
  H   H1048     1.0  0.33810  0.72790  0.89686  1.0000
  H   H1049     1.0  0.30299  0.72483  0.89300  1.0000
  H   H1050     1.0  0.28527  0.75045  0.94737  1.0000
  H   H1051     1.0  0.32033  0.75454  0.95064  1.0000
  H   H1052     1.0  0.22446  0.74804  0.92878  1.0000
  H   H1053     1.0  0.36782  0.80830  0.88872  1.0000
  H   H1054     1.0  0.40230  0.90186  0.77591  1.0000
  C   C679      1.0  0.37763  0.87224  0.88081  1.0000
  C   C680      1.0  0.36928  0.86059  0.89718  1.0000
  C   C681      1.0  0.37911  0.84238  0.90395  1.0000
  C   C682      1.0  0.39756  0.83586  0.89469  1.0000
  C   C683      1.0  0.40586  0.84734  0.87812  1.0000
  C   C684      1.0  0.39586  0.86549  0.87110  1.0000
  H   H1055     1.0  0.35520  0.86576  0.90476  1.0000
  H   H1056     1.0  0.37252  0.83357  0.91655  1.0000
  C   C685      1.0  0.25296  0.86753  0.82336  1.0000
  H   H1057     1.0  0.40243  0.87445  0.85849  1.0000
  C   C686      1.0  0.37202  0.87664  0.96466  1.0000
  C   C687      1.0  0.37151  0.86212  0.95218  1.0000
  C   C688      1.0  0.36443  0.84409  0.95970  1.0000
  C   C689      1.0  0.35737  0.84063  0.97963  1.0000
  S   S271      1.0  0.35086  0.81704  0.98898  1.0000
  C   C690      1.0  0.36415  0.87360  0.98449  1.0000
  H   H1058     1.0  0.37684  0.86476  0.93674  1.0000
  H   H1059     1.0  0.36455  0.83277  0.95008  1.0000
  H   H1060     1.0  0.45360  0.82739  0.95013  1.0000
  S   S272      1.0  0.34918  0.93312  0.98456  1.0000
  H   H1061     1.0  0.23268  0.73788  0.96310  1.0000
  C   C691      1.0  0.21657  0.73726  0.96772  1.0000
  C   C692      1.0  0.27832  0.69072  0.95328  1.0000
  C   C693      1.0  0.35090  0.94023  0.89647  1.0000
  H   H1062     1.0  0.49116  0.97505  0.81427  1.0000
  H   H1063     1.0  0.32016  0.67017  0.92857  1.0000
  H   H1064     1.0  0.38416  0.77667  0.90269  1.0000
  C   C694      1.0  0.37132  0.99562  0.81253  1.0000
  S   S273      1.0  0.43476  0.93816  0.80809  1.0000
  H   H1065     1.0  0.24495  0.88905  0.78914  1.0000
  H   H1066     1.0  0.21379  0.71773  0.78890  1.0000
  C   C695      1.0  0.35417  0.77497  0.88147  1.0000
  H   H1067     1.0  0.31360  0.83298  0.97411  1.0000
  H   H1068     1.0  0.21505  0.72624  0.98100  1.0000
  H   H1069     1.0  0.31197  0.69593  0.92935  1.0000
  S   S274      1.0  0.10877  0.66960  0.89444  1.0000
  C   C696      1.0  0.32134  0.90877  0.77518  1.0000
  H   H1070     1.0  0.20199  0.76186  0.93799  1.0000
  H   H1071     1.0  0.19759  0.67679  0.89868  1.0000
  C   C697      1.0  0.44356  0.83344  0.93871  1.0000
  S   S275      1.0  0.27358  0.89580  0.75056  1.0000
  H   H1072     1.0  0.28888  0.98050  0.98895  1.0000
  H   H1073     1.0  0.39484  0.92574  0.91499  1.0000
  H   H1074     1.0  0.26947  0.68727  0.96768  1.0000
  N   N66       1.0  0.29617  0.67651  0.95090  1.0000
  C   C698      1.0  0.30162  0.82999  0.98619  1.0000
  S   S276      1.0  0.34610  0.98481  0.96263  1.0000
  H   H1075     1.0  0.29059  0.84325  0.98632  1.0000
  H   H1076     1.0  0.35622  0.93983  0.88051  1.0000
  H   H1077     1.0  0.38867  0.96246  0.90936  1.0000
  H   H1078     1.0  0.38204  0.96086  0.88499  1.0000
  C   C699      1.0  0.19542  0.66712  0.91285  1.0000
  C   C700      1.0  0.35674  0.85558  0.99198  1.0000
  H   H1079     1.0  0.34816  0.95529  0.93143  1.0000
  C   C701      1.0  0.46584  0.95925  0.81250  1.0000
  H   H1080     1.0  0.17771  0.74541  0.96208  1.0000
  H   H1081     1.0  0.42844  0.89574  0.77112  1.0000
  C   C702      1.0  0.27675  0.86292  0.79492  1.0000
  C   C703      1.0  0.37235  0.80357  0.87371  1.0000
  H   H1082     1.0  0.38689  0.80923  0.86848  1.0000
  H   H1083     1.0  0.24451  0.70300  0.99389  1.0000
  H   H1084     1.0  0.39447  0.78112  0.84812  1.0000
  H   H1085     1.0  0.47351  0.94494  0.81676  1.0000
  C   C704      1.0  0.33668  0.89483  0.76893  1.0000
  H   H1086     1.0  0.32285  0.66776  0.96487  1.0000
  H   H1087     1.0  0.25273  0.73670  0.78586  1.0000
  S   S277      1.0  0.33813  0.97674  0.82356  1.0000
  H   H1088     1.0  0.21033  0.75196  0.97226  1.0000
  H   H1089     1.0  0.36897  0.78287  0.84354  1.0000
  H   H1090     1.0  0.28019  0.87852  0.79394  1.0000
  C   C705      1.0  0.14743  0.66519  0.95648  1.0000
  C   C706      1.0  0.25225  0.83996  0.80465  1.0000
  H   H1091     1.0  0.23749  0.86619  0.83010  1.0000
  H   H1092     1.0  0.26304  0.85861  0.83341  1.0000
  H   H1093     1.0  0.23673  0.83792  0.81079  1.0000
  H   H1094     1.0  0.26223  0.83014  0.81416  1.0000
  Fe  Fe134     1.0  0.37983  0.91910  0.97810  1.0000
  H   H1095     1.0  0.20998  0.67615  0.85023  1.0000
  C   C707      1.0  0.37620  0.96061  0.90090  1.0000
  H   H1096     1.0  0.23369  0.69328  0.76909  1.0000
  H   H1097     1.0  0.27949  0.85850  0.77961  1.0000
  H   H1098     1.0  0.45792  0.86836  0.92671  1.0000
  H   H1099     1.0  0.40887  0.85016  0.92746  1.0000
  N   N67       1.0  0.36726  0.94211  0.90818  1.0000
  H   H1100     1.0  0.21785  0.70186  0.81112  1.0000
  H   H1101     1.0  0.14395  0.67811  0.86884  1.0000
  H   H1102     1.0  0.25572  0.88330  0.82284  1.0000
  H   H1103     1.0  0.42014  0.84235  0.87082  1.0000
  Fe  Fe135     1.0  0.36328  0.96148  0.98251  1.0000
  C   C708      1.0  0.30739  0.79461  0.98537  1.0000
  H   H1104     1.0  0.45238  0.83368  0.92397  1.0000
  H   H1105     1.0  0.41556  0.86726  0.96555  1.0000
  C   C709      1.0  0.31337  0.88072  0.75122  1.0000
  H   H1106     1.0  0.25443  0.83455  0.78979  1.0000
  S   S278      1.0  0.39386  0.94739  0.97386  1.0000
  H   H1107     1.0  0.34258  0.78157  0.87185  1.0000
  H   H1108     1.0  0.22670  0.87168  0.79620  1.0000
  H   H1109     1.0  0.36521  0.97383  0.90241  1.0000
  N   N68       1.0  0.24427  0.70716  0.79187  1.0000
  C   C710      1.0  0.21647  0.66653  0.83931  1.0000
  C   C711      1.0  0.25725  0.70163  0.80786  1.0000
  C   C712      1.0  0.47592  0.97636  0.81114  1.0000
  H   H1110     1.0  0.36407  0.88490  0.99419  1.0000
  C   C713      1.0  0.35957  0.94254  0.92923  1.0000
  H   H1111     1.0  0.27330  0.82699  0.96304  1.0000
  H   H1112     1.0  0.37157  0.94395  0.93844  1.0000
  H   H1113     1.0  0.25856  0.68444  0.77434  1.0000
  H   H1114     1.0  0.42841  0.86115  0.91193  1.0000
  H   H1115     1.0  0.31382  0.69347  0.96512  1.0000
  H   H1116     1.0  0.29065  0.91994  0.77394  1.0000
  H   H1117     1.0  0.43206  0.84644  0.97398  1.0000
  H   H1118     1.0  0.44218  0.88233  0.94412  1.0000
  H   H1119     1.0  0.36142  0.81114  0.86377  1.0000
  H   H1120     1.0  0.30080  0.78062  0.98463  1.0000
  H   H1121     1.0  0.18133  0.67301  0.92096  1.0000
  H   H1122     1.0  0.43245  0.82277  0.93883  1.0000
  H   H1123     1.0  0.33915  0.95282  0.89767  1.0000
  C   C714      1.0  0.24246  0.87313  0.79060  1.0000
  C   C715      1.0  0.37977  0.77616  0.85401  1.0000
  H   H1124     1.0  0.20113  0.74335  0.92187  1.0000
  H   H1125     1.0  0.37602  0.91080  0.91136  1.0000
  C   C716      1.0  0.44680  0.99612  0.80048  1.0000
  H   H1126     1.0  0.38095  0.75982  0.85387  1.0000
  H   H1127     1.0  0.45951  0.86234  0.95282  1.0000
  H   H1128     1.0  0.22400  0.72689  0.80859  1.0000
  H   H1129     1.0  0.24469  0.86861  0.77542  1.0000
  H   H1130     1.0  0.38968  0.75618  0.88845  1.0000
  C   C717      1.0  0.38840  0.77262  0.88746  1.0000
  S   S279      1.0  0.37873  0.94331  0.79245  1.0000
  H   H1131     1.0  0.40332  0.77756  0.88261  1.0000
  H   H1132     1.0  0.32422  0.91970  0.78434  1.0000
  N   N69       1.0  0.29244  0.81199  0.98397  1.0000
  C   C718      1.0  0.20862  0.74697  0.93432  1.0000
  H   H1133     1.0  0.34401  0.92627  0.90140  1.0000
  N   N70       1.0  0.20641  0.73190  0.95155  1.0000
  C   C719      1.0  0.38238  0.92501  0.90613  1.0000
  N   N71       1.0  0.37366  0.78184  0.87414  1.0000
  C   C720      1.0  0.29813  0.89492  0.75718  1.0000
  C   C721      1.0  0.42043  0.86035  0.92708  1.0000
  H   H1134     1.0  0.21491  0.70093  0.95881  1.0000
  H   H1135     1.0  0.18295  0.71986  0.97139  1.0000
  H   H1136     1.0  0.35472  0.75860  0.88217  1.0000
  H   H1137     1.0  0.26736  0.71902  0.77145  1.0000
  H   H1138     1.0  0.26858  0.69050  0.94141  1.0000
  C   C722      1.0  0.24362  0.68985  0.78106  1.0000
  N   N72       1.0  0.25612  0.86087  0.80340  1.0000
  H   H1139     1.0  0.28756  0.85364  0.80392  1.0000
  N   N73       1.0  0.41480  0.91381  0.74746  1.0000
  H   H1140     1.0  0.24264  0.72799  0.76589  1.0000
  S   S280      1.0  0.36123  0.89483  0.77530  1.0000
  H   H1141     1.0  0.41033  0.84277  0.96307  1.0000
  H   H1142     1.0  0.35290  0.92871  0.93528  1.0000
  C   C723      1.0  0.42252  0.85237  0.96211  1.0000
  C   C724      1.0  0.44909  0.86719  0.94145  1.0000
  H   H1143     1.0  0.42145  0.98034  0.79883  1.0000
  H   H1144     1.0  0.27255  0.69639  0.80201  1.0000
  H   H1145     1.0  0.20747  0.66876  0.92190  1.0000
  H   H1146     1.0  0.38853  0.92419  0.89042  1.0000
  H   H1147     1.0  0.41893  0.92019  0.77663  1.0000
  H   H1148     1.0  0.25167  0.68956  0.81863  1.0000
  H   H1149     1.0  0.23791  0.67735  0.79110  1.0000
  H   H1150     1.0  0.15062  0.67164  0.94149  1.0000
  H   H1151     1.0  0.27773  0.80063  0.96242  1.0000
  S   S281      1.0  0.43078  0.75599  0.98741  1.0000
  H   H1152     1.0  0.40147  0.94312  0.75212  1.0000
  C   C725      1.0  0.15938  0.66790  0.97085  1.0000
  C   C726      1.0  0.30921  0.67827  0.96621  1.0000
  C   C727      1.0  0.30687  0.68092  0.93111  1.0000
  H   H1153     1.0  0.19061  0.67046  0.82359  1.0000
  Fe  Fe136     1.0  0.22589  0.84741  0.74935  1.0000
  H   H1154     1.0  0.28224  0.70612  0.95272  1.0000
  C   C728      1.0  0.33256  0.88081  0.75692  1.0000
  H   H1155     1.0  0.30543  0.94661  0.98647  1.0000
  C   C729      1.0  0.35220  0.99658  0.82239  1.0000
  H   H1156     1.0  0.38420  0.92525  0.75215  1.0000
  H   H1157     1.0  0.34428  0.86996  0.75195  1.0000
  S   S282      1.0  0.25086  0.66436  0.85688  1.0000
  Fe  Fe137     1.0  0.65404  0.05643  0.12643  1.0000
  S   S283      1.0  0.63366  0.06332  0.15339  1.0000
  S   S284      1.0  0.67345  0.02813  0.12442  1.0000
  Fe  Fe138     1.0  0.64013  0.09384  0.10157  1.0000
  S   S285      1.0  0.61861  0.10385  0.12653  1.0000
  S   S286      1.0  0.64619  0.10876  0.07052  1.0000
  Fe  Fe139     1.0  0.64356  0.09392  0.14560  1.0000
  S   S287      1.0  0.65102  0.11430  0.16714  1.0000
  Fe  Fe140     1.0  0.61078  0.07223  0.13187  1.0000
  S   S288      1.0  0.57796  0.06654  0.13534  1.0000
  S   S289      1.0  0.66546  0.08605  0.12010  1.0000
  S   S290      1.0  0.63080  0.06318  0.10549  1.0000
  Fe  Fe141     1.0  0.62697  0.20856  0.01372  1.0000
  C   C730      1.0  0.70547  0.27567  0.01111  1.0000
  S   S291      1.0  0.61057  0.19562  0.04197  1.0000
  H   H1158     1.0  0.56744  0.25139  0.02410  1.0000
  H   H1159     1.0  0.65702  0.14396  0.00485  1.0000
  H   H1160     1.0  0.59122  0.01606  0.05085  1.0000
  H   H1161     1.0  0.62317  0.03612  0.06490  1.0000
  H   H1162     1.0  0.87756  0.30162  0.00615  1.0000
  H   H1163     1.0  0.63662  0.01691  0.14464  1.0000
  C   C731      1.0  0.56679  0.20930  0.00255  1.0000
  N   N74       1.0  0.58400  0.09521  0.18630  1.0000
  Fe  Fe142     1.0  0.75527  0.13242  0.20746  1.0000
  S   S292      1.0  0.75527  0.16386  0.19377  1.0000
  S   S293      1.0  0.73511  0.11010  0.20067  1.0000
  Fe  Fe143     1.0  0.79509  0.13358  0.22535  1.0000
  S   S294      1.0  0.79809  0.16480  0.21153  1.0000
  C   C732      1.0  0.54775  0.04464  0.13016  1.0000
  H   H1164     1.0  0.73551  0.14205  0.16611  1.0000
  Fe  Fe144     1.0  0.78735  0.15570  0.18449  1.0000
  S   S295      1.0  0.79699  0.16306  0.15188  1.0000
  S   S296      1.0  0.78731  0.12382  0.19718  1.0000
  H   H1165     1.0  0.58494  0.22974  0.02474  1.0000
  Fe  Fe145     1.0  0.77977  0.30968  0.07581  1.0000
  S   S297      1.0  0.80973  0.29659  0.08324  1.0000
  C   C733      1.0  0.57699  0.02551  0.14128  1.0000
  Fe  Fe146     1.0  0.77318  0.27494  0.05370  1.0000
  S   S298      1.0  0.80326  0.25950  0.05987  1.0000
  S   S299      1.0  0.75664  0.25630  0.03653  1.0000
  Fe  Fe147     1.0  0.79589  0.26816  0.09062  1.0000
  S   S300      1.0  0.80417  0.25318  0.12020  1.0000
  Fe  Fe148     1.0  0.81456  0.28927  0.05210  1.0000
  S   S301      1.0  0.84310  0.29208  0.03196  1.0000
  S   S302      1.0  0.76524  0.28170  0.08535  1.0000
  S   S303      1.0  0.78527  0.30428  0.04369  1.0000
  H   H1166     1.0  0.78726  0.27350  0.01031  1.0000
  C   C734      1.0  0.75983  0.14081  0.12007  1.0000
  H   H1167     1.0  0.58906  0.99784  0.08411  1.0000
  H   H1168     1.0  0.56944  0.01504  0.09372  1.0000
  H   H1169     1.0  0.53984  0.05879  0.12576  1.0000
  N   N75       1.0  0.55789  0.22635  0.01301  1.0000
  H   H1170     1.0  0.74893  0.15083  0.11178  1.0000
  H   H1171     1.0  0.77747  0.12771  0.15301  1.0000
  H   H1172     1.0  0.60384  0.11770  0.18531  1.0000
  H   H1173     1.0  0.72973  0.15758  0.14411  1.0000
  C   C735      1.0  0.76553  0.11921  0.14980  1.0000
  H   H1174     1.0  0.65606  0.08915  0.01538  1.0000
  C   C736      1.0  0.60411  0.10145  0.18506  1.0000
  C   C737      1.0  0.58579  0.01212  0.09064  1.0000
  C   C738      1.0  0.80132  0.30265  0.14372  1.0000
  H   H1175     1.0  0.55546  0.19969  0.00015  1.0000
  H   H1176     1.0  0.55894  0.10044  0.16940  1.0000
  C   C739      1.0  0.86204  0.30696  0.03458  1.0000
  C   C740      1.0  0.87758  0.30885  0.01936  1.0000
  H   H1177     1.0  0.79045  0.28054  0.17751  1.0000
  H   H1178     1.0  0.61303  0.09782  0.17112  1.0000
  C   C741      1.0  0.57404  0.10505  0.16918  1.0000
  C   C742      1.0  0.86217  0.31660  0.05146  1.0000
  H   H1179     1.0  0.78718  0.26789  0.15684  1.0000
  H   H1180     1.0  0.85034  0.31530  0.06333  1.0000
  S   S304      1.0  0.65940  0.20381  0.00306  1.0000
  C   C743      1.0  0.57353  0.23850  0.01602  1.0000
  C   C744      1.0  0.79787  0.18830  0.14319  1.0000
  C   C745      1.0  0.79905  0.20222  0.15622  1.0000
  C   C746      1.0  0.80085  0.22206  0.14893  1.0000
  C   C747      1.0  0.80086  0.22828  0.12864  1.0000
  C   C748      1.0  0.79922  0.21447  0.11560  1.0000
  C   C749      1.0  0.79798  0.19447  0.12286  1.0000
  H   H1181     1.0  0.79902  0.19760  0.17189  1.0000
  H   H1182     1.0  0.80230  0.23257  0.15911  1.0000
  H   H1183     1.0  0.79926  0.21909  0.09994  1.0000
  H   H1184     1.0  0.79710  0.18375  0.11270  1.0000
  C   C750      1.0  0.89323  0.32996  0.03770  1.0000
  H   H1185     1.0  0.52350  0.02804  0.12654  1.0000
  H   H1186     1.0  0.70232  0.22623  0.01436  1.0000
  C   C751      1.0  0.89298  0.32044  0.02081  1.0000
  H   H1187     1.0  0.84727  0.10970  0.22052  1.0000
  H   H1188     1.0  0.88197  0.09566  0.22449  1.0000
  H   H1189     1.0  0.54113  0.23159  0.04080  1.0000
  C   C752      1.0  0.58866  0.04715  0.08638  1.0000
  C   C753      1.0  0.69785  0.25794  0.00875  1.0000
  C   C754      1.0  0.70792  0.24003  0.01592  1.0000
  C   C755      1.0  0.72559  0.23990  0.02473  1.0000
  C   C756      1.0  0.73316  0.25762  0.02718  1.0000
  C   C757      1.0  0.72282  0.27556  0.02050  1.0000
  H   H1190     1.0  0.90474  0.32187  0.00886  1.0000
  C   C758      1.0  0.87785  0.32778  0.05311  1.0000
  H   H1191     1.0  0.63998  0.10721  0.02817  1.0000
  H   H1192     1.0  0.72838  0.28934  0.02211  1.0000
  H   H1193     1.0  0.62985  0.01715  0.02204  1.0000
  H   H1194     1.0  0.73346  0.22592  0.02976  1.0000
  C   C759      1.0  0.67500  0.11346  0.17516  1.0000
  C   C760      1.0  0.68815  0.09622  0.17541  1.0000
  C   C761      1.0  0.70635  0.09552  0.18338  1.0000
  C   C762      1.0  0.71198  0.11217  0.19065  1.0000
  C   C763      1.0  0.69911  0.12963  0.18985  1.0000
  C   C764      1.0  0.68062  0.13016  0.18240  1.0000
  H   H1195     1.0  0.68404  0.08320  0.17006  1.0000
  H   H1196     1.0  0.71611  0.08190  0.18398  1.0000
  H   H1197     1.0  0.70311  0.14253  0.19551  1.0000
  H   H1198     1.0  0.67055  0.14355  0.18239  1.0000
  C   C765      1.0  0.63691  0.13357  0.06454  1.0000
  C   C766      1.0  0.64680  0.14464  0.04870  1.0000
  C   C767      1.0  0.63890  0.16373  0.04199  1.0000
  C   C768      1.0  0.62107  0.17203  0.05114  1.0000
  C   C769      1.0  0.61137  0.16120  0.06739  1.0000
  C   C770      1.0  0.61928  0.14197  0.07410  1.0000
  H   H1199     1.0  0.66069  0.13844  0.04163  1.0000
  H   H1200     1.0  0.64662  0.17199  0.02969  1.0000
  H   H1201     1.0  0.59762  0.16757  0.07463  1.0000
  H   H1202     1.0  0.61153  0.13351  0.08633  1.0000
  N   N76       1.0  0.75046  0.13208  0.13917  1.0000
  H   H1203     1.0  0.61238  0.09405  0.19743  1.0000
  C   C771      1.0  0.65762  0.01170  0.11932  1.0000
  H   H1204     1.0  0.76150  0.30196  0.00729  1.0000
  S   S305      1.0  0.76290  0.13965  0.23682  1.0000
  N   N77       1.0  0.78093  0.29948  0.15225  1.0000
  H   H1205     1.0  0.67509  0.00461  0.09239  1.0000
  C   C772      1.0  0.61617  0.02447  0.07520  1.0000
  C   C773      1.0  0.78114  0.28060  0.16523  1.0000
  H   H1206     1.0  0.69794  0.28963  0.00552  1.0000
  C   C774      1.0  0.58529  0.07353  0.18612  1.0000
  H   H1207     1.0  0.76817  0.31267  0.12590  1.0000
  H   H1208     1.0  0.57231  0.05062  0.08859  1.0000
  H   H1209     1.0  0.76646  0.12918  0.11055  1.0000
  H   H1210     1.0  0.55875  0.21001  0.04174  1.0000
  C   C775      1.0  0.77272  0.31593  0.16390  1.0000
  S   S306      1.0  0.75629  0.19903  0.23527  1.0000
  H   H1211     1.0  0.75737  0.31399  0.17065  1.0000
  C   C776      1.0  0.63852  0.00702  0.01265  1.0000
  H   H1212     1.0  0.66573  0.11015  0.02256  1.0000
  H   H1213     1.0  0.59366  0.06882  0.17227  1.0000
  H   H1214     1.0  0.61808  0.11161  0.00078  1.0000
  C   C777      1.0  0.64421  0.13777  0.00015  1.0000
  C   C778      1.0  0.54814  0.00875  0.13678  1.0000
  C   C779      1.0  0.76856  0.29874  0.13612  1.0000
  H   H1215     1.0  0.57131  0.11708  0.20542  1.0000
  H   H1216     1.0  0.76599  0.27768  0.17189  1.0000
  H   H1217     1.0  0.85436  0.16817  0.22806  1.0000
  H   H1218     1.0  0.80164  0.31669  0.13377  1.0000
  H   H1219     1.0  0.53616  0.20976  0.03081  1.0000
  N   N78       1.0  0.59437  0.02842  0.07753  1.0000
  H   H1220     1.0  0.77257  0.10707  0.14111  1.0000
  H   H1221     1.0  0.80799  0.29050  0.13485  1.0000
  N   N79       1.0  0.86508  0.24815  0.07649  1.0000
  C   C780      1.0  0.86406  0.26955  0.07820  1.0000
  C   C781      1.0  0.86263  0.24515  0.05594  1.0000
  C   C782      1.0  0.84916  0.23951  0.09012  1.0000
  C   C783      1.0  0.88450  0.23846  0.08167  1.0000
  H   H1222     1.0  0.86545  0.27251  0.09356  1.0000
  H   H1223     1.0  0.84978  0.27734  0.07393  1.0000
  H   H1224     1.0  0.87600  0.27654  0.06824  1.0000
  H   H1225     1.0  0.84793  0.25190  0.05170  1.0000
  H   H1226     1.0  0.87392  0.25220  0.04516  1.0000
  H   H1227     1.0  0.86381  0.22918  0.05387  1.0000
  H   H1228     1.0  0.83431  0.24654  0.08668  1.0000
  H   H1229     1.0  0.85038  0.24159  0.10579  1.0000
  H   H1230     1.0  0.84934  0.22337  0.08923  1.0000
  H   H1231     1.0  0.88577  0.22226  0.08061  1.0000
  H   H1232     1.0  0.88686  0.24056  0.09706  1.0000
  H   H1233     1.0  0.89682  0.24463  0.07161  1.0000
  C   C784      1.0  0.73468  0.12028  0.13569  1.0000
  C   C785      1.0  0.74182  0.14809  0.15118  1.0000
  H   H1234     1.0  0.72738  0.11358  0.14989  1.0000
  H   H1235     1.0  0.75897  0.11224  0.16423  1.0000
  H   H1236     1.0  0.74062  0.10798  0.12674  1.0000
  H   H1237     1.0  0.75320  0.15782  0.15325  1.0000
  H   H1238     1.0  0.59180  0.02466  0.14557  1.0000
  H   H1239     1.0  0.72292  0.12953  0.12785  1.0000
  H   H1240     1.0  0.77190  0.14968  0.12235  1.0000
  H   H1241     1.0  0.75303  0.29642  0.14193  1.0000
  H   H1242     1.0  0.58236  0.10115  0.15498  1.0000
  H   H1243     1.0  0.62231  0.02408  0.08959  1.0000
  H   H1244     1.0  0.59408  0.04632  0.10116  1.0000
  H   H1245     1.0  0.59197  0.00989  0.10514  1.0000
  C   C786      1.0  0.56751  0.00810  0.14209  1.0000
  H   H1246     1.0  0.57279  0.12143  0.16877  1.0000
  H   H1247     1.0  0.57974  0.09363  0.21799  1.0000
  C   C787      1.0  0.56710  0.04395  0.13551  1.0000
  H   H1248     1.0  0.81109  0.30344  0.15542  1.0000
  C   C788      1.0  0.53842  0.02718  0.13056  1.0000
  H   H1249     1.0  0.59293  0.04223  0.04780  1.0000
  H   H1250     1.0  0.63138  0.14031  0.01147  1.0000
  H   H1251     1.0  0.78052  0.31828  0.00033  1.0000
  H   H1252     1.0  0.83387  0.15384  0.23538  1.0000
  H   H1253     1.0  0.58115  0.24442  0.00165  1.0000
  C   C789      1.0  0.85213  0.10640  0.23513  1.0000
  C   C790      1.0  0.57256  0.10080  0.20482  1.0000
  Fe  Fe149     1.0  0.76584  0.17036  0.22193  1.0000
  H   H1254     1.0  0.77433  0.28643  0.12711  1.0000
  H   H1255     1.0  0.57038  0.06829  0.18688  1.0000
  C   C791      1.0  0.65281  0.10527  0.01671  1.0000
  C   C792      1.0  0.64012  0.00908  0.13166  1.0000
  H   H1256     1.0  0.59289  0.06554  0.19868  1.0000
  C   C793      1.0  0.87181  0.09845  0.23743  1.0000
  H   H1257     1.0  0.55730  0.09629  0.20624  1.0000
  H   H1258     1.0  0.78185  0.31705  0.17608  1.0000
  C   C794      1.0  0.58689  0.02992  0.05798  1.0000
  C   C795      1.0  0.54340  0.23846  0.00101  1.0000
  C   C796      1.0  0.54798  0.21912  0.03244  1.0000
  S   S307      1.0  0.62402  0.24114  0.00374  1.0000
  H   H1259     1.0  0.59499  0.05984  0.07709  1.0000
  H   H1260     1.0  0.57802  0.19998  0.01110  1.0000
  C   C797      1.0  0.66194  0.00195  0.10234  1.0000
  H   H1261     1.0  0.57046  0.03267  0.05929  1.0000
  H   H1262     1.0  0.77227  0.33035  0.15450  1.0000
  H   H1263     1.0  0.62105  0.00996  0.06944  1.0000
  H   H1264     1.0  0.53644  0.25155  0.00836  1.0000
  C   C798      1.0  0.84643  0.15976  0.24087  1.0000
  H   H1265     1.0  0.80640  0.28963  0.00309  1.0000
  H   H1266     1.0  0.53142  0.22976  0.99831  1.0000
  H   H1267     1.0  0.83308  0.19806  0.23660  1.0000
  H   H1268     1.0  0.81240  0.18420  0.24485  1.0000
  H   H1269     1.0  0.85669  0.14681  0.24596  1.0000
  C   C799      1.0  0.79611  0.28074  0.99735  1.0000
  N   N80       1.0  0.64878  0.11656  0.99756  1.0000
  C   C800      1.0  0.74416  0.31411  0.40092  1.0000
  H   H1270     1.0  0.56228  0.31050  0.42416  1.0000
  Fe  Fe150     1.0  0.92940  0.17268  0.46354  1.0000
  S   S308      1.0  0.94585  0.19935  0.45373  1.0000
  C   C801      1.0  0.54538  0.32405  0.44834  1.0000
  Fe  Fe151     1.0  0.95121  0.14881  0.43124  1.0000
  S   S309      1.0  0.96964  0.17335  0.41914  1.0000
  S   S310      1.0  0.94989  0.11870  0.42111  1.0000
  Fe  Fe152     1.0  0.97296  0.17715  0.45108  1.0000
  H   H1271     1.0  0.86083  0.00685  0.29133  1.0000
  Fe  Fe153     1.0  0.94092  0.19322  0.42293  1.0000
  S   S311      1.0  0.93110  0.21428  0.39657  1.0000
  S   S312      1.0  0.95642  0.15097  0.46259  1.0000
  S   S313      1.0  0.92270  0.16823  0.43332  1.0000
  Fe  Fe154     1.0  0.93844  0.08152  0.32080  1.0000
  S   S314      1.0  0.94856  0.06915  0.29172  1.0000
  S   S315      1.0  0.95475  0.10505  0.33057  1.0000
  Fe  Fe155     1.0  0.90512  0.05564  0.33003  1.0000
  S   S316      1.0  0.91265  0.04142  0.30196  1.0000
  C   C802      1.0  0.91703  0.08026  0.48202  1.0000
  Fe  Fe156     1.0  0.94429  0.03939  0.30888  1.0000
  H   H1272     1.0  0.75923  0.06003  0.47203  1.0000
  Fe  Fe157     1.0  0.91590  0.07225  0.28771  1.0000
  S   S317      1.0  0.93615  0.05179  0.33805  1.0000
  S   S318      1.0  0.90638  0.08666  0.31549  1.0000
  Fe  Fe158     1.0  0.80574  0.23575  0.31859  1.0000
  S   S319      1.0  0.79741  0.23792  0.35083  1.0000
  S   S320      1.0  0.80305  0.20627  0.30789  1.0000
  Fe  Fe159     1.0  0.81838  0.27697  0.31227  1.0000
  S   S321      1.0  0.81113  0.28224  0.34444  1.0000
  S   S322      1.0  0.83297  0.29714  0.28747  1.0000
  Fe  Fe160     1.0  0.82588  0.25117  0.35097  1.0000
  S   S323      1.0  0.84132  0.23844  0.37837  1.0000
  Fe  Fe161     1.0  0.78326  0.26844  0.34203  1.0000
  S   S324      1.0  0.75290  0.27447  0.35929  1.0000
  S   S325      1.0  0.83515  0.24694  0.31906  1.0000
  S   S326      1.0  0.78954  0.26524  0.30950  1.0000
  H   H1273     1.0  0.76888  0.03436  0.47327  1.0000
  H   H1274     1.0  0.88602  0.02491  0.40596  1.0000
  H   H1275     1.0  0.97578  0.04056  0.35551  1.0000
  C   C803      1.0  0.94739  0.09409  0.46884  1.0000
  H   H1276     1.0  0.99074  0.05260  0.36931  1.0000
  C   C804      1.0  0.87837  0.09388  0.25632  1.0000
  H   H1277     1.0  0.98042  0.04455  0.31918  1.0000
  H   H1278     1.0  0.76739  0.23301  0.25062  1.0000
  C   C805      1.0  0.80066  0.32475  0.28214  1.0000
  N   N81       1.0  0.85262  0.03708  0.28025  1.0000
  C   C806      1.0  0.84930  0.02043  0.39896  1.0000
  C   C807      1.0  0.81927  0.31680  0.27433  1.0000
  C   C808      1.0  0.98394  0.05376  0.35520  1.0000
  H   H1279     1.0  0.84096  0.03278  0.35546  1.0000
  H   H1280     1.0  0.71455  0.30522  0.42881  1.0000
  H   H1281     1.0  0.85160  0.18906  0.27625  1.0000
  H   H1282     1.0  0.84129  0.02800  0.41148  1.0000
  N   N82       1.0  0.86435  0.00465  0.40580  1.0000
  C   C809      1.0  0.80299  0.02320  0.42890  1.0000
  H   H1283     1.0  0.84436  0.16718  0.49448  1.0000
  H   H1284     1.0  0.53314  0.31536  0.44837  1.0000
  C   C810      1.0  0.73262  0.29181  0.35354  1.0000
  C   C811      1.0  0.73341  0.30570  0.33683  1.0000
  C   C812      1.0  0.71692  0.31958  0.33345  1.0000
  C   C813      1.0  0.69973  0.31984  0.34691  1.0000
  C   C814      1.0  0.69893  0.30580  0.36347  1.0000
  C   C815      1.0  0.71522  0.29176  0.36665  1.0000
  H   H1285     1.0  0.74673  0.30588  0.32662  1.0000
  H   H1286     1.0  0.95496  0.10776  0.46481  1.0000
  C   C816      1.0  0.85648  0.17961  0.26404  1.0000
  H   H1287     1.0  0.72818  0.05081  0.49151  1.0000
  N   N83       1.0  0.83941  0.17224  0.25697  1.0000
  C   C817      1.0  0.83876  0.10969  0.25176  1.0000
  H   H1288     1.0  0.90123  0.08335  0.48796  1.0000
  S   S327      1.0  0.87924  0.04719  0.35135  1.0000
  H   H1289     1.0  0.70548  0.30829  0.40497  1.0000
  C   C818      1.0  0.85164  0.02219  0.34842  1.0000
  H   H1290     1.0  0.87105  0.02038  0.42908  1.0000
  C   C819      1.0  0.86216  0.13071  0.47436  1.0000
  H   H1291     1.0  0.84401  0.04492  0.30979  1.0000
  H   H1292     1.0  0.97881  0.07097  0.31836  1.0000
  C   C820      1.0  0.88837  0.15527  0.48483  1.0000
  C   C821      1.0  0.88138  0.15871  0.46625  1.0000
  C   C822      1.0  0.86829  0.14646  0.46101  1.0000
  H   H1293     1.0  0.94834  0.08672  0.45506  1.0000
  H   H1294     1.0  0.88601  0.17090  0.45591  1.0000
  H   H1295     1.0  0.86324  0.14895  0.44644  1.0000
  C   C823      1.0  0.90608  0.22112  0.39176  1.0000
  C   C824      1.0  0.89023  0.21561  0.40533  1.0000
  C   C825      1.0  0.87061  0.22103  0.40089  1.0000
  C   C826      1.0  0.86648  0.23188  0.38279  1.0000
  C   C827      1.0  0.88233  0.23724  0.36910  1.0000
  C   C828      1.0  0.90200  0.23197  0.37363  1.0000
  H   H1296     1.0  0.89308  0.20738  0.41937  1.0000
  H   H1297     1.0  0.85849  0.21689  0.41162  1.0000
  H   H1298     1.0  0.87942  0.24569  0.35518  1.0000
  H   H1299     1.0  0.91412  0.23639  0.36304  1.0000
  C   C829      1.0  0.95040  0.11585  0.39580  1.0000
  C   C830      1.0  0.94214  0.09973  0.39035  1.0000
  C   C831      1.0  0.94296  0.09654  0.37036  1.0000
  C   C832      1.0  0.95253  0.10917  0.35571  1.0000
  C   C833      1.0  0.96076  0.12532  0.36114  1.0000
  C   C834      1.0  0.95947  0.12881  0.38111  1.0000
  H   H1300     1.0  0.93505  0.08967  0.40165  1.0000
  H   H1301     1.0  0.93638  0.08418  0.36634  1.0000
  H   H1302     1.0  0.96822  0.13514  0.34987  1.0000
  H   H1303     1.0  0.96604  0.14118  0.38518  1.0000
  C   C835      1.0  0.82885  0.16042  0.27350  1.0000
  C   C836      1.0  0.77415  0.18454  0.26858  1.0000
  C   C837      1.0  0.78394  0.18645  0.28500  1.0000
  C   C838      1.0  0.78846  0.20500  0.28870  1.0000
  C   C839      1.0  0.78230  0.22185  0.27642  1.0000
  H   H1304     1.0  0.86035  0.06078  0.29482  1.0000
  H   H1305     1.0  0.77110  0.17009  0.26561  1.0000
  H   H1306     1.0  0.78829  0.17340  0.29470  1.0000
  H   H1307     1.0  0.78595  0.23620  0.27902  1.0000
  C   C840      1.0  0.56197  0.32131  0.43453  1.0000
  C   C841      1.0  0.86508  0.09758  0.27290  1.0000
  C   C842      1.0  0.84538  0.10526  0.27063  1.0000
  H   H1308     1.0  0.86997  0.09441  0.28751  1.0000
  H   H1309     1.0  0.83516  0.10777  0.28361  1.0000
  C   C843      1.0  0.87154  0.02565  0.34475  1.0000
  Fe  Fe162     1.0  0.83615  0.09209  0.49062  1.0000
  C   C844      1.0  0.76821  0.20130  0.25612  1.0000
  S   S328      1.0  0.84747  0.11443  0.46671  1.0000
  H   H1310     1.0  0.83001  0.00251  0.34544  1.0000
  H   H1311     1.0  0.79959  0.03409  0.41663  1.0000
  H   H1312     1.0  0.92218  0.12619  0.45840  1.0000
  H   H1313     1.0  0.90079  0.01404  0.33356  1.0000
  H   H1314     1.0  0.80248  0.15611  0.49379  1.0000
  H   H1315     1.0  0.80681  0.04514  0.44807  1.0000
  H   H1316     1.0  0.84428  0.00985  0.27252  1.0000
  H   H1317     1.0  0.83800  0.01440  0.39154  1.0000
  N   N84       1.0  0.92663  0.09873  0.47699  1.0000
  H   H1318     1.0  0.57694  0.31841  0.48832  1.0000
  H   H1319     1.0  0.74917  0.30299  0.41301  1.0000
  H   H1320     1.0  0.84199  0.31899  0.24981  1.0000
  S   S329      1.0  0.80625  0.08275  0.48844  1.0000
  H   H1321     1.0  0.98762  0.20620  0.48867  1.0000
  N   N85       1.0  0.73525  0.23646  0.32086  1.0000
  C   C845      1.0  0.75262  0.22806  0.33113  1.0000
  C   C846      1.0  0.73060  0.22220  0.30792  1.0000
  C   C847      1.0  0.73968  0.25510  0.30877  1.0000
  C   C848      1.0  0.71819  0.24053  0.33568  1.0000
  H   H1322     1.0  0.75609  0.23807  0.34159  1.0000
  H   H1323     1.0  0.76600  0.22569  0.32049  1.0000
  H   H1324     1.0  0.75026  0.21355  0.33976  1.0000
  H   H1325     1.0  0.71775  0.22813  0.29967  1.0000
  H   H1326     1.0  0.74334  0.21863  0.29678  1.0000
  H   H1327     1.0  0.72709  0.20798  0.31656  1.0000
  H   H1328     1.0  0.74373  0.26600  0.31805  1.0000
  H   H1329     1.0  0.72675  0.26212  0.30115  1.0000
  H   H1330     1.0  0.75226  0.25252  0.29719  1.0000
  H   H1331     1.0  0.72135  0.25131  0.34558  1.0000
  H   H1332     1.0  0.71455  0.22683  0.34521  1.0000
  H   H1333     1.0  0.70477  0.24691  0.32850  1.0000
  N   N86       1.0  0.90694  0.16732  0.36681  1.0000
  C   C849      1.0  0.92518  0.17647  0.35889  1.0000
  C   C850      1.0  0.88947  0.18087  0.36152  1.0000
  C   C851      1.0  0.90626  0.16352  0.38854  1.0000
  C   C852      1.0  0.90687  0.14845  0.35839  1.0000
  H   H1334     1.0  0.93863  0.16679  0.36292  1.0000
  H   H1335     1.0  0.92561  0.19082  0.36490  1.0000
  H   H1336     1.0  0.92636  0.17946  0.34250  1.0000
  H   H1337     1.0  0.87541  0.17453  0.36732  1.0000
  H   H1338     1.0  0.88901  0.19516  0.36783  1.0000
  H   H1339     1.0  0.88956  0.18431  0.34523  1.0000
  H   H1340     1.0  0.89262  0.15684  0.39519  1.0000
  H   H1341     1.0  0.90651  0.17749  0.39526  1.0000
  H   H1342     1.0  0.91921  0.15330  0.39310  1.0000
  H   H1343     1.0  0.89316  0.14132  0.36382  1.0000
  H   H1344     1.0  0.91957  0.13775  0.36255  1.0000
  H   H1345     1.0  0.90793  0.15063  0.34195  1.0000
  C   C853      1.0  0.92608  0.10882  0.49498  1.0000
  H   H1346     1.0  0.81543  0.15520  0.26891  1.0000
  H   H1347     1.0  0.83190  0.04334  0.25845  1.0000
  S   S330      1.0  0.81561  0.02268  0.48612  1.0000
  H   H1348     1.0  0.86697  0.16717  0.26979  1.0000
  S   S331      1.0  0.81368  0.11924  0.25009  1.0000
  H   H1349     1.0  0.79413  0.31843  0.29630  1.0000
  C   C854      1.0  0.84542  0.00517  0.34262  1.0000
  H   H1350     1.0  0.91667  0.10493  0.44799  1.0000
  H   H1351     1.0  0.83533  0.01529  0.29721  1.0000
  H   H1352     1.0  0.86969  0.03663  0.30460  1.0000
  H   H1353     1.0  0.82211  0.04919  0.28282  1.0000
  H   H1354     1.0  0.86479  0.18866  0.25198  1.0000
  C   C855      1.0  0.91594  0.11174  0.46205  1.0000
  C   C856      1.0  0.71045  0.31634  0.41635  1.0000
  H   H1355     1.0  0.97283  0.06701  0.35490  1.0000
  C   C857      1.0  0.83556  0.04909  0.27195  1.0000
  S   S332      1.0  0.90718  0.16835  0.49026  1.0000
  C   C858      1.0  0.85680  0.04524  0.29814  1.0000
  C   C859      1.0  0.86850  0.12774  0.49328  1.0000
  S   S333      1.0  0.96165  0.00859  0.31105  1.0000
  H   H1356     1.0  0.90011  0.11488  0.46731  1.0000
  H   H1357     1.0  0.68564  0.30560  0.37370  1.0000
  C   C860      1.0  0.80358  0.00296  0.42660  1.0000
  C   C861      1.0  0.84804  0.01641  0.28551  1.0000
  C   C862      1.0  0.87017  0.03761  0.26545  1.0000
  H   H1358     1.0  0.82087  0.19928  0.26113  1.0000
  H   H1359     1.0  0.71441  0.28088  0.37948  1.0000
  H   H1360     1.0  0.88341  0.02894  0.27134  1.0000
  C   C863      1.0  0.76730  0.04788  0.48114  1.0000
  C   C864      1.0  0.77195  0.22001  0.26028  1.0000
  C   C865      1.0  0.87859  0.01331  0.41600  1.0000
  H   H1361     1.0  0.78248  0.05197  0.48146  1.0000
  H   H1362     1.0  0.88367  0.00594  0.37870  1.0000
  C   C866      1.0  0.80708  0.02953  0.44675  1.0000
  C   C867      1.0  0.88526  0.01195  0.33557  1.0000
  H   H1363     1.0  0.83862  0.06475  0.26771  1.0000
  H   H1364     1.0  0.82402  0.16917  0.28623  1.0000
  S   S334      1.0  0.59800  0.32774  0.41534  1.0000
  C   C868      1.0  0.81125  0.01567  0.46284  1.0000
  H   H1365     1.0  0.86765  0.03148  0.25175  1.0000
  H   H1366     1.0  0.69746  0.32619  0.42209  1.0000
  H   H1367     1.0  0.95598  0.08423  0.47959  1.0000
  H   H1368     1.0  0.83835  0.14705  0.27894  1.0000
  S   S335      1.0  0.90297  0.08291  0.25855  1.0000
  C   C869      1.0  0.98914  0.05721  0.31959  1.0000
  H   H1369     1.0  0.87403  0.05299  0.26112  1.0000
  H   H1370     1.0  0.82294  0.18427  0.49078  1.0000
  H   H1371     1.0  0.89025  0.00184  0.42124  1.0000
  H   H1372     1.0  0.91728  0.07225  0.46877  1.0000
  H   H1373     1.0  0.85610  0.03190  0.38824  1.0000
  H   H1374     1.0  0.74037  0.30577  0.38917  1.0000
  H   H1375     1.0  0.73777  0.02519  0.49274  1.0000
  H   H1376     1.0  0.92452  0.07014  0.49345  1.0000
  H   H1377     1.0  0.73759  0.32802  0.43645  1.0000
  C   C870      1.0  0.82764  0.32518  0.25596  1.0000
  H   H1378     1.0  0.75701  0.32220  0.39448  1.0000
  H   H1379     1.0  0.93157  0.12368  0.49151  1.0000
  N   N87       1.0  0.72716  0.32773  0.40809  1.0000
  C   C871      1.0  0.82588  0.18919  0.24954  1.0000
  C   C872      1.0  0.98702  0.99884  0.30922  1.0000
  H   H1380     1.0  0.71761  0.33030  0.32051  1.0000
  H   H1381     1.0  0.63222  0.33054  0.47431  1.0000
  H   H1382     1.0  0.79334  0.18342  0.51528  1.0000
  S   S336      1.0  0.95795  0.09439  0.65765  1.0000
  Fe  Fe163     1.0  0.93578  0.10160  0.60726  1.0000
  S   S337      1.0  0.92501  0.08064  0.63295  1.0000
  S   S338      1.0  0.92545  0.10629  0.57662  1.0000
  Fe  Fe164     1.0  0.92675  0.10539  0.65164  1.0000
  S   S339      1.0  0.90438  0.11566  0.67675  1.0000
  Fe  Fe165     1.0  0.95749  0.07206  0.63621  1.0000
  C   C873      1.0  0.94717  0.05028  0.58971  1.0000
  S   S340      1.0  0.93510  0.12680  0.62556  1.0000
  S   S341      1.0  0.96805  0.09193  0.60952  1.0000
  H   H1383     1.0  0.97311  0.16500  0.66171  1.0000
  C   C874      1.0  0.52428  0.25455  0.68786  1.0000
  S   S342      1.0  0.96887  0.03926  0.63940  1.0000
  Fe  Fe166     1.0  0.80095  0.08699  0.52082  1.0000
  S   S343      1.0  0.82990  0.09856  0.52214  1.0000
  S   S344      1.0  0.77237  0.10386  0.53293  1.0000
  C   C875      1.0  0.60149  0.30743  0.51604  1.0000
  H   H1384     1.0  0.88647  0.13781  0.51317  1.0000
  Fe  Fe167     1.0  0.84166  0.06689  0.52901  1.0000
  S   S345      1.0  0.85975  0.05704  0.55467  1.0000
  C   C876      1.0  0.95281  0.01484  0.59680  1.0000
  S   S346      1.0  0.81202  0.05540  0.52993  1.0000
  H   H1385     1.0  0.95728  0.05030  0.57576  1.0000
  H   H1386     1.0  0.98747  0.99949  0.63776  1.0000
  H   H1387     1.0  0.98999  0.13669  0.58114  1.0000
  Fe  Fe168     1.0  0.83562  0.24625  0.72797  1.0000
  H   H1388     1.0  0.55444  0.32078  0.50459  1.0000
  S   S347      1.0  0.80428  0.25153  0.71960  1.0000
  C   C877      1.0  0.71071  0.30772  0.59648  1.0000
  Fe  Fe169     1.0  0.87487  0.22112  0.72146  1.0000
  S   S348      1.0  0.89471  0.20450  0.69825  1.0000
  N   N88       1.0  0.96198  0.15358  0.69104  1.0000
  S   S349      1.0  0.86475  0.25274  0.71084  1.0000
  Fe  Fe170     1.0  0.76149  0.19486  0.60182  1.0000
  S   S350      1.0  0.76424  0.22703  0.59157  1.0000
  S   S351      1.0  0.78118  0.16903  0.58946  1.0000
  Fe  Fe171     1.0  0.73633  0.20481  0.64014  1.0000
  S   S352      1.0  0.73721  0.23755  0.63326  1.0000
  S   S353      1.0  0.72378  0.19108  0.66975  1.0000
  Fe  Fe172     1.0  0.73193  0.23213  0.60272  1.0000
  S   S354      1.0  0.70803  0.25066  0.58640  1.0000
  Fe  Fe173     1.0  0.76925  0.22997  0.62293  1.0000
  S   S355      1.0  0.79487  0.24503  0.62975  1.0000
  S   S356      1.0  0.72864  0.19950  0.61047  1.0000
  S   S357      1.0  0.76882  0.19775  0.63239  1.0000
  Fe  Fe174     1.0  0.62089  0.19611  0.72347  1.0000
  C   C878      1.0  0.50302  0.28472  0.69224  1.0000
  S   S358      1.0  0.63127  0.19143  0.69164  1.0000
  H   H1389     1.0  0.84460  0.14286  0.52434  1.0000
  C   C879      1.0  0.54370  0.27767  0.73138  1.0000
  S   S359      1.0  0.62056  0.22660  0.73225  1.0000
  H   H1390     1.0  0.51898  0.32784  0.58066  1.0000
  S   S360      1.0  0.89531  0.28203  0.74517  1.0000
  C   C880      1.0  0.85350  0.17841  0.66289  1.0000
  H   H1391     1.0  0.97458  0.18836  0.56069  1.0000
  C   C881      1.0  0.69801  0.19164  0.67534  1.0000
  C   C882      1.0  0.68555  0.19126  0.66062  1.0000
  C   C883      1.0  0.66507  0.19092  0.66576  1.0000
  C   C884      1.0  0.65696  0.19144  0.68551  1.0000
  C   C885      1.0  0.66942  0.19215  0.70010  1.0000
  C   C886      1.0  0.68991  0.19195  0.69506  1.0000
  H   H1392     1.0  0.69168  0.19097  0.64537  1.0000
  H   H1393     1.0  0.65545  0.19030  0.65445  1.0000
  H   H1394     1.0  0.66332  0.19266  0.71535  1.0000
  H   H1395     1.0  0.69946  0.19221  0.70652  1.0000
  C   C887      1.0  0.70414  0.27671  0.58584  1.0000
  C   C888      1.0  0.71510  0.28713  0.59627  1.0000
  H   H1396     1.0  0.81387  0.18832  0.66651  1.0000
  C   C889      1.0  0.68903  0.28710  0.57535  1.0000
  H   H1397     1.0  0.72683  0.27932  0.60433  1.0000
  H   H1398     1.0  0.74806  0.06065  0.52652  1.0000
  H   H1399     1.0  0.68050  0.27916  0.56722  1.0000
  C   C890      1.0  0.80146  0.25025  0.69458  1.0000
  C   C891      1.0  0.78428  0.24359  0.68952  1.0000
  C   C892      1.0  0.78198  0.24209  0.66963  1.0000
  C   C893      1.0  0.79666  0.24771  0.65470  1.0000
  C   C894      1.0  0.81359  0.25484  0.65976  1.0000
  C   C895      1.0  0.81610  0.25588  0.67965  1.0000
  H   H1400     1.0  0.77287  0.23930  0.70100  1.0000
  H   H1401     1.0  0.76888  0.23658  0.66586  1.0000
  H   H1402     1.0  0.82490  0.25941  0.64825  1.0000
  H   H1403     1.0  0.82922  0.26137  0.68342  1.0000
  C   C896      1.0  0.77731  0.15059  0.57471  1.0000
  C   C897      1.0  0.76016  0.15101  0.56532  1.0000
  C   C898      1.0  0.75859  0.13645  0.55276  1.0000
  C   C899      1.0  0.77415  0.12150  0.54945  1.0000
  C   C900      1.0  0.79102  0.12091  0.55924  1.0000
  C   C901      1.0  0.79256  0.13533  0.57179  1.0000
  H   H1404     1.0  0.74831  0.16272  0.56739  1.0000
  H   H1405     1.0  0.74542  0.13699  0.54532  1.0000
  H   H1406     1.0  0.80291  0.10923  0.55726  1.0000
  H   H1407     1.0  0.80580  0.13475  0.57914  1.0000
  C   C902      1.0  0.65191  0.25757  0.64844  1.0000
  H   H1408     1.0  0.97955  0.15958  0.54121  1.0000
  H   H1409     1.0  0.56852  0.29709  0.50330  1.0000
  H   H1410     1.0  0.64384  0.24460  0.65468  1.0000
  C   C903      1.0  0.90030  0.14068  0.68197  1.0000
  C   C904      1.0  0.90811  0.15584  0.66895  1.0000
  C   C905      1.0  0.90559  0.17539  0.67395  1.0000
  C   C906      1.0  0.89525  0.18007  0.69202  1.0000
  C   C907      1.0  0.88679  0.16509  0.70481  1.0000
  C   C908      1.0  0.88931  0.14549  0.69977  1.0000
  H   H1411     1.0  0.91633  0.15249  0.65510  1.0000
  H   H1412     1.0  0.91203  0.18691  0.66389  1.0000
  H   H1413     1.0  0.87883  0.16847  0.71881  1.0000
  H   H1414     1.0  0.88312  0.13389  0.70992  1.0000
  C   C909      1.0  0.90577  0.09402  0.57115  1.0000
  C   C910      1.0  0.89630  0.08095  0.58542  1.0000
  C   C911      1.0  0.88190  0.07002  0.58025  1.0000
  C   C912      1.0  0.87649  0.07243  0.56091  1.0000
  C   C913      1.0  0.88536  0.08611  0.54679  1.0000
  C   C914      1.0  0.90007  0.09677  0.55188  1.0000
  H   H1415     1.0  0.90016  0.07919  0.60040  1.0000
  H   H1416     1.0  0.87490  0.05964  0.59128  1.0000
  H   H1417     1.0  0.88122  0.08810  0.53186  1.0000
  H   H1418     1.0  0.90716  0.10708  0.54087  1.0000
  H   H1419     1.0  0.95609  0.05239  0.60170  1.0000
  H   H1420     1.0  0.93124  0.15835  0.70175  1.0000
  N   N89       1.0  0.50654  0.26696  0.68149  1.0000
  H   H1421     1.0  0.73855  0.13551  0.61110  1.0000
  C   C915      1.0  0.99034  0.18524  0.56366  1.0000
  C   C916      1.0  0.51773  0.32530  0.61235  1.0000
  C   C917      1.0  0.83174  0.15195  0.53124  1.0000
  H   H1422     1.0  0.96907  0.15452  0.57708  1.0000
  H   H1423     1.0  0.80256  0.13832  0.51529  1.0000
  H   H1424     1.0  0.83792  0.18663  0.51009  1.0000
  N   N90       1.0  0.81949  0.16275  0.51622  1.0000
  H   H1425     1.0  0.91658  0.01892  0.61654  1.0000
  C   C918      1.0  0.52640  0.32966  0.62853  1.0000
  C   C919      1.0  0.68481  0.30772  0.57535  1.0000
  C   C920      1.0  0.92394  0.03272  0.61257  1.0000
  H   H1426     1.0  0.94700  0.14876  0.72038  1.0000
  C   C921      1.0  0.75568  0.06263  0.51125  1.0000
  H   H1427     1.0  0.98357  0.16819  0.70257  1.0000
  H   H1428     1.0  0.99182  0.19089  0.57793  1.0000
  H   H1429     1.0  0.52767  0.24129  0.67964  1.0000
  H   H1430     1.0  0.97181  0.12897  0.67436  1.0000
  H   H1431     1.0  0.85538  0.17182  0.67831  1.0000
  C   C922      1.0  0.98490  0.15278  0.57986  1.0000
  C   C923      1.0  0.50962  0.27306  0.66000  1.0000
  S   S361      1.0  0.51504  0.32385  0.65239  1.0000
  H   H1432     1.0  0.94548  0.13339  0.67957  1.0000
  C   C924      1.0  0.99422  0.02964  0.63646  1.0000
  H   H1433     1.0  0.52774  0.30604  0.72324  1.0000
  H   H1434     1.0  0.94681  0.16788  0.66660  1.0000
  C   C925      1.0  0.95978  0.13372  0.68574  1.0000
  H   H1435     1.0  0.96127  0.18348  0.67696  1.0000
  H   H1436     1.0  0.91840  0.01579  0.58070  1.0000
  H   H1437     1.0  0.98298  0.14248  0.71172  1.0000
  H   H1438     1.0  0.64543  0.26411  0.63466  1.0000
  H   H1439     1.0  0.96351  0.01380  0.58333  1.0000
  C   C926      1.0  0.98142  0.15340  0.69845  1.0000
  H   H1440     1.0  0.80791  0.18533  0.53505  1.0000
  H   H1441     1.0  0.91080  0.11109  0.50235  1.0000
  H   H1442     1.0  0.67320  0.23047  0.67029  1.0000
  C   C927      1.0  0.56052  0.26758  0.73931  1.0000
  H   H1443     1.0  0.77089  0.01448  0.50515  1.0000
  C   C928      1.0  0.92625  0.02936  0.57767  1.0000
  H   H1444     1.0  0.66860  0.22388  0.63527  1.0000
  N   N91       1.0  0.58108  0.31711  0.51908  1.0000
  C   C929      1.0  0.57194  0.29927  0.74240  1.0000
  H   H1445     1.0  0.96017  0.12237  0.69878  1.0000
  H   H1446     1.0  0.68153  0.28075  0.64677  1.0000
  H   H1447     1.0  0.84550  0.16824  0.65597  1.0000
  H   H1448     1.0  0.67166  0.24337  0.61547  1.0000
  H   H1449     1.0  0.74798  0.15745  0.61627  1.0000
  H   H1450     1.0  0.53236  0.26937  0.72778  1.0000
  C   C930      1.0  0.94606  0.15902  0.70656  1.0000
  H   H1451     1.0  0.64886  0.26869  0.65928  1.0000
  S   S362      1.0  0.98623  0.13757  0.63372  1.0000
  H   H1452     1.0  0.76289  0.13429  0.61884  1.0000
  H   H1453     1.0  0.99373  0.14936  0.68700  1.0000
  H   H1454     1.0  0.57122  0.29292  0.53946  1.0000
  H   H1455     1.0  0.53754  0.26290  0.68532  1.0000
  H   H1456     1.0  0.71910  0.31564  0.60478  1.0000
  C   C931      1.0  0.67667  0.23701  0.63001  1.0000
  C   C932      1.0  0.76850  0.02819  0.51275  1.0000
  H   H1457     1.0  0.96148  0.01620  0.60927  1.0000
  H   H1458     1.0  0.74748  0.07534  0.50297  1.0000
  Fe  Fe175     1.0  0.96609  0.11485  0.63066  1.0000
  C   C933      1.0  0.54103  0.29845  0.72884  1.0000
  H   H1459     1.0  0.98562  0.15797  0.59452  1.0000
  H   H1460     1.0  0.93194  0.03478  0.62530  1.0000
  N   N92       1.0  0.73907  0.13816  0.64209  1.0000
  C   C934      1.0  0.75161  0.14611  0.65476  1.0000
  C   C935      1.0  0.71885  0.14843  0.64445  1.0000
  C   C936      1.0  0.73840  0.11676  0.64795  1.0000
  C   C937      1.0  0.74745  0.14143  0.62120  1.0000
  H   H1461     1.0  0.76701  0.13878  0.65340  1.0000
  H   H1462     1.0  0.74556  0.14427  0.67062  1.0000
  H   H1463     1.0  0.75242  0.16221  0.65068  1.0000
  H   H1464     1.0  0.70882  0.14271  0.63534  1.0000
  H   H1465     1.0  0.71225  0.14684  0.66015  1.0000
  H   H1466     1.0  0.71890  0.16456  0.63989  1.0000
  H   H1467     1.0  0.72906  0.11030  0.63865  1.0000
  H   H1468     1.0  0.73215  0.11382  0.66365  1.0000
  H   H1469     1.0  0.75345  0.10861  0.64632  1.0000
  H   H1470     1.0  0.93607  0.02832  0.56361  1.0000
  H   H1471     1.0  0.67311  0.31554  0.56724  1.0000
  H   H1472     1.0  0.84683  0.22677  0.67122  1.0000
  H   H1473     1.0  0.85552  0.20777  0.63308  1.0000
  H   H1474     1.0  0.81476  0.21239  0.67385  1.0000
  N   N93       1.0  0.75714  0.04442  0.50132  1.0000
  N   N94       1.0  0.93753  0.03179  0.59418  1.0000
  S   S363      1.0  0.56163  0.24164  0.74492  1.0000
  H   H1475     1.0  0.83231  0.19749  0.63423  1.0000
  C   C938      1.0  0.84082  0.20670  0.64177  1.0000
  H   H1476     1.0  0.86857  0.17864  0.65478  1.0000
  C   C939      1.0  0.85398  0.21133  0.67189  1.0000
  H   H1477     1.0  0.86935  0.21185  0.66458  1.0000
  N   N95       1.0  0.67336  0.25173  0.64448  1.0000
  C   C940      1.0  0.56975  0.31316  0.50315  1.0000
  C   C941      1.0  0.57486  0.27845  0.74444  1.0000
  H   H1478     1.0  0.85502  0.20603  0.68778  1.0000
  H   H1479     1.0  0.83280  0.22183  0.64092  1.0000
  N   N96       1.0  0.84282  0.19847  0.66249  1.0000
  C   C942      1.0  0.55493  0.30932  0.73478  1.0000
  H   H1480     1.0  0.69265  0.23175  0.62715  1.0000
  H   H1481     1.0  0.67781  0.27626  0.62224  1.0000
  H   H1482     1.0  0.69722  0.23737  0.66061  1.0000
  H   H1483     1.0  0.51587  0.29364  0.68936  1.0000
  Fe  Fe176     1.0  0.87327  0.26098  0.73954  1.0000
  C   C943      1.0  0.80273  0.17475  0.52614  1.0000
  C   C944      1.0  0.82297  0.19744  0.67347  1.0000
  H   H1484     1.0  0.82392  0.19106  0.68910  1.0000
  C   C945      1.0  0.68351  0.26930  0.63629  1.0000
  C   C946      1.0  0.68130  0.24306  0.66313  1.0000
  H   H1485     1.0  0.69967  0.26531  0.63287  1.0000
  H   H1486     1.0  0.67997  0.25406  0.67404  1.0000
  H   H1487     1.0  0.52223  0.24924  0.70391  1.0000
  H   H1488     1.0  0.94654  0.17432  0.71029  1.0000
  H   H1489     1.0  0.51120  0.26017  0.65128  1.0000
  C   C947      1.0  0.57154  0.30920  0.53843  1.0000
  H   H1490     1.0  0.93612  0.06346  0.58809  1.0000
  N   N97       1.0  0.99712  0.16392  0.56410  1.0000
  H   H1491     1.0  0.50026  0.28072  0.70850  1.0000
  H   H1492     1.0  0.78341  0.03217  0.51461  1.0000
  H   H1493     1.0  0.91214  0.04524  0.61112  1.0000
  C   C948      1.0  0.96074  0.16815  0.67335  1.0000
  C   C949      1.0  0.99516  0.15714  0.54480  1.0000
  H   H1494     1.0  0.75019  0.23943  0.74161  1.0000
  H   H1495     1.0  0.72897  0.03622  0.51509  1.0000
  H   H1496     1.0  0.57942  0.31250  0.55080  1.0000
  H   H1497     1.0  0.82315  0.14173  0.54179  1.0000
  H   H1498     1.0  0.77055  0.06708  0.51257  1.0000
  H   H1499     1.0  0.79304  0.16526  0.53641  1.0000
  C   C950      1.0  0.81180  0.14848  0.50525  1.0000
  S   S364      1.0  0.58983  0.19224  0.73706  1.0000
  H   H1500     1.0  0.76093  0.02459  0.52781  1.0000
  H   H1501     1.0  0.91486  0.04211  0.57507  1.0000
  C   C951      1.0  0.83167  0.17581  0.50230  1.0000
  H   H1502     1.0  0.94611  0.00061  0.60016  1.0000
  H   H1503     1.0  0.61043  0.31015  0.52784  1.0000
  H   H1504     1.0  0.86415  0.11540  0.50354  1.0000
  H   H1505     1.0  0.60926  0.31332  0.50171  1.0000
  H   H1506     1.0  0.60174  0.29118  0.51604  1.0000
  C   C952      1.0  0.69553  0.31809  0.58606  1.0000
  C   C953      1.0  0.73711  0.03892  0.50013  1.0000
  H   H1507     1.0  0.52307  0.28099  0.65601  1.0000
  H   H1508     1.0  0.55603  0.31597  0.54107  1.0000
  C   C954      1.0  0.88127  0.14031  0.49866  1.0000
  H   H1509     1.0  0.93523  0.10011  0.50601  1.0000
  H   H1510     1.0  0.83759  0.16224  0.53997  1.0000
  S   S365      1.0  0.84524  0.21430  0.73705  1.0000
  H   H1511     1.0  0.50434  0.31808  0.61471  1.0000
  S   S366      1.0  0.51384  0.32976  0.53686  1.0000
  S   S367      1.0  0.85069  0.06129  0.49736  1.0000
  H   H1512     1.0  0.82402  0.13918  0.49751  1.0000
  Fe  Fe177     1.0  0.82012  0.05204  0.49740  1.0000
  S   S368      1.0  0.66069  0.17451  0.95595  1.0000
  H   H1513     1.0  0.64049  0.14660  0.98616  1.0000
  C   C955      1.0  0.73941  0.29025  0.91459  1.0000
  S   S369      1.0  0.84914  0.21617  0.79603  1.0000
  Fe  Fe178     1.0  0.74066  0.24203  0.88083  1.0000
  S   S370      1.0  0.75337  0.21009  0.88143  1.0000
  H   H1514     1.0  0.62210  0.06779  0.79026  1.0000
  Fe  Fe179     1.0  0.70503  0.23381  0.86122  1.0000
  S   S371      1.0  0.71490  0.20159  0.86059  1.0000
  S   S372      1.0  0.67518  0.24465  0.85109  1.0000
  Fe  Fe180     1.0  0.72245  0.20259  0.89121  1.0000
  S   S373      1.0  0.71658  0.17952  0.91707  1.0000
  Fe  Fe181     1.0  0.74484  0.21178  0.85065  1.0000
  S   S374      1.0  0.76161  0.19654  0.82537  1.0000
  S   S375      1.0  0.71023  0.23429  0.89298  1.0000
  S   S376      1.0  0.73443  0.24418  0.84886  1.0000
  Fe  Fe182     1.0  0.63897  0.05236  0.90937  1.0000
  S   S377      1.0  0.66536  0.04607  0.92687  1.0000
  S   S378      1.0  0.63637  0.02939  0.88898  1.0000
  Fe  Fe183     1.0  0.62492  0.09008  0.92782  1.0000
  S   S379      1.0  0.64948  0.08614  0.94729  1.0000
  S   S380      1.0  0.60479  0.11843  0.92856  1.0000
  Fe  Fe184     1.0  0.66856  0.07872  0.91979  1.0000
  S   S381      1.0  0.69673  0.09291  0.90832  1.0000
  Fe  Fe185     1.0  0.64372  0.05411  0.95270  1.0000
  H   H1515     1.0  0.78655  0.31261  0.95694  1.0000
  S   S382      1.0  0.64418  0.08401  0.90004  1.0000
  S   S383      1.0  0.61718  0.05887  0.93550  1.0000
  Fe  Fe186     1.0  0.50531  0.02817  0.81237  1.0000
  S   S384      1.0  0.50723  0.02748  0.84501  1.0000
  H   H1516     1.0  0.90009  0.28438  0.79400  1.0000
  Fe  Fe187     1.0  0.53835  0.05735  0.80231  1.0000
  S   S385      1.0  0.54197  0.05847  0.83420  1.0000
  C   C956      1.0  0.52355  0.27362  0.78140  1.0000
  Fe  Fe188     1.0  0.54025  0.02588  0.83719  1.0000
  H   H1517     1.0  0.73371  0.26200  0.94997  1.0000
  Fe  Fe189     1.0  0.50887  0.06011  0.83876  1.0000
  H   H1518     1.0  0.57151  0.12775  0.81457  1.0000
  S   S386      1.0  0.53853  0.02413  0.80477  1.0000
  C   C957      1.0  0.50066  0.10461  0.85030  1.0000
  Fe  Fe190     1.0  0.63249  0.21087  0.75987  1.0000
  S   S387      1.0  0.60228  0.20876  0.77653  1.0000
  S   S388      1.0  0.66135  0.21891  0.76837  1.0000
  H   H1519     1.0  0.85623  0.28050  0.80511  1.0000
  H   H1520     1.0  0.68082  0.20172  0.89831  1.0000
  H   H1521     1.0  0.58707  0.00314  0.93336  1.0000
  N   N98       1.0  0.78324  0.29317  0.98384  1.0000
  H   H1522     1.0  0.59972  0.06403  0.78068  1.0000
  H   H1523     1.0  0.77868  0.23402  0.78491  1.0000
  C   C958      1.0  0.53122  0.19944  0.76163  1.0000
  H   H1524     1.0  0.51856  0.28173  0.76750  1.0000
  H   H1525     1.0  0.88652  0.28794  0.81755  1.0000
  C   C959      1.0  0.52237  0.12485  0.82809  1.0000
  S   S389      1.0  0.63937  0.03925  0.98444  1.0000
  C   C960      1.0  0.51359  0.10720  0.83301  1.0000
  H   H1526     1.0  0.53214  0.12692  0.81463  1.0000
  C   C961      1.0  0.56612  0.09723  0.78021  1.0000
  H   H1527     1.0  0.58663  0.17180  0.88167  1.0000
  C   C962      1.0  0.58256  0.13263  0.78380  1.0000
  C   C963      1.0  0.77347  0.30784  0.91892  1.0000
  C   C964      1.0  0.56453  0.10470  0.79850  1.0000
  H   H1528     1.0  0.66940  0.20256  0.92310  1.0000
  H   H1529     1.0  0.63440  0.09321  0.98875  1.0000
  C   C965      1.0  0.61516  0.02414  0.87909  1.0000
  C   C966      1.0  0.59760  0.03695  0.87886  1.0000
  C   C967      1.0  0.58123  0.03154  0.87065  1.0000
  C   C968      1.0  0.58239  0.01321  0.86307  1.0000
  H   H1530     1.0  0.73916  0.23793  0.92571  1.0000
  H   H1531     1.0  0.72817  0.21501  0.93079  1.0000
  H   H1532     1.0  0.59667  0.05095  0.88491  1.0000
  H   H1533     1.0  0.56764  0.04132  0.87052  1.0000
  H   H1534     1.0  0.57423  0.21427  0.98773  1.0000
  H   H1535     1.0  0.50954  0.18818  0.79621  1.0000
  C   C969      1.0  0.67115  0.23660  0.82854  1.0000
  C   C970      1.0  0.68708  0.22935  0.81578  1.0000
  C   C971      1.0  0.68377  0.22378  0.79747  1.0000
  C   C972      1.0  0.66449  0.22491  0.79203  1.0000
  C   C973      1.0  0.64850  0.23164  0.80503  1.0000
  C   C974      1.0  0.65186  0.23768  0.82318  1.0000
  H   H1536     1.0  0.70198  0.22842  0.81984  1.0000
  H   H1537     1.0  0.69615  0.21854  0.78746  1.0000
  H   H1538     1.0  0.63363  0.23268  0.80086  1.0000
  H   H1539     1.0  0.63950  0.24332  0.83300  1.0000
  C   C975      1.0  0.70866  0.15620  0.91489  1.0000
  C   C976      1.0  0.70091  0.15218  0.89792  1.0000
  C   C977      1.0  0.69595  0.13301  0.89638  1.0000
  C   C978      1.0  0.69856  0.11779  0.91187  1.0000
  C   C979      1.0  0.70592  0.12202  0.92893  1.0000
  C   C980      1.0  0.71076  0.14112  0.93048  1.0000
  H   H1540     1.0  0.69889  0.16378  0.88595  1.0000
  H   H1541     1.0  0.69056  0.12979  0.88302  1.0000
  H   H1542     1.0  0.70842  0.11034  0.94075  1.0000
  H   H1543     1.0  0.71660  0.14410  0.94370  1.0000
  C   C981      1.0  0.82460  0.21129  0.80391  1.0000
  C   C982      1.0  0.81435  0.20113  0.79255  1.0000
  C   C983      1.0  0.79522  0.19627  0.79954  1.0000
  C   C984      1.0  0.78589  0.20230  0.81749  1.0000
  C   C985      1.0  0.79593  0.21285  0.82867  1.0000
  C   C986      1.0  0.81541  0.21701  0.82205  1.0000
  H   H1544     1.0  0.82144  0.19647  0.77866  1.0000
  H   H1545     1.0  0.78765  0.18787  0.79095  1.0000
  H   H1546     1.0  0.78886  0.21754  0.84256  1.0000
  H   H1547     1.0  0.82330  0.22480  0.83094  1.0000
  H   H1548     1.0  0.55156  0.17261  0.87568  1.0000
  H   H1549     1.0  0.74003  0.24387  0.97016  1.0000
  H   H1550     1.0  0.54676  0.26647  0.81095  1.0000
  H   H1551     1.0  0.52550  0.21236  0.76984  1.0000
  C   C987      1.0  0.55175  0.15732  0.88338  1.0000
  H   H1552     1.0  0.57900  0.03875  0.79728  1.0000
  C   C988      1.0  0.61223  0.05638  0.78867  1.0000
  H   H1553     1.0  0.58557  0.02427  0.81959  1.0000
  H   H1554     1.0  0.59363  0.20725  0.94668  1.0000
  C   C989      1.0  0.64430  0.16107  0.94626  1.0000
  C   C990      1.0  0.62372  0.16440  0.95037  1.0000
  C   C991      1.0  0.61135  0.15199  0.94400  1.0000
  C   C992      1.0  0.61957  0.13617  0.93351  1.0000
  C   C993      1.0  0.63999  0.13367  0.92829  1.0000
  C   C994      1.0  0.65226  0.14605  0.93469  1.0000
  H   H1555     1.0  0.64649  0.12190  0.91963  1.0000
  H   H1556     1.0  0.66805  0.14360  0.93116  1.0000
  S   S390      1.0  0.76076  0.26123  0.89271  1.0000
  C   C995      1.0  0.75777  0.28238  0.90600  1.0000
  Fe  Fe191     1.0  0.51755  0.21253  0.88155  1.0000
  H   H1557     1.0  0.80534  0.26886  0.98977  1.0000
  S   S391      1.0  0.56252  0.00498  0.85319  1.0000
  N   N99       1.0  0.75331  0.14255  0.86150  1.0000
  C   C996      1.0  0.75536  0.15851  0.87360  1.0000
  C   C997      1.0  0.77159  0.13927  0.84797  1.0000
  C   C998      1.0  0.73636  0.14835  0.84978  1.0000
  C   C999      1.0  0.74998  0.12419  0.87461  1.0000
  H   H1558     1.0  0.74168  0.16179  0.88366  1.0000
  H   H1559     1.0  0.75835  0.17241  0.86410  1.0000
  H   H1560     1.0  0.76773  0.15454  0.88298  1.0000
  H   H1561     1.0  0.77064  0.12727  0.83863  1.0000
  H   H1562     1.0  0.77440  0.15290  0.83783  1.0000
  H   H1563     1.0  0.78475  0.13513  0.85627  1.0000
  H   H1564     1.0  0.73448  0.13674  0.84030  1.0000
  H   H1565     1.0  0.73832  0.16232  0.83992  1.0000
  H   H1566     1.0  0.72230  0.15083  0.85948  1.0000
  H   H1567     1.0  0.74772  0.11193  0.86609  1.0000
  H   H1568     1.0  0.73663  0.12635  0.88541  1.0000
  H   H1569     1.0  0.76267  0.11914  0.88337  1.0000
  H   H1570     1.0  0.56014  0.11789  0.88454  1.0000
  C   C1000     1.0  0.57586  0.10768  0.76365  1.0000
  H   H1571     1.0  0.56639  0.13792  0.85225  1.0000
  H   H1572     1.0  0.63207  0.04727  0.82091  1.0000
  S   S392      1.0  0.55694  0.07452  0.77765  1.0000
  C   C1001     1.0  0.62188  0.03653  0.81830  1.0000
  H   H1573     1.0  0.59959  0.02001  0.79639  1.0000
  H   H1574     1.0  0.72618  0.28376  0.91278  1.0000
  C   C1002     1.0  0.75520  0.31572  0.92762  1.0000
  C   C1003     1.0  0.89430  0.30475  0.75570  1.0000
  H   H1575     1.0  0.63058  0.02515  0.80960  1.0000
  N   N100      1.0  0.60499  0.04647  0.80810  1.0000
  C   C1004     1.0  0.59175  0.03171  0.80521  1.0000
  H   H1576     1.0  0.50897  0.31017  0.81107  1.0000
  H   H1577     1.0  0.59552  0.15414  0.94790  1.0000
  H   H1578     1.0  0.65061  0.23532  0.91583  1.0000
  N   N101      1.0  0.75057  0.23875  0.77311  1.0000
  H   H1579     1.0  0.62057  0.04563  0.77901  1.0000
  C   C1005     1.0  0.59393  0.06133  0.82027  1.0000
  C   C1006     1.0  0.59986  0.00050  0.86366  1.0000
  H   H1580     1.0  0.72112  0.24870  0.76560  1.0000
  H   H1581     1.0  0.58847  0.05446  0.83514  1.0000
  C   C1007     1.0  0.91193  0.31053  0.76084  1.0000
  H   H1582     1.0  0.66423  0.23588  0.89179  1.0000
  H   H1583     1.0  0.56670  0.12612  0.90667  1.0000
  C   C1008     1.0  0.58175  0.21603  0.93959  1.0000
  H   H1584     1.0  0.60320  0.07308  0.82234  1.0000
  C   C1009     1.0  0.77110  0.30860  0.99453  1.0000
  H   H1585     1.0  0.58082  0.06861  0.81320  1.0000
  C   C1010     1.0  0.66637  0.11389  0.98301  1.0000
  C   C1011     1.0  0.66724  0.19866  0.90826  1.0000
  C   C1012     1.0  0.57688  0.23579  0.94315  1.0000
  H   H1586     1.0  0.57504  0.19222  0.92432  1.0000
  H   H1587     1.0  0.66142  0.20903  0.87035  1.0000
  H   H1588     1.0  0.66640  0.18240  0.90975  1.0000
  N   N102      1.0  0.64937  0.20979  0.90072  1.0000
  C   C1013     1.0  0.64809  0.20519  0.88039  1.0000
  H   H1589     1.0  0.64697  0.18916  0.88001  1.0000
  C   C1014     1.0  0.65055  0.23121  0.90062  1.0000
  H   H1590     1.0  0.62982  0.18818  0.91343  1.0000
  C   C1015     1.0  0.57115  0.20753  0.92688  1.0000
  C   C1016     1.0  0.63160  0.20409  0.91360  1.0000
  H   H1591     1.0  0.63505  0.21367  0.87398  1.0000
  H   H1592     1.0  0.63254  0.20649  0.92925  1.0000
  H   H1593     1.0  0.63781  0.24014  0.89405  1.0000
  C   C1017     1.0  0.63170  0.10933  0.99037  1.0000
  H   H1594     1.0  0.69046  0.25216  0.95307  1.0000
  C   C1018     1.0  0.60282  0.00446  0.92771  1.0000
  H   H1595     1.0  0.76376  0.25777  0.74897  1.0000
  C   C1019     1.0  0.61618  0.00604  0.87132  1.0000
  H   H1596     1.0  0.78670  0.31452  0.92020  1.0000
  S   S393      1.0  0.59259  0.15458  0.78722  1.0000
  C   C1020     1.0  0.57286  0.12216  0.80031  1.0000
  H   H1597     1.0  0.61790  0.21284  0.90884  1.0000
  H   H1598     1.0  0.90829  0.23955  0.80094  1.0000
  C   C1021     1.0  0.77003  0.28082  0.97638  1.0000
  H   H1599     1.0  0.55687  0.09703  0.81133  1.0000
  C   C1022     1.0  0.70185  0.24497  0.94245  1.0000
  C   C1023     1.0  0.53259  0.27590  0.81398  1.0000
  H   H1600     1.0  0.61723  0.17621  0.95872  1.0000
  H   H1601     1.0  0.53864  0.24708  0.91413  1.0000
  N   N103      1.0  0.71912  0.23552  0.95236  1.0000
  H   H1602     1.0  0.54704  0.15871  0.89932  1.0000
  H   H1603     1.0  0.59140  0.13327  0.75255  1.0000
  H   H1604     1.0  0.76703  0.25879  0.78480  1.0000
  S   S394      1.0  0.53061  0.16129  0.83467  1.0000
  H   H1605     1.0  0.70663  0.20798  0.96129  1.0000
  H   H1606     1.0  0.72455  0.24962  0.79102  1.0000
  C   C1024     1.0  0.73819  0.30671  0.92550  1.0000
  Fe  Fe192     1.0  0.51454  0.18629  0.84988  1.0000
  C   C1025     1.0  0.56122  0.24685  0.93389  1.0000
  H   H1607     1.0  0.88958  0.24380  0.83374  1.0000
  H   H1608     1.0  0.86755  0.23831  0.82454  1.0000
  S   S395      1.0  0.50609  0.18289  0.88239  1.0000
  H   H1609     1.0  0.75796  0.23957  0.80268  1.0000
  H   H1610     1.0  0.51688  0.09564  0.82336  1.0000
  H   H1611     1.0  0.85563  0.25758  0.79510  1.0000
  H   H1612     1.0  0.53716  0.30945  0.77337  1.0000
  C   C1026     1.0  0.86529  0.26920  0.79660  1.0000
  S   S396      1.0  0.84164  0.33014  0.97461  1.0000
  S   S397      1.0  0.58967  0.24716  0.95924  1.0000
  C   C1027     1.0  0.73411  0.22662  0.93776  1.0000
  C   C1028     1.0  0.57717  0.14540  0.85896  1.0000
  Fe  Fe193     1.0  0.64838  0.19882  0.97454  1.0000
  H   H1613     1.0  0.63954  0.01278  0.93235  1.0000
  H   H1614     1.0  0.58572  0.11726  0.88871  1.0000
  H   H1615     1.0  0.59609  0.00076  0.96693  1.0000
  H   H1616     1.0  0.78902  0.28530  0.90179  1.0000
  H   H1617     1.0  0.90848  0.27076  0.81598  1.0000
  C   C1029     1.0  0.51838  0.13990  0.84046  1.0000
  C   C1030     1.0  0.55550  0.21861  0.91755  1.0000
  C   C1031     1.0  0.51575  0.17647  0.78661  1.0000
  N   N104      1.0  0.52630  0.28737  0.79568  1.0000
  H   H1618     1.0  0.66381  0.12213  0.96836  1.0000
  H   H1619     1.0  0.54265  0.19589  0.79887  1.0000
  S   S398      1.0  0.64787  0.23056  0.96172  1.0000
  H   H1620     1.0  0.59204  0.13722  0.85601  1.0000
  C   C1032     1.0  0.55060  0.23835  0.92115  1.0000
  H   H1621     1.0  0.55730  0.26215  0.93651  1.0000
  H   H1622     1.0  0.71655  0.25851  0.97154  1.0000
  H   H1623     1.0  0.54034  0.14998  0.87748  1.0000
  H   H1624     1.0  0.76006  0.28993  0.96625  1.0000
  H   H1625     1.0  0.86310  0.31303  0.75496  1.0000
  C   C1033     1.0  0.72779  0.25060  0.96140  1.0000
  H   H1626     1.0  0.57747  0.16047  0.85083  1.0000
  H   H1627     1.0  0.51779  0.16241  0.79651  1.0000
  C   C1034     1.0  0.58391  0.12540  0.76538  1.0000
  C   C1035     1.0  0.64561  0.01403  0.99324  1.0000
  H   H1628     1.0  0.53753  0.26427  0.77738  1.0000
  S   S399      1.0  0.88533  0.22969  0.74883  1.0000
  S   S400      1.0  0.50524  0.06144  0.80665  1.0000
  N   N105      1.0  0.88295  0.26066  0.80634  1.0000
  C   C1036     1.0  0.89481  0.24629  0.79410  1.0000
  C   C1037     1.0  0.65700  0.00079  0.98135  1.0000
  Fe  Fe194     1.0  0.85469  0.22596  0.76339  1.0000
  H   H1629     1.0  0.89973  0.25343  0.77913  1.0000
  C   C1038     1.0  0.77474  0.29122  0.90838  1.0000
  H   H1630     1.0  0.88614  0.23405  0.79203  1.0000
  H   H1631     1.0  0.58216  0.15705  0.90493  1.0000
  H   H1632     1.0  0.86753  0.26084  0.83555  1.0000
  H   H1633     1.0  0.53474  0.28576  0.82516  1.0000
  H   H1634     1.0  0.52138  0.26593  0.82090  1.0000
  C   C1039     1.0  0.73185  0.25177  0.77560  1.0000
  S   S401      1.0  0.52651  0.21549  0.84855  1.0000
  H   H1635     1.0  0.61678  0.02894  0.83300  1.0000
  N   N106      1.0  0.53465  0.18125  0.77527  1.0000
  H   H1636     1.0  0.80620  0.31159  0.97225  1.0000
  S   S402      1.0  0.61660  0.20070  0.98629  1.0000
  H   H1637     1.0  0.55062  0.24408  0.98625  1.0000
  H   H1638     1.0  0.76011  0.20763  0.77584  1.0000
  H   H1639     1.0  0.69463  0.23395  0.93588  1.0000
  H   H1640     1.0  0.51227  0.26347  0.78758  1.0000
  Fe  Fe195     1.0  0.61613  0.23260  0.97502  1.0000
  H   H1641     1.0  0.95899  0.32520  0.92123  1.0000
  Fe  Fe196     1.0  0.60352  0.17925  0.76455  1.0000
  C   C1040     1.0  0.58604  0.15635  0.88874  1.0000
  C   C1041     1.0  0.79570  0.30260  0.96707  1.0000
  H   H1642     1.0  0.70079  0.22596  0.97862  1.0000
  C   C1042     1.0  0.54162  0.30031  0.78700  1.0000
  H   H1643     1.0  0.76124  0.31826  0.98468  1.0000
  C   C1043     1.0  0.89503  0.27662  0.80864  1.0000
  C   C1044     1.0  0.71266  0.21989  0.96779  1.0000
  H   H1644     1.0  0.55276  0.17057  0.79863  1.0000
  H   H1645     1.0  0.70617  0.25664  0.93048  1.0000
  C   C1045     1.0  0.50500  0.13755  0.85743  1.0000
  H   H1646     1.0  0.77408  0.23254  0.75018  1.0000
  C   C1046     1.0  0.50747  0.29966  0.80028  1.0000
  H   H1647     1.0  0.86944  0.27643  0.78149  1.0000
  S   S403      1.0  0.54278  0.20687  0.90167  1.0000
  H   H1648     1.0  0.54497  0.15057  0.77376  1.0000
  H   H1649     1.0  0.72507  0.21290  0.97619  1.0000
  C   C1047     1.0  0.87665  0.25048  0.82595  1.0000
  H   H1650     1.0  0.56285  0.18902  0.78092  1.0000
  H   H1651     1.0  0.60115  0.14837  0.88680  1.0000
  C   C1048     1.0  0.54879  0.18440  0.78901  1.0000
  H   H1652     1.0  0.54434  0.31068  0.79747  1.0000
  C   C1049     1.0  0.57095  0.12597  0.89047  1.0000
  C   C1050     1.0  0.74632  0.21790  0.77728  1.0000
  N   N107      1.0  0.57150  0.14625  0.88038  1.0000
  H   H1653     1.0  0.80463  0.29146  0.95824  1.0000
  H   H1654     1.0  0.54518  0.20320  0.75260  1.0000
  H   H1655     1.0  0.73439  0.26764  0.77231  1.0000
  H   H1656     1.0  0.67034  0.09803  0.98074  1.0000
  H   H1657     1.0  0.74740  0.21955  0.94476  1.0000
  H   H1658     1.0  0.72394  0.31267  0.93213  1.0000
  H   H1659     1.0  0.77860  0.26914  0.96799  1.0000
  S   S404      1.0  0.84309  0.25743  0.75547  1.0000
  C   C1051     1.0  0.54292  0.16463  0.76386  1.0000
  H   H1660     1.0  0.55594  0.29153  0.78292  1.0000
  H   H1661     1.0  0.73908  0.21476  0.79260  1.0000
  H   H1662     1.0  0.60486  0.02049  0.92494  1.0000
  C   C1052     1.0  0.76411  0.24299  0.78700  1.0000
  C   C1053     1.0  0.87674  0.31712  0.75902  1.0000
  C   C1054     1.0  0.75998  0.24227  0.75259  1.0000
  S   S405      1.0  0.63462  0.18047  0.75001  1.0000
  H   H1663     1.0  0.57723  0.10203  0.74941  1.0000
  H   H1664     1.0  0.50450  0.17465  0.77670  1.0000
  H   H1665     1.0  0.92563  0.30116  0.75828  1.0000
  H   H1666     1.0  0.60547  0.99848  0.91312  1.0000
  H   H1667     1.0  0.76053  0.27342  0.98877  1.0000
  H   H1668     1.0  0.55772  0.16720  0.75597  1.0000
  H   H1669     1.0  0.50234  0.30845  0.78674  1.0000
  H   H1670     1.0  0.58777  0.27081  0.75076  1.0000
  H   H1671     1.0  0.67948  0.11942  0.98786  1.0000
  C   C1055     1.0  0.61184  0.00169  0.96105  1.0000
  H   H1672     1.0  0.73626  0.21412  0.76697  1.0000
  H   H1673     1.0  0.61474  0.01746  0.96015  1.0000
  H   H1674     1.0  0.62854  0.11718  0.97568  1.0000
  H   H1675     1.0  0.66297  0.00606  0.96660  1.0000
  H   H1676     1.0  0.50161  0.14909  0.86697  1.0000
  C   C1056     1.0  0.91211  0.32840  0.76910  1.0000
  Fe  Fe197     1.0  0.65610  0.23606  0.99156  1.0000
  H   H1677     1.0  0.53310  0.16226  0.75274  1.0000
  H   H1678     1.0  0.52036  0.19782  0.75122  1.0000
  S   S406      1.0  0.67731  0.25895  0.99461  1.0000
  Fe  Fe198     1.0  0.59050  0.22186  0.74792  1.0000
  H   H1679     1.0  0.58266  0.30756  0.74724  1.0000
  S   S407      1.0  0.94539  0.59983  0.08423  1.0000
  Fe  Fe199     1.0  0.81865  0.51778  0.06990  1.0000
  S   S408      1.0  0.78641  0.51370  0.06881  1.0000
  S   S409      1.0  0.83666  0.54074  0.05149  1.0000
  Fe  Fe200     1.0  0.82351  0.48460  0.10204  1.0000
  S   S410      1.0  0.79219  0.47790  0.10444  1.0000
  S   S411      1.0  0.84623  0.46899  0.12075  1.0000
  Fe  Fe201     1.0  0.79640  0.48077  0.07100  1.0000
  S   S412      1.0  0.78444  0.45473  0.05949  1.0000
  Fe  Fe202     1.0  0.78455  0.51081  0.10220  1.0000
  S   S413      1.0  0.76012  0.52587  0.12253  1.0000
  S   S414      1.0  0.82861  0.48533  0.06918  1.0000
  S   S415      1.0  0.81558  0.51704  0.10285  1.0000
  H   H1680     1.0  0.70480  0.53818  0.23393  1.0000
  S   S416      1.0  0.74181  0.61358  0.21859  1.0000
  H   H1681     1.0  0.70182  0.49587  0.22662  1.0000
  Fe  Fe203     1.0  0.51893  0.61330  0.23393  1.0000
  Fe  Fe204     1.0  0.75613  0.58223  0.22156  1.0000
  S   S417      1.0  0.77574  0.56675  0.19736  1.0000
  H   H1682     1.0  0.80903  0.34244  0.01640  1.0000
  H   H1683     1.0  0.84311  0.38152  0.03892  1.0000
  H   H1684     1.0  0.93804  0.41191  0.13166  1.0000
  S   S418      1.0  0.94600  0.43041  0.01854  1.0000
  Fe  Fe205     1.0  0.94668  0.49643  0.11330  1.0000
  S   S419      1.0  0.94952  0.49506  0.14553  1.0000
  S   S420      1.0  0.92155  0.51502  0.10043  1.0000
  Fe  Fe206     1.0  0.98202  0.46676  0.10589  1.0000
  H   H1685     1.0  0.98339  0.57610  0.10418  1.0000
  C   C1057     1.0  0.82420  0.37701  0.00789  1.0000
  Fe  Fe207     1.0  0.95507  0.46230  0.14451  1.0000
  S   S421      1.0  0.94085  0.43677  0.16311  1.0000
  Fe  Fe208     1.0  0.98200  0.49712  0.13541  1.0000
  N   N108      1.0  0.82339  0.36473  0.02719  1.0000
  S   S422      1.0  0.94977  0.46381  0.11279  1.0000
  S   S423      1.0  0.97838  0.50008  0.10292  1.0000
  H   H1686     1.0  0.85502  0.36043  0.02738  1.0000
  S   S424      1.0  0.78199  0.38841  0.18542  1.0000
  Fe  Fe209     1.0  0.82818  0.41501  0.19218  1.0000
  S   S425      1.0  0.81412  0.41852  0.16392  1.0000
  S   S426      1.0  0.85044  0.43548  0.19770  1.0000
  Fe  Fe210     1.0  0.78493  0.42101  0.18283  1.0000
  S   S427      1.0  0.76407  0.44665  0.17094  1.0000
  Fe  Fe211     1.0  0.81242  0.38582  0.16904  1.0000
  C   C1058     1.0  0.81754  0.34143  0.24548  1.0000
  S   S428      1.0  0.82884  0.38185  0.19620  1.0000
  S   S429      1.0  0.67701  0.48396  0.19842  1.0000
  H   H1687     1.0  0.84129  0.35704  0.05129  1.0000
  C   C1059     1.0  0.87477  0.43614  0.18546  1.0000
  C   C1060     1.0  0.88390  0.45371  0.18394  1.0000
  C   C1061     1.0  0.90376  0.45441  0.17593  1.0000
  C   C1062     1.0  0.91499  0.43731  0.17007  1.0000
  C   C1063     1.0  0.90586  0.41973  0.17154  1.0000
  C   C1064     1.0  0.88575  0.41922  0.17885  1.0000
  H   H1688     1.0  0.87573  0.46681  0.18930  1.0000
  H   H1689     1.0  0.91067  0.46794  0.17515  1.0000
  H   H1690     1.0  0.91448  0.40636  0.16730  1.0000
  H   H1691     1.0  0.87901  0.40555  0.18006  1.0000
  C   C1065     1.0  0.81582  0.35106  0.11159  1.0000
  H   H1692     1.0  0.87754  0.49844  0.06119  1.0000
  C   C1066     1.0  0.97707  0.42067  0.04172  1.0000
  C   C1067     1.0  0.96155  0.43454  0.03608  1.0000
  C   C1068     1.0  0.96915  0.45598  0.05953  1.0000
  H   H1693     1.0  0.90974  0.44684  0.03927  1.0000
  Fe  Fe212     1.0  0.71713  0.60255  0.24013  1.0000
  H   H1694     1.0  0.96602  0.46964  0.06631  1.0000
  C   C1069     1.0  0.78686  0.36430  0.13146  1.0000
  C   C1070     1.0  0.77475  0.35795  0.11872  1.0000
  H   H1695     1.0  0.78035  0.37151  0.14423  1.0000
  H   H1696     1.0  0.75883  0.36045  0.12160  1.0000
  S   S430      1.0  0.96076  0.37073  0.01537  1.0000
  C   C1071     1.0  0.98144  0.64742  0.00917  1.0000
  C   C1072     1.0  0.73954  0.45511  0.17982  1.0000
  C   C1073     1.0  0.73106  0.45059  0.19932  1.0000
  H   H1697     1.0  0.82503  0.64660  0.22385  1.0000
  C   C1074     1.0  0.79416  0.42658  0.00042  1.0000
  H   H1698     1.0  0.92880  0.38557  0.11323  1.0000
  H   H1699     1.0  0.94643  0.46336  0.03995  1.0000
  H   H1700     1.0  0.88403  0.58981  0.05241  1.0000
  C   C1075     1.0  0.98096  0.61973  0.13816  1.0000
  C   C1076     1.0  0.86670  0.48264  0.11661  1.0000
  C   C1077     1.0  0.88308  0.47712  0.12720  1.0000
  C   C1078     1.0  0.89978  0.48761  0.12296  1.0000
  C   C1079     1.0  0.90002  0.50361  0.10816  1.0000
  C   C1080     1.0  0.88346  0.50942  0.09805  1.0000
  C   C1081     1.0  0.86691  0.49884  0.10212  1.0000
  H   H1701     1.0  0.88302  0.46454  0.13840  1.0000
  H   H1702     1.0  0.91251  0.48308  0.13097  1.0000
  H   H1703     1.0  0.88387  0.52149  0.08633  1.0000
  H   H1704     1.0  0.85469  0.50286  0.09342  1.0000
  C   C1082     1.0  0.76454  0.53806  0.14281  1.0000
  C   C1083     1.0  0.78371  0.53916  0.14739  1.0000
  C   C1084     1.0  0.78675  0.54865  0.16374  1.0000
  C   C1085     1.0  0.77071  0.55689  0.17592  1.0000
  C   C1086     1.0  0.75153  0.55635  0.17104  1.0000
  C   C1087     1.0  0.74849  0.54701  0.15450  1.0000
  H   H1705     1.0  0.79621  0.53258  0.13846  1.0000
  H   H1706     1.0  0.80164  0.54937  0.16721  1.0000
  H   H1707     1.0  0.73905  0.56296  0.18007  1.0000
  H   H1708     1.0  0.73359  0.54652  0.15089  1.0000
  C   C1088     1.0  0.95791  0.45231  0.04476  1.0000
  C   C1089     1.0  0.79378  0.60445  0.09879  1.0000
  H   H1709     1.0  0.78726  0.60818  0.11373  1.0000
  C   C1090     1.0  0.87594  0.57580  0.08162  1.0000
  C   C1091     1.0  0.87541  0.57895  0.06110  1.0000
  C   C1092     1.0  0.86348  0.56804  0.05187  1.0000
  C   C1093     1.0  0.85219  0.55389  0.06307  1.0000
  C   C1094     1.0  0.85293  0.55089  0.08349  1.0000
  C   C1095     1.0  0.86462  0.56176  0.09269  1.0000
  H   H1710     1.0  0.86300  0.57060  0.03603  1.0000
  H   H1711     1.0  0.84484  0.53993  0.09231  1.0000
  H   H1712     1.0  0.86511  0.55904  0.10852  1.0000
  H   H1713     1.0  0.95439  0.42910  0.09128  1.0000
  C   C1096     1.0  0.95371  0.40734  0.12631  1.0000
  H   H1714     1.0  0.83174  0.34837  0.10877  1.0000
  N   N109      1.0  0.89394  0.47113  0.05365  1.0000
  C   C1097     1.0  0.90984  0.47249  0.06614  1.0000
  C   C1098     1.0  0.87917  0.45877  0.06483  1.0000
  C   C1099     1.0  0.90249  0.46205  0.03562  1.0000
  C   C1100     1.0  0.88427  0.49114  0.04801  1.0000
  S   S431      1.0  0.76784  0.33865  0.08767  1.0000
  H   H1715     1.0  0.78322  0.61108  0.08805  1.0000
  H   H1716     1.0  0.91849  0.45791  0.06934  1.0000
  H   H1717     1.0  0.88600  0.44363  0.06944  1.0000
  H   H1718     1.0  0.87232  0.46522  0.07852  1.0000
  H   H1719     1.0  0.73340  0.52311  0.18700  1.0000
  H   H1720     1.0  0.69417  0.53105  0.21343  1.0000
  H   H1721     1.0  0.89501  0.50096  0.03971  1.0000
  H   H1722     1.0  0.91396  0.47077  0.02694  1.0000
  C   C1101     1.0  0.72675  0.51132  0.19726  1.0000
  H   H1723     1.0  0.73946  0.44088  0.20968  1.0000
  H   H1724     1.0  0.78162  0.55732  0.10280  1.0000
  C   C1102     1.0  0.80744  0.36068  0.12800  1.0000
  H   H1725     1.0  0.96678  0.65394  0.01406  1.0000
  N   N110      1.0  0.81270  0.48331  0.17250  1.0000
  C   C1103     1.0  0.80343  0.48294  0.15414  1.0000
  C   C1104     1.0  0.83424  0.47792  0.16882  1.0000
  C   C1105     1.0  0.80415  0.46900  0.18808  1.0000
  C   C1106     1.0  0.80900  0.50331  0.17899  1.0000
  H   H1726     1.0  0.80963  0.49348  0.14204  1.0000
  H   H1727     1.0  0.78712  0.48684  0.15631  1.0000
  H   H1728     1.0  0.80608  0.46800  0.14887  1.0000
  H   H1729     1.0  0.83762  0.46288  0.16381  1.0000
  H   H1730     1.0  0.84127  0.48836  0.15712  1.0000
  H   H1731     1.0  0.84169  0.47780  0.18240  1.0000
  H   H1732     1.0  0.81104  0.46851  0.20208  1.0000
  H   H1733     1.0  0.80669  0.45389  0.18342  1.0000
  H   H1734     1.0  0.78788  0.47251  0.19120  1.0000
  H   H1735     1.0  0.79287  0.50808  0.18141  1.0000
  H   H1736     1.0  0.81579  0.51432  0.16773  1.0000
  H   H1737     1.0  0.81541  0.50396  0.19306  1.0000
  H   H1738     1.0  0.98677  0.60968  0.08858  1.0000
  H   H1739     1.0  0.80916  0.56234  0.07733  1.0000
  H   H1740     1.0  0.82611  0.58137  0.10936  1.0000
  C   C1107     1.0  0.82206  0.34394  0.02417  1.0000
  C   C1108     1.0  0.56163  0.57685  0.23351  1.0000
  H   H1741     1.0  0.77226  0.57615  0.11854  1.0000
  C   C1109     1.0  0.80290  0.44382  0.00222  1.0000
  H   H1742     1.0  0.87219  0.49070  0.03858  1.0000
  C   C1110     1.0  0.81182  0.57472  0.11277  1.0000
  S   S432      1.0  0.62869  0.48398  0.23906  1.0000
  H   H1743     1.0  0.82405  0.34762  0.23128  1.0000
  H   H1744     1.0  0.71268  0.50905  0.19161  1.0000
  H   H1745     1.0  0.98357  0.38311  0.11033  1.0000
  H   H1746     1.0  0.85675  0.63936  0.23874  1.0000
  H   H1747     1.0  0.87106  0.62168  0.19968  1.0000
  H   H1748     1.0  0.83538  0.33779  0.01503  1.0000
  C   C1111     1.0  0.83283  0.65588  0.21160  1.0000
  H   H1749     1.0  0.81054  0.37691  0.00062  1.0000
  H   H1750     1.0  0.96201  0.42048  0.12590  1.0000
  S   S433      1.0  0.97922  0.62177  0.04421  1.0000
  C   C1112     1.0  0.84148  0.36601  0.03662  1.0000
  H   H1751     1.0  0.97850  0.38970  0.08503  1.0000
  H   H1752     1.0  0.82488  0.65617  0.19830  1.0000
  H   H1753     1.0  0.89100  0.46091  0.02572  1.0000
  H   H1754     1.0  0.70108  0.48543  0.16207  1.0000
  C   C1113     1.0  0.98467  0.44217  0.06522  1.0000
  N   N111      1.0  0.79777  0.58284  0.09830  1.0000
  H   H1755     1.0  0.77591  0.40488  0.01575  1.0000
  S   S434      1.0  0.95415  0.64470  0.09073  1.0000
  H   H1756     1.0  0.90376  0.47764  0.08059  1.0000
  N   N112      1.0  0.85390  0.64830  0.20787  1.0000
  H   H1757     1.0  0.96169  0.64594  0.13067  1.0000
  C   C1114     1.0  0.80640  0.57855  0.07827  1.0000
  H   H1758     1.0  0.87554  0.37856  0.23068  1.0000
  N   N113      1.0  0.76200  0.42489  0.11512  1.0000
  C   C1115     1.0  0.78256  0.42515  0.11964  1.0000
  C   C1116     1.0  0.76208  0.41399  0.09775  1.0000
  C   C1117     1.0  0.75297  0.44540  0.11079  1.0000
  C   C1118     1.0  0.75040  0.41506  0.13231  1.0000
  H   H1759     1.0  0.78310  0.43354  0.13248  1.0000
  H   H1760     1.0  0.79174  0.43230  0.10683  1.0000
  H   H1761     1.0  0.78980  0.40994  0.12328  1.0000
  H   H1762     1.0  0.74685  0.41362  0.09376  1.0000
  H   H1763     1.0  0.77077  0.42105  0.08456  1.0000
  H   H1764     1.0  0.76881  0.39845  0.10050  1.0000
  H   H1765     1.0  0.73728  0.44583  0.10783  1.0000
  H   H1766     1.0  0.76093  0.45309  0.09750  1.0000
  H   H1767     1.0  0.75329  0.45422  0.12338  1.0000
  H   H1768     1.0  0.73484  0.41454  0.12936  1.0000
  H   H1769     1.0  0.74990  0.42304  0.14562  1.0000
  H   H1770     1.0  0.75686  0.39964  0.13618  1.0000
  C   C1119     1.0  0.67681  0.63525  0.23294  1.0000
  S   S435      1.0  0.96419  0.60343  0.13451  1.0000
  C   C1120     1.0  0.97643  0.64011  0.13388  1.0000
  H   H1771     1.0  0.92035  0.48312  0.05900  1.0000
  H   H1772     1.0  0.58715  0.61110  0.24161  1.0000
  H   H1773     1.0  0.98016  0.40705  0.03489  1.0000
  C   C1121     1.0  0.94475  0.38223  0.10807  1.0000
  S   S436      1.0  0.88965  0.58918  0.09475  1.0000
  S   S437      1.0  0.79902  0.41954  0.21084  1.0000
  H   H1774     1.0  0.79640  0.58470  0.06686  1.0000
  C   C1122     1.0  0.72854  0.46775  0.16664  1.0000
  H   H1775     1.0  0.73494  0.47164  0.15167  1.0000
  S   S438      1.0  0.73010  0.57085  0.24075  1.0000
  H   H1776     1.0  0.94568  0.37641  0.09344  1.0000
  H   H1777     1.0  0.95098  0.37016  0.11866  1.0000
  S   S439      1.0  0.91464  0.62545  0.11359  1.0000
  Fe  Fe213     1.0  0.94702  0.61696  0.10954  1.0000
  C   C1123     1.0  0.80376  0.34465  0.09895  1.0000
  Fe  Fe214     1.0  0.91310  0.61053  0.08644  1.0000
  S   S440      1.0  0.91627  0.39161  0.00714  1.0000
  H   H1778     1.0  0.60025  0.54124  0.22496  1.0000
  C   C1124     1.0  0.94675  0.41550  0.09243  1.0000
  H   H1779     1.0  0.84818  0.61793  0.21480  1.0000
  C   C1125     1.0  0.68901  0.64586  0.21872  1.0000
  Fe  Fe215     1.0  0.94667  0.40123  0.00581  1.0000
  C   C1126     1.0  0.78300  0.41793  0.01695  1.0000
  Fe  Fe216     1.0  0.79846  0.38666  0.21237  1.0000
  S   S441      1.0  0.91294  0.34376  0.04058  1.0000
  H   H1780     1.0  0.57508  0.56364  0.20752  1.0000
  C   C1127     1.0  0.70077  0.47163  0.19201  1.0000
  C   C1128     1.0  0.71171  0.45901  0.20547  1.0000
  H   H1781     1.0  0.73683  0.49744  0.19617  1.0000
  Fe  Fe217     1.0  0.92117  0.65214  0.09302  1.0000
  S   S442      1.0  0.82322  0.36705  0.14418  1.0000
  C   C1129     1.0  0.98883  0.42465  0.05604  1.0000
  H   H1782     1.0  0.77125  0.42010  0.04736  1.0000
  N   N114      1.0  0.95544  0.39997  0.10670  1.0000
  S   S443      1.0  0.99387  0.52218  0.14859  1.0000
  Fe  Fe218     1.0  0.93034  0.36088  0.01484  1.0000
  H   H1783     1.0  0.76804  0.57945  0.09289  1.0000
  H   H1784     1.0  0.86823  0.34442  0.99769  1.0000
  H   H1785     1.0  0.87802  0.33493  0.06633  1.0000
  H   H1786     1.0  0.98506  0.40795  0.09910  1.0000
  H   H1787     1.0  0.80701  0.46584  0.02121  1.0000
  H   H1788     1.0  0.93083  0.41970  0.09701  1.0000
  C   C1130     1.0  0.97655  0.39489  0.10000  1.0000
  C   C1131     1.0  0.70928  0.47565  0.17257  1.0000
  H   H1789     1.0  0.70526  0.45570  0.22051  1.0000
  H   H1790     1.0  0.92686  0.56088  0.10730  1.0000
  C   C1132     1.0  0.80041  0.45245  0.02020  1.0000
  H   H1791     1.0  0.90438  0.54173  0.15675  1.0000
  C   C1133     1.0  0.91723  0.57641  0.14182  1.0000
  H   H1792     1.0  0.86698  0.45733  0.05586  1.0000
  H   H1793     1.0  0.94522  0.54197  0.11588  1.0000
  H   H1794     1.0  0.83024  0.38201  0.24026  1.0000
  H   H1795     1.0  0.94882  0.56746  0.11604  1.0000
  H   H1796     1.0  0.93510  0.55037  0.16874  1.0000
  C   C1134     1.0  0.93752  0.55678  0.11861  1.0000
  H   H1797     1.0  0.95330  0.56200  0.15155  1.0000
  S   S444      1.0  0.68411  0.61044  0.24137  1.0000
  C   C1135     1.0  0.86384  0.64847  0.22587  1.0000
  H   H1798     1.0  0.90602  0.58099  0.13121  1.0000
  H   H1799     1.0  0.90957  0.57685  0.15701  1.0000
  H   H1800     1.0  0.95051  0.53649  0.15108  1.0000
  C   C1136     1.0  0.57993  0.62644  0.23872  1.0000
  C   C1137     1.0  0.94213  0.55112  0.15324  1.0000
  C   C1138     1.0  0.78892  0.44404  0.03663  1.0000
  N   N115      1.0  0.92737  0.55658  0.13888  1.0000
  H   H1801     1.0  0.92785  0.58776  0.13955  1.0000
  C   C1139     1.0  0.70828  0.53405  0.21858  1.0000
  H   H1802     1.0  0.91963  0.52699  0.13979  1.0000
  C   C1140     1.0  0.91257  0.54214  0.14174  1.0000
  Fe  Fe219     1.0  0.66124  0.48618  0.22914  1.0000
  H   H1803     1.0  0.90164  0.54569  0.13063  1.0000
  S   S445      1.0  0.91779  0.63806  0.06540  1.0000
  H   H1804     1.0  0.87761  0.40477  0.22749  1.0000
  C   C1141     1.0  0.85535  0.62784  0.20263  1.0000
  H   H1805     1.0  0.85814  0.39525  0.21764  1.0000
  H   H1806     1.0  0.99057  0.58161  0.06772  1.0000
  Fe  Fe220     1.0  0.95087  0.62819  0.06499  1.0000
  S   S446      1.0  0.52099  0.64619  0.23048  1.0000
  C   C1142     1.0  0.80582  0.37194  0.04009  1.0000
  S   S447      1.0  0.54421  0.59291  0.22029  1.0000
  H   H1807     1.0  0.79192  0.37120  0.03338  1.0000
  H   H1808     1.0  0.71351  0.54714  0.20901  1.0000
  S   S448      1.0  0.98806  0.46363  0.13782  1.0000
  H   H1809     1.0  0.81044  0.33743  0.08629  1.0000
  H   H1810     1.0  0.58881  0.63401  0.22600  1.0000
  H   H1811     1.0  0.95971  0.39598  0.13768  1.0000
  C   C1143     1.0  0.77910  0.57360  0.10337  1.0000
  C   C1144     1.0  0.57547  0.56390  0.22323  1.0000
  H   H1812     1.0  0.82571  0.39273  0.00950  1.0000
  N   N116      1.0  0.72321  0.51668  0.21773  1.0000
  H   H1813     1.0  0.56517  0.62514  0.23392  1.0000
  H   H1814     1.0  0.70302  0.63881  0.21274  1.0000
  C   C1145     1.0  0.78318  0.34777  0.10265  1.0000
  H   H1815     1.0  0.94811  0.41067  0.07733  1.0000
  C   C1146     1.0  0.99106  0.65289  0.13356  1.0000
  C   C1147     1.0  0.86694  0.39338  0.23049  1.0000
  H   H1816     1.0  0.87976  0.64283  0.22363  1.0000
  H   H1817     1.0  0.81527  0.55846  0.11267  1.0000
  H   H1818     1.0  0.80761  0.61184  0.09497  1.0000
  H   H1819     1.0  0.80571  0.57751  0.12810  1.0000
  S   S449      1.0  0.76702  0.64726  0.24475  1.0000
  H   H1820     1.0  0.80465  0.36295  0.05477  1.0000
  H   H1821     1.0  0.82081  0.58480  0.07405  1.0000
  H   H1822     1.0  0.80635  0.38759  0.04270  1.0000
  H   H1823     1.0  0.84795  0.62717  0.18914  1.0000
  C   C1148     1.0  0.78034  0.42666  0.03488  1.0000
  C   C1149     1.0  0.58977  0.55116  0.23309  1.0000
  C   C1150     1.0  0.99064  0.63183  0.02108  1.0000
  H   H1824     1.0  0.83323  0.41759  0.23600  1.0000
  S   S450      1.0  0.66139  0.51440  0.24295  1.0000
  C   C1151     1.0  0.74186  0.52146  0.22405  1.0000
  H   H1825     1.0  0.74771  0.53432  0.21453  1.0000
  C   C1152     1.0  0.71585  0.49987  0.23103  1.0000
  C   C1153     1.0  0.65847  0.64444  0.24032  1.0000
  H   H1826     1.0  0.92397  0.65796  0.13612  1.0000
  H   H1827     1.0  0.75352  0.50876  0.22329  1.0000
  S   S451      1.0  0.78689  0.37137  0.24192  1.0000
  H   H1828     1.0  0.72668  0.48645  0.23074  1.0000
  Fe  Fe221     1.0  0.75605  0.61709  0.24579  1.0000
  H   H1829     1.0  0.82095  0.33428  0.03843  1.0000
  H   H1830     1.0  0.87960  0.65582  0.18841  1.0000
  H   H1831     1.0  0.73973  0.52528  0.23957  1.0000
  H   H1832     1.0  0.85312  0.42730  0.24508  1.0000
  H   H1833     1.0  0.85669  0.66111  0.17748  1.0000
  C   C1154     1.0  0.86360  0.66094  0.19141  1.0000
  S   S452      1.0  0.99810  0.44603  0.08459  1.0000
  H   H1834     1.0  0.83688  0.37158  0.99753  1.0000
  H   H1835     1.0  0.86320  0.66367  0.23019  1.0000
  H   H1836     1.0  0.92277  0.66334  0.17133  1.0000
  H   H1837     1.0  0.71293  0.50339  0.24662  1.0000
  H   H1838     1.0  0.55373  0.65722  0.24694  1.0000
  C   C1155     1.0  0.57732  0.34624  0.44761  1.0000
  H   H1839     1.0  0.56400  0.63466  0.28627  1.0000
  Fe  Fe222     1.0  0.63368  0.52683  0.39875  1.0000
  S   S453      1.0  0.65427  0.53691  0.41761  1.0000
  S   S454      1.0  0.60288  0.53997  0.39284  1.0000
  Fe  Fe223     1.0  0.66285  0.49167  0.38841  1.0000
  S   S455      1.0  0.68602  0.49902  0.40613  1.0000
  S   S456      1.0  0.66489  0.46519  0.37188  1.0000
  Fe  Fe224     1.0  0.66014  0.50467  0.42916  1.0000
  S   S457      1.0  0.65352  0.49377  0.46173  1.0000
  Fe  Fe225     1.0  0.67794  0.53040  0.39261  1.0000
  S   S458      1.0  0.69613  0.55492  0.37791  1.0000
  S   S459      1.0  0.63770  0.49534  0.41186  1.0000
  S   S460      1.0  0.65670  0.52223  0.37336  1.0000
  Fe  Fe226     1.0  0.50970  0.63687  0.39170  1.0000
  S   S461      1.0  0.74368  0.55268  0.29205  1.0000
  H   H1840     1.0  0.57607  0.66251  0.37399  1.0000
  Fe  Fe227     1.0  0.67001  0.49374  0.26885  1.0000
  H   H1841     1.0  0.68556  0.41220  0.41628  1.0000
  S   S462      1.0  0.69299  0.50083  0.28639  1.0000
  Fe  Fe228     1.0  0.64004  0.46560  0.26572  1.0000
  H   H1842     1.0  0.66360  0.53540  0.27973  1.0000
  S   S463      1.0  0.62953  0.43629  0.27900  1.0000
  S   S464      1.0  0.73011  0.60832  0.26711  1.0000
  S   S465      1.0  0.50976  0.61066  0.26645  1.0000
  H   H1843     1.0  0.59680  0.53848  0.34621  1.0000
  C   C1156     1.0  0.51371  0.65004  0.30856  1.0000
  S   S466      1.0  0.63909  0.49166  0.28252  1.0000
  Fe  Fe229     1.0  0.63274  0.38434  0.38071  1.0000
  S   S467      1.0  0.61878  0.41490  0.37183  1.0000
  Fe  Fe230     1.0  0.66086  0.36204  0.40827  1.0000
  S   S468      1.0  0.68064  0.36665  0.43040  1.0000
  S   S469      1.0  0.66547  0.37635  0.37737  1.0000
  S   S470      1.0  0.62883  0.37311  0.41283  1.0000
  H   H1844     1.0  0.69937  0.37032  0.31161  1.0000
  C   C1157     1.0  0.65359  0.34631  0.45483  1.0000
  H   H1845     1.0  0.59707  0.64661  0.27560  1.0000
  H   H1846     1.0  0.59996  0.65020  0.36715  1.0000
  H   H1847     1.0  0.83012  0.38146  0.26639  1.0000
  C   C1158     1.0  0.80172  0.63785  0.26285  1.0000
  H   H1848     1.0  0.69072  0.56699  0.26245  1.0000
  H   H1849     1.0  0.58560  0.64143  0.38954  1.0000
  H   H1850     1.0  0.60935  0.59950  0.42413  1.0000
  S   S471      1.0  0.51048  0.62744  0.42413  1.0000
  C   C1159     1.0  0.66986  0.36952  0.46958  1.0000
  H   H1851     1.0  0.61374  0.56573  0.45100  1.0000
  H   H1852     1.0  0.66675  0.42702  0.30114  1.0000
  C   C1160     1.0  0.61867  0.53223  0.47505  1.0000
  C   C1161     1.0  0.79077  0.34130  0.27188  1.0000
  H   H1853     1.0  0.68029  0.38043  0.46838  1.0000
  N   N117      1.0  0.57812  0.63723  0.25642  1.0000
  C   C1162     1.0  0.61205  0.53374  0.33969  1.0000
  Fe  Fe231     1.0  0.62996  0.51064  0.25537  1.0000
  C   C1163     1.0  0.68862  0.44391  0.47962  1.0000
  C   C1164     1.0  0.66605  0.38812  0.29806  1.0000
  C   C1165     1.0  0.66504  0.58225  0.29080  1.0000
  H   H1854     1.0  0.63246  0.53494  0.46516  1.0000
  H   H1855     1.0  0.56483  0.34903  0.39400  1.0000
  H   H1856     1.0  0.77658  0.34766  0.27822  1.0000
  S   S472      1.0  0.65622  0.33232  0.40026  1.0000
  H   H1857     1.0  0.57722  0.56483  0.27932  1.0000
  H   H1858     1.0  0.67046  0.45603  0.41212  1.0000
  C   C1166     1.0  0.56854  0.65746  0.25186  1.0000
  S   S473      1.0  0.54173  0.64132  0.38566  1.0000
  C   C1167     1.0  0.55392  0.36232  0.39552  1.0000
  C   C1168     1.0  0.62507  0.43120  0.30486  1.0000
  C   C1169     1.0  0.62616  0.44548  0.31756  1.0000
  C   C1170     1.0  0.62379  0.44051  0.33815  1.0000
  C   C1171     1.0  0.62092  0.42111  0.34608  1.0000
  C   C1172     1.0  0.61976  0.40684  0.33341  1.0000
  C   C1173     1.0  0.62144  0.41200  0.31287  1.0000
  H   H1859     1.0  0.62905  0.46025  0.31155  1.0000
  H   H1860     1.0  0.62494  0.45148  0.34794  1.0000
  H   H1861     1.0  0.61734  0.39189  0.33940  1.0000
  H   H1862     1.0  0.62031  0.40095  0.30312  1.0000
  C   C1174     1.0  0.66258  0.47072  0.47397  1.0000
  S   S474      1.0  0.62600  0.35657  0.36990  1.0000
  H   H1863     1.0  0.70808  0.35246  0.39638  1.0000
  H   H1864     1.0  0.59022  0.36854  0.40189  1.0000
  C   C1175     1.0  0.56058  0.34881  0.46185  1.0000
  C   C1176     1.0  0.68146  0.46151  0.46863  1.0000
  C   C1177     1.0  0.56599  0.62674  0.27276  1.0000
  C   C1178     1.0  0.57801  0.33235  0.43388  1.0000
  H   H1865     1.0  0.58719  0.56783  0.45287  1.0000
  H   H1866     1.0  0.69084  0.46831  0.45650  1.0000
  C   C1179     1.0  0.67589  0.47240  0.34826  1.0000
  C   C1180     1.0  0.68745  0.48821  0.34540  1.0000
  C   C1181     1.0  0.69384  0.49606  0.32624  1.0000
  C   C1182     1.0  0.68831  0.48844  0.30998  1.0000
  C   C1183     1.0  0.67744  0.47204  0.31281  1.0000
  C   C1184     1.0  0.67146  0.46384  0.33202  1.0000
  H   H1867     1.0  0.69123  0.49464  0.35795  1.0000
  H   H1868     1.0  0.70239  0.50853  0.32402  1.0000
  H   H1869     1.0  0.67326  0.46597  0.30024  1.0000
  H   H1870     1.0  0.66256  0.45158  0.33431  1.0000
  C   C1185     1.0  0.70854  0.55423  0.35368  1.0000
  C   C1186     1.0  0.71159  0.57201  0.34165  1.0000
  C   C1187     1.0  0.72197  0.57187  0.32257  1.0000
  C   C1188     1.0  0.72993  0.55392  0.31560  1.0000
  C   C1189     1.0  0.72708  0.53623  0.32773  1.0000
  C   C1190     1.0  0.71617  0.53633  0.34650  1.0000
  H   H1871     1.0  0.70600  0.58595  0.34718  1.0000
  H   H1872     1.0  0.72429  0.58563  0.31352  1.0000
  H   H1873     1.0  0.73346  0.52232  0.32259  1.0000
  H   H1874     1.0  0.71428  0.52257  0.35570  1.0000
  H   H1875     1.0  0.57006  0.66203  0.31354  1.0000
  H   H1876     1.0  0.57274  0.38121  0.41876  1.0000
  H   H1877     1.0  0.56116  0.38144  0.35875  1.0000
  C   C1191     1.0  0.57895  0.38150  0.40298  1.0000
  H   H1878     1.0  0.63115  0.42193  0.41641  1.0000
  H   H1879     1.0  0.61308  0.64423  0.40891  1.0000
  Fe  Fe232     1.0  0.51005  0.64363  0.26276  1.0000
  H   H1880     1.0  0.82886  0.63159  0.27675  1.0000
  H   H1881     1.0  0.67038  0.41335  0.45073  1.0000
  C   C1192     1.0  0.57965  0.59871  0.41703  1.0000
  C   C1193     1.0  0.56722  0.58844  0.40813  1.0000
  C   C1194     1.0  0.57460  0.57064  0.40035  1.0000
  C   C1195     1.0  0.59446  0.56312  0.40126  1.0000
  C   C1196     1.0  0.60704  0.57378  0.40951  1.0000
  C   C1197     1.0  0.59963  0.59149  0.41745  1.0000
  H   H1882     1.0  0.55180  0.59397  0.40766  1.0000
  H   H1883     1.0  0.56480  0.56255  0.39386  1.0000
  H   H1884     1.0  0.62245  0.56835  0.40992  1.0000
  C   C1198     1.0  0.54852  0.39802  0.39200  1.0000
  H   H1885     1.0  0.54199  0.36127  0.38612  1.0000
  C   C1199     1.0  0.50155  0.63344  0.34702  1.0000
  H   H1886     1.0  0.87498  0.37818  0.26701  1.0000
  S   S475      1.0  0.67217  0.46598  0.25449  1.0000
  H   H1887     1.0  0.56007  0.35944  0.47242  1.0000
  C   C1200     1.0  0.69588  0.40282  0.28495  1.0000
  C   C1201     1.0  0.65846  0.55134  0.28047  1.0000
  H   H1888     1.0  0.54731  0.36123  0.41124  1.0000
  H   H1889     1.0  0.68516  0.55853  0.31734  1.0000
  C   C1202     1.0  0.81928  0.64284  0.26904  1.0000
  C   C1203     1.0  0.66790  0.44724  0.42673  1.0000
  H   H1890     1.0  0.73318  0.35112  0.38500  1.0000
  Fe  Fe233     1.0  0.65881  0.34729  0.36914  1.0000
  H   H1891     1.0  0.55171  0.58681  0.26196  1.0000
  C   C1204     1.0  0.57681  0.56453  0.26364  1.0000
  H   H1892     1.0  0.67556  0.59019  0.29734  1.0000
  H   H1893     1.0  0.64889  0.40406  0.44419  1.0000
  C   C1205     1.0  0.56234  0.57705  0.25382  1.0000
  N   N118      1.0  0.56344  0.38079  0.38990  1.0000
  C   C1206     1.0  0.61663  0.65768  0.39881  1.0000
  C   C1207     1.0  0.79924  0.34981  0.25361  1.0000
  C   C1208     1.0  0.72103  0.34211  0.39150  1.0000
  C   C1209     1.0  0.82451  0.66229  0.26515  1.0000
  H   H1894     1.0  0.68074  0.53563  0.30956  1.0000
  C   C1210     1.0  0.60029  0.56157  0.46067  1.0000
  C   C1211     1.0  0.60128  0.53070  0.44669  1.0000
  N   N119      1.0  0.68260  0.39798  0.30309  1.0000
  S   S476      1.0  0.52235  0.65952  0.28447  1.0000
  H   H1895     1.0  0.70843  0.41051  0.28813  1.0000
  Fe  Fe234     1.0  0.54185  0.63555  0.41841  1.0000
  H   H1896     1.0  0.58335  0.36816  0.36700  1.0000
  H   H1897     1.0  0.64348  0.55229  0.28879  1.0000
  N   N120      1.0  0.61456  0.51243  0.33719  1.0000
  C   C1212     1.0  0.61011  0.50089  0.35655  1.0000
  C   C1213     1.0  0.63515  0.50661  0.32923  1.0000
  C   C1214     1.0  0.60094  0.50842  0.32325  1.0000
  H   H1898     1.0  0.59475  0.50502  0.36313  1.0000
  H   H1899     1.0  0.62019  0.50353  0.36737  1.0000
  H   H1900     1.0  0.61187  0.48473  0.35525  1.0000
  H   H1901     1.0  0.64590  0.50872  0.33949  1.0000
  H   H1902     1.0  0.63735  0.49070  0.32681  1.0000
  H   H1903     1.0  0.63927  0.51538  0.31490  1.0000
  H   H1904     1.0  0.60397  0.51685  0.30843  1.0000
  H   H1905     1.0  0.58524  0.51268  0.32868  1.0000
  H   H1906     1.0  0.60245  0.49246  0.32097  1.0000
  C   C1215     1.0  0.67080  0.41717  0.41111  1.0000
  C   C1216     1.0  0.59055  0.55144  0.25336  1.0000
  C   C1217     1.0  0.63877  0.43512  0.41784  1.0000
  H   H1907     1.0  0.58786  0.53583  0.43899  1.0000
  C   C1218     1.0  0.65586  0.41785  0.44481  1.0000
  H   H1908     1.0  0.79780  0.62285  0.26585  1.0000
  H   H1909     1.0  0.64019  0.44364  0.40291  1.0000
  H   H1910     1.0  0.62231  0.53735  0.34989  1.0000
  H   H1911     1.0  0.64657  0.42661  0.45581  1.0000
  H   H1912     1.0  0.61482  0.54293  0.32531  1.0000
  H   H1913     1.0  0.66037  0.55188  0.31943  1.0000
  N   N121      1.0  0.67249  0.56123  0.28978  1.0000
  H   H1914     1.0  0.65676  0.55815  0.26508  1.0000
  C   C1219     1.0  0.59798  0.63837  0.26238  1.0000
  C   C1220     1.0  0.67470  0.55139  0.30993  1.0000
  H   H1915     1.0  0.57278  0.61143  0.27672  1.0000
  H   H1916     1.0  0.49892  0.62747  0.29919  1.0000
  H   H1917     1.0  0.53655  0.39798  0.38233  1.0000
  C   C1221     1.0  0.51193  0.65022  0.34411  1.0000
  H   H1918     1.0  0.58054  0.39467  0.36470  1.0000
  Fe  Fe235     1.0  0.62399  0.34465  0.40222  1.0000
  C   C1222     1.0  0.66743  0.36011  0.45322  1.0000
  H   H1919     1.0  0.58971  0.35476  0.44741  1.0000
  H   H1920     1.0  0.68253  0.44340  0.43253  1.0000
  H   H1921     1.0  0.59957  0.56907  0.47431  1.0000
  H   H1922     1.0  0.60239  0.51428  0.44944  1.0000
  C   C1223     1.0  0.69193  0.55994  0.27782  1.0000
  C   C1224     1.0  0.78922  0.65238  0.25295  1.0000
  H   H1923     1.0  0.69840  0.54431  0.27715  1.0000
  C   C1225     1.0  0.64259  0.34151  0.47302  1.0000
  H   H1924     1.0  0.70647  0.39136  0.32144  1.0000
  H   H1925     1.0  0.55533  0.41215  0.38790  1.0000
  C   C1226     1.0  0.69365  0.38460  0.31750  1.0000
  H   H1926     1.0  0.65051  0.58389  0.29991  1.0000
  H   H1927     1.0  0.70278  0.56761  0.28419  1.0000
  S   S477      1.0  0.52252  0.33975  0.47887  1.0000
  C   C1227     1.0  0.65083  0.46195  0.49013  1.0000
  H   H1928     1.0  0.67313  0.42552  0.39616  1.0000
  N   N122      1.0  0.60080  0.53988  0.46522  1.0000
  S   S478      1.0  0.60865  0.53621  0.26646  1.0000
  C   C1228     1.0  0.50275  0.63377  0.31155  1.0000
  S   S479      1.0  0.57038  0.61995  0.42864  1.0000
  Fe  Fe236     1.0  0.74458  0.57730  0.26669  1.0000
  H   H1929     1.0  0.61421  0.53454  0.43613  1.0000
  H   H1930     1.0  0.68782  0.41275  0.27374  1.0000
  H   H1931     1.0  0.62898  0.44452  0.42791  1.0000
  H   H1932     1.0  0.66382  0.40371  0.40938  1.0000
  H   H1933     1.0  0.68403  0.38091  0.33144  1.0000
  H   H1934     1.0  0.65864  0.45705  0.43680  1.0000
  N   N123      1.0  0.65832  0.42934  0.42514  1.0000
  H   H1935     1.0  0.65711  0.39796  0.28750  1.0000
  H   H1936     1.0  0.61927  0.51596  0.47923  1.0000
  H   H1937     1.0  0.63629  0.46903  0.49453  1.0000
  C   C1229     1.0  0.64506  0.35089  0.48946  1.0000
  C   C1230     1.0  0.84001  0.38040  0.25236  1.0000
  H   H1938     1.0  0.58676  0.39504  0.39901  1.0000
  H   H1939     1.0  0.54148  0.39805  0.40751  1.0000
  C   C1231     1.0  0.58971  0.65496  0.37994  1.0000
  H   H1940     1.0  0.65151  0.33909  0.44217  1.0000
  C   C1232     1.0  0.65830  0.36529  0.48749  1.0000
  C   C1233     1.0  0.58298  0.53503  0.47846  1.0000
  C   C1234     1.0  0.67475  0.41639  0.31183  1.0000
  H   H1941     1.0  0.66416  0.41343  0.32522  1.0000
  S   S480      1.0  0.77196  0.58642  0.24765  1.0000
  H   H1942     1.0  0.70344  0.43720  0.47573  1.0000
  H   H1943     1.0  0.66313  0.59002  0.27579  1.0000
  H   H1944     1.0  0.60571  0.62340  0.26599  1.0000
  H   H1945     1.0  0.84781  0.36517  0.25303  1.0000
  H   H1946     1.0  0.65595  0.38391  0.31149  1.0000
  C   C1235     1.0  0.54450  0.33762  0.46221  1.0000
  C   C1236     1.0  0.57248  0.38131  0.36917  1.0000
  H   H1947     1.0  0.70223  0.38927  0.27801  1.0000
  H   H1948     1.0  0.55092  0.62564  0.26867  1.0000
  H   H1949     1.0  0.67145  0.37432  0.29117  1.0000
  H   H1950     1.0  0.68679  0.42400  0.31625  1.0000
  H   H1951     1.0  0.83341  0.41779  0.26212  1.0000
  H   H1952     1.0  0.85723  0.39460  0.28017  1.0000
  C   C1237     1.0  0.84299  0.41544  0.24814  1.0000
  H   H1953     1.0  0.58223  0.54160  0.49266  1.0000
  H   H1954     1.0  0.64900  0.63631  0.25135  1.0000
  H   H1955     1.0  0.58284  0.51875  0.48205  1.0000
  H   H1956     1.0  0.87725  0.40429  0.26387  1.0000
  H   H1957     1.0  0.72052  0.34883  0.42941  1.0000
  H   H1958     1.0  0.51541  0.65688  0.35656  1.0000
  H   H1959     1.0  0.62771  0.65281  0.38666  1.0000
  H   H1960     1.0  0.74553  0.34722  0.41795  1.0000
  C   C1238     1.0  0.73299  0.33841  0.42365  1.0000
  N   N124      1.0  0.85410  0.39557  0.24920  1.0000
  H   H1961     1.0  0.56924  0.54077  0.47150  1.0000
  C   C1239     1.0  0.86644  0.39307  0.26580  1.0000
  H   H1962     1.0  0.71670  0.33455  0.37941  1.0000
  H   H1963     1.0  0.61923  0.53926  0.48876  1.0000
  Fe  Fe237     1.0  0.50199  0.65975  0.42730  1.0000
  H   H1964     1.0  0.60747  0.64629  0.25037  1.0000
  C   C1240     1.0  0.67693  0.43527  0.49593  1.0000
  S   S481      1.0  0.67945  0.33776  0.34274  1.0000
  H   H1965     1.0  0.57982  0.66125  0.41781  1.0000
  C   C1241     1.0  0.51795  0.65852  0.32490  1.0000
  Fe  Fe238     1.0  0.51348  0.35097  0.50895  1.0000
  Fe  Fe239     1.0  0.54227  0.38147  0.67604  1.0000
  S   S482      1.0  0.52623  0.38467  0.70628  1.0000
  S   S483      1.0  0.56541  0.40224  0.66584  1.0000
  H   H1966     1.0  0.75458  0.34808  0.56378  1.0000
  H   H1967     1.0  0.58996  0.34219  0.53062  1.0000
  H   H1968     1.0  0.56574  0.35153  0.60394  1.0000
  C   C1242     1.0  0.53169  0.41846  0.55851  1.0000
  H   H1969     1.0  0.72179  0.39540  0.55776  1.0000
  Fe  Fe240     1.0  0.53284  0.35147  0.71085  1.0000
  H   H1970     1.0  0.74740  0.37161  0.57317  1.0000
  H   H1971     1.0  0.56869  0.37339  0.70427  1.0000
  S   S484      1.0  0.55013  0.34884  0.68133  1.0000
  Fe  Fe241     1.0  0.66866  0.36163  0.56709  1.0000
  S   S485      1.0  0.63644  0.35761  0.56733  1.0000
  S   S486      1.0  0.69024  0.34389  0.58694  1.0000
  Fe  Fe242     1.0  0.63208  0.39082  0.56411  1.0000
  S   S487      1.0  0.60647  0.40971  0.57839  1.0000
  S   S488      1.0  0.66391  0.39493  0.56604  1.0000
  S   S489      1.0  0.55284  0.34841  0.56604  1.0000
  C   C1243     1.0  0.61680  0.37166  0.71235  1.0000
  C   C1244     1.0  0.55168  0.42469  0.58346  1.0000
  N   N125      1.0  0.59995  0.36551  0.70380  1.0000
  S   S490      1.0  0.67526  0.36262  0.53431  1.0000
  C   C1245     1.0  0.53504  0.39510  0.58757  1.0000
  H   H1972     1.0  0.73840  0.33911  0.53610  1.0000
  Fe  Fe243     1.0  0.52719  0.35400  0.54810  1.0000
  H   H1973     1.0  0.53011  0.38318  0.58025  1.0000
  H   H1974     1.0  0.56124  0.41809  0.59509  1.0000
  C   C1246     1.0  0.54336  0.34028  0.59008  1.0000
  C   C1247     1.0  0.56276  0.39868  0.56258  1.0000
  H   H1975     1.0  0.70525  0.37657  0.56268  1.0000
  Fe  Fe244     1.0  0.52091  0.34653  0.67105  1.0000
  H   H1976     1.0  0.54496  0.38781  0.59868  1.0000
  H   H1977     1.0  0.52657  0.40717  0.55042  1.0000
  H   H1978     1.0  0.53885  0.43348  0.59085  1.0000
  Fe  Fe245     1.0  0.66754  0.39556  0.53285  1.0000
  C   C1248     1.0  0.74880  0.37622  0.53334  1.0000
  H   H1979     1.0  0.56048  0.43503  0.57318  1.0000
  H   H1980     1.0  0.71976  0.35627  0.52513  1.0000
  H   H1981     1.0  0.64876  0.43782  0.51352  1.0000
  S   S491      1.0  0.51478  0.37901  0.66223  1.0000
  C   C1249     1.0  0.60345  0.36836  0.68198  1.0000
  C   C1250     1.0  0.59870  0.40502  0.60377  1.0000
  C   C1251     1.0  0.58984  0.38784  0.61148  1.0000
  C   C1252     1.0  0.57944  0.38663  0.63059  1.0000
  C   C1253     1.0  0.57837  0.40244  0.64206  1.0000
  C   C1254     1.0  0.58793  0.41914  0.63457  1.0000
  C   C1255     1.0  0.59769  0.42058  0.61542  1.0000
  H   H1982     1.0  0.59026  0.37591  0.60239  1.0000
  H   H1983     1.0  0.57214  0.37363  0.63631  1.0000
  H   H1984     1.0  0.58716  0.43138  0.64335  1.0000
  H   H1985     1.0  0.60407  0.43405  0.60942  1.0000
  H   H1986     1.0  0.57836  0.37578  0.72686  1.0000
  N   N126      1.0  0.54529  0.40924  0.57303  1.0000
  H   H1987     1.0  0.73075  0.35281  0.57727  1.0000
  H   H1988     1.0  0.57243  0.38992  0.57314  1.0000
  C   C1256     1.0  0.54366  0.33923  0.62554  1.0000
  H   H1989     1.0  0.57204  0.40906  0.55293  1.0000
  S   S492      1.0  0.63538  0.39430  0.53090  1.0000
  C   C1257     1.0  0.59786  0.34443  0.71045  1.0000
  C   C1258     1.0  0.58164  0.37764  0.71047  1.0000
  S   S493      1.0  0.68698  0.41386  0.51017  1.0000
  Fe  Fe246     1.0  0.64274  0.36153  0.53423  1.0000
  H   H1990     1.0  0.53897  0.42918  0.54729  1.0000
  H   H1991     1.0  0.61710  0.35944  0.67633  1.0000
  H   H1992     1.0  0.58532  0.33930  0.70417  1.0000
  H   H1993     1.0  0.51822  0.42647  0.56576  1.0000
  S   S494      1.0  0.52854  0.37424  0.51991  1.0000
  H   H1994     1.0  0.61867  0.38753  0.70764  1.0000
  H   H1995     1.0  0.59091  0.36408  0.67501  1.0000
  C   C1259     1.0  0.71690  0.38263  0.55170  1.0000
  H   H1996     1.0  0.76152  0.36511  0.52974  1.0000
  S   S495      1.0  0.63200  0.34443  0.51250  1.0000
  C   C1260     1.0  0.55236  0.34421  0.60628  1.0000
  H   H1997     1.0  0.61144  0.33478  0.70591  1.0000
  H   H1998     1.0  0.65958  0.37343  0.49966  1.0000
  H   H1999     1.0  0.60493  0.38416  0.67644  1.0000
  H   H2000     1.0  0.55842  0.38817  0.55312  1.0000
  C   C1261     1.0  0.58159  0.33866  0.51870  1.0000
  H   H2001     1.0  0.70983  0.38851  0.53806  1.0000
  H   H2002     1.0  0.74267  0.38239  0.51925  1.0000
  H   H2003     1.0  0.63090  0.36286  0.70759  1.0000
  C   C1262     1.0  0.74199  0.35965  0.56626  1.0000
  H   H2004     1.0  0.75463  0.38857  0.53928  1.0000
  H   H2005     1.0  0.71464  0.34405  0.54957  1.0000
  C   C1263     1.0  0.72630  0.35099  0.53920  1.0000
  N   N127      1.0  0.73351  0.36737  0.54763  1.0000
  H   H2006     1.0  0.56646  0.34644  0.52096  1.0000
  H   H2007     1.0  0.58250  0.39365  0.70554  1.0000
  H   H2008     1.0  0.61462  0.36971  0.72881  1.0000
  H   H2009     1.0  0.55040  0.34264  0.63804  1.0000
  S   S496      1.0  0.50389  0.34648  0.70088  1.0000
  H   H2010     1.0  0.52178  0.40252  0.59573  1.0000
  S   S497      1.0  0.55004  0.33518  0.73521  1.0000
  H   H2011     1.0  0.59474  0.34183  0.72683  1.0000
  H   H2012     1.0  0.58894  0.34512  0.50439  1.0000
  C   C1264     1.0  0.65787  0.44422  0.50093  1.0000
  Fe  Fe247     1.0  0.49891  0.37957  0.69287  1.0000
  C   C1265     1.0  0.52602  0.33088  0.59312  1.0000
  C   C1266     1.0  0.86173  0.34403  0.96790  1.0000
  Fe  Fe248     1.0  0.92776  0.36962  0.83986  1.0000
  S   S498      1.0  0.91299  0.39381  0.82013  1.0000
  S   S499      1.0  0.91526  0.35902  0.87078  1.0000
  Fe  Fe249     1.0  0.96116  0.36148  0.80771  1.0000
  S   S500      1.0  0.94865  0.38501  0.78548  1.0000
  H   H2013     1.0  0.82804  0.44059  0.91861  1.0000
  Fe  Fe250     1.0  0.94366  0.40362  0.81119  1.0000
  S   S501      1.0  0.94997  0.43528  0.81472  1.0000
  Fe  Fe251     1.0  0.91970  0.37250  0.79683  1.0000
  S   S502      1.0  0.95769  0.38036  0.83264  1.0000
  S   S503      1.0  0.93292  0.34796  0.81730  1.0000
  Fe  Fe252     1.0  0.79310  0.38858  0.96372  1.0000
  S   S504      1.0  0.82379  0.37975  0.95059  1.0000
  H   H2014     1.0  0.94804  0.37259  0.94314  1.0000
  Fe  Fe253     1.0  0.77862  0.35436  0.94442  1.0000
  S   S505      1.0  0.80880  0.34463  0.92997  1.0000
  C   C1267     1.0  0.87164  0.35000  0.98245  1.0000
  Fe  Fe254     1.0  0.81802  0.34861  0.95930  1.0000
  S   S506      1.0  0.93671  0.35448  0.98326  1.0000
  Fe  Fe255     1.0  0.81157  0.37706  0.92255  1.0000
  S   S507      1.0  0.82683  0.39281  0.89504  1.0000
  S   S508      1.0  0.78813  0.35685  0.97462  1.0000
  S   S509      1.0  0.78062  0.38707  0.93476  1.0000
  C   C1268     1.0  0.95300  0.37415  0.92706  1.0000
  C   C1269     1.0  0.83009  0.43416  0.93403  1.0000
  H   H2015     1.0  0.84654  0.40740  0.96139  1.0000
  C   C1270     1.0  0.97171  0.44799  0.80895  1.0000
  N   N128      1.0  0.85127  0.42979  0.93700  1.0000
  H   H2016     1.0  0.83110  0.38153  0.80018  1.0000
  H   H2017     1.0  0.85993  0.45478  0.91716  1.0000
  C   C1271     1.0  0.96118  0.33891  0.92753  1.0000
  C   C1272     1.0  0.83232  0.37905  0.83943  1.0000
  H   H2018     1.0  0.84845  0.40651  0.81317  1.0000
  H   H2019     1.0  0.82102  0.39079  0.83396  1.0000
  H   H2020     1.0  0.82231  0.42058  0.93675  1.0000
  C   C1273     1.0  0.92853  0.35366  0.92082  1.0000
  H   H2021     1.0  0.98104  0.43074  0.84763  1.0000
  H   H2022     1.0  0.87676  0.35712  0.82111  1.0000
  N   N129      1.0  0.84922  0.37569  0.82424  1.0000
  H   H2023     1.0  0.82492  0.36537  0.84419  1.0000
  H   H2024     1.0  0.94447  0.38766  0.92045  1.0000
  H   H2025     1.0  0.85386  0.40123  0.92634  1.0000
  C   C1274     1.0  0.88506  0.36417  0.97745  1.0000
  C   C1275     1.0  0.89086  0.36874  0.87774  1.0000
  C   C1276     1.0  0.88367  0.38781  0.87035  1.0000
  C   C1277     1.0  0.86404  0.39518  0.87587  1.0000
  C   C1278     1.0  0.85152  0.38350  0.88877  1.0000
  C   C1279     1.0  0.85866  0.36443  0.89603  1.0000
  C   C1280     1.0  0.87836  0.35713  0.89072  1.0000
  H   H2026     1.0  0.89331  0.39698  0.86060  1.0000
  H   H2027     1.0  0.85856  0.40997  0.87018  1.0000
  H   H2028     1.0  0.84890  0.35520  0.90552  1.0000
  H   H2029     1.0  0.88382  0.34235  0.89648  1.0000
  C   C1281     1.0  0.88843  0.37259  0.95787  1.0000
  H   H2030     1.0  0.87678  0.41173  0.92523  1.0000
  H   H2031     1.0  0.86924  0.36363  0.84560  1.0000
  H   H2032     1.0  0.99415  0.63122  0.91150  1.0000
  C   C1282     1.0  0.86564  0.35190  0.94822  1.0000
  C   C1283     1.0  0.87889  0.36628  0.94319  1.0000
  H   H2033     1.0  0.84578  0.43182  0.96832  1.0000
  H   H2034     1.0  0.83711  0.38382  0.85288  1.0000
  H   H2035     1.0  0.85791  0.34728  0.93702  1.0000
  H   H2036     1.0  0.88166  0.37251  0.92799  1.0000
  H   H2037     1.0  0.89231  0.36894  0.98892  1.0000
  C   C1284     1.0  0.86105  0.44818  0.93270  1.0000
  H   H2038     1.0  0.98645  0.42900  0.78783  1.0000
  C   C1285     1.0  0.86077  0.41535  0.92350  1.0000
  H   H2039     1.0  0.81145  0.45075  0.98953  1.0000
  C   C1286     1.0  0.95657  0.35903  0.89664  1.0000
  H   H2040     1.0  0.99034  0.38484  0.78963  1.0000
  C   C1287     1.0  0.86365  0.35980  0.83210  1.0000
  H   H2041     1.0  0.96107  0.47003  0.82872  1.0000
  H   H2042     1.0  0.94827  0.37217  0.88905  1.0000
  S   S510      1.0  0.99094  0.35156  0.96337  1.0000
  H   H2043     1.0  0.91948  0.36684  0.91423  1.0000
  S   S511      1.0  0.79743  0.41686  0.97707  1.0000
  H   H2044     1.0  0.85434  0.36741  0.79468  1.0000
  H   H2045     1.0  0.86350  0.34505  0.76852  1.0000
  H   H2046     1.0  0.85936  0.42100  0.90776  1.0000
  H   H2047     1.0  0.98555  0.60190  0.96051  1.0000
  C   C1288     1.0  0.97317  0.46492  0.81832  1.0000
  H   H2048     1.0  0.97404  0.61897  0.94214  1.0000
  H   H2049     1.0  0.96892  0.37664  0.92543  1.0000
  C   C1289     1.0  0.89471  0.34110  0.77184  1.0000
  H   H2050     1.0  0.98573  0.59656  0.91598  1.0000
  H   H2051     1.0  0.98669  0.41078  0.83262  1.0000
  H   H2052     1.0  0.86495  0.39867  0.83181  1.0000
  H   H2053     1.0  0.83481  0.35592  0.80991  1.0000
  Fe  Fe256     1.0  0.96568  0.36736  0.98243  1.0000
  C   C1290     1.0  0.84200  0.36987  0.80650  1.0000
  S   S512      1.0  0.90459  0.39092  0.95188  1.0000
  Fe  Fe257     1.0  0.92475  0.38589  0.97575  1.0000
  H   H2054     1.0  0.82226  0.44462  0.94432  1.0000
  H   H2055     1.0  0.87707  0.44533  0.93481  1.0000
  H   H2056     1.0  0.97260  0.36098  0.89397  1.0000
  S   S513      1.0  0.89458  0.36448  0.78092  1.0000
  H   H2057     1.0  0.86909  0.41838  0.96051  1.0000
  N   N130      1.0  0.94982  0.35643  0.91800  1.0000
  S   S514      1.0  0.75315  0.33619  0.94185  1.0000
  C   C1291     1.0  0.85327  0.42154  0.95771  1.0000
  H   H2058     1.0  0.92304  0.35128  0.93679  1.0000
  S   S515      1.0  0.95369  0.39854  0.97318  1.0000
  S   S516      1.0  0.99005  0.34314  0.80199  1.0000
  C   C1292     1.0  0.98815  0.61432  0.94878  1.0000
  H   H2059     1.0  0.85424  0.45943  0.94260  1.0000
  H   H2060     1.0  0.87150  0.39210  0.80714  1.0000
  C   C1293     1.0  0.85891  0.39407  0.81888  1.0000
  H   H2061     1.0  0.99155  0.62696  0.95621  1.0000
  H   H2062     1.0  0.85700  0.34562  0.83611  1.0000
  H   H2063     1.0  0.97970  0.40574  0.85869  1.0000
  H   H2064     1.0  0.95408  0.34603  0.88925  1.0000
  C   C1294     1.0  0.98826  0.41534  0.84740  1.0000
  C   C1295     1.0  0.99009  0.47540  0.81432  1.0000
  C   C1296     1.0  0.98745  0.44176  0.79540  1.0000
  C   C1297     1.0  0.99116  0.65446  0.99075  1.0000
  H   H2065     1.0  0.99627  0.57908  0.93463  1.0000
  H   H2066     1.0  0.95669  0.33675  0.94375  1.0000
  C   C1298     1.0  0.87702  0.33530  0.76678  1.0000
  H   H2067     1.0  0.97732  0.34051  0.92568  1.0000
  H   H2068     1.0  0.99086  0.48841  0.82162  1.0000
  H   H2069     1.0  0.92542  0.34077  0.91365  1.0000
  H   H2070     1.0  0.99778  0.39269  0.94946  1.0000
  H   H2071     1.0  0.92587  0.33266  0.77276  1.0000
  Fe  Fe258     1.0  0.63279  0.94652  0.08773  1.0000
  S   S517      1.0  0.66394  0.94620  0.07333  1.0000
  C   C1299     1.0  0.55786  0.92821  0.13840  1.0000
  Fe  Fe259     1.0  0.62721  0.90625  0.07639  1.0000
  S   S518      1.0  0.65801  0.90272  0.06061  1.0000
  S   S519      1.0  0.60263  0.88681  0.08668  1.0000
  Fe  Fe260     1.0  0.66757  0.91463  0.08705  1.0000
  S   S520      1.0  0.69418  0.90274  0.10378  1.0000
  Fe  Fe261     1.0  0.65151  0.93495  0.04840  1.0000
  S   S521      1.0  0.65822  0.94803  0.01631  1.0000
  S   S522      1.0  0.63739  0.91614  0.10322  1.0000
  S   S523      1.0  0.62003  0.93719  0.06226  1.0000
  C   C1300     1.0  0.49895  0.87155  0.12574  1.0000
  H   H2072     1.0  0.68627  0.98589  0.14229  1.0000
  H   H2073     1.0  0.96113  0.74172  0.10729  1.0000
  Fe  Fe262     1.0  0.54246  0.80559  0.06765  1.0000
  S   S524      1.0  0.53300  0.77611  0.06329  1.0000
  S   S525      1.0  0.56976  0.81765  0.05051  1.0000
  H   H2074     1.0  0.63694  0.98181  0.03495  1.0000
  H   H2075     1.0  0.65648  0.81540  0.18006  1.0000
  Fe  Fe263     1.0  0.52988  0.77138  0.09684  1.0000
  S   S526      1.0  0.54526  0.74517  0.11478  1.0000
  H   H2076     1.0  0.92355  0.71916  0.11697  1.0000
  S   S527      1.0  0.54076  0.79999  0.10062  1.0000
  C   C1301     1.0  0.68291  0.81164  0.20658  1.0000
  S   S528      1.0  0.72841  0.84035  0.21409  1.0000
  H   H2077     1.0  0.64394  0.81899  0.20410  1.0000
  S   S529      1.0  0.74577  0.88152  0.22028  1.0000
  Fe  Fe264     1.0  0.71624  0.87190  0.21677  1.0000
  S   S530      1.0  0.69220  0.88671  0.19774  1.0000
  Fe  Fe265     1.0  0.75716  0.84948  0.22057  1.0000
  S   S531      1.0  0.78788  0.84079  0.20649  1.0000
  H   H2078     1.0  0.68761  0.80122  0.19526  1.0000
  C   C1302     1.0  0.68484  0.83919  0.18111  1.0000
  H   H2079     1.0  0.69204  0.67336  0.20027  1.0000
  Fe  Fe266     1.0  0.88176  0.71004  0.21663  1.0000
  S   S532      1.0  0.90209  0.69247  0.19454  1.0000
  H   H2080     1.0  0.57524  0.99399  0.14695  1.0000
  C   C1303     1.0  0.91340  0.67304  0.16183  1.0000
  C   C1304     1.0  0.61871  0.75966  0.08818  1.0000
  S   S533      1.0  0.62002  0.74655  0.21425  1.0000
  C   C1305     1.0  0.56282  0.91753  0.02093  1.0000
  S   S534      1.0  0.59994  0.70527  0.22951  1.0000
  Fe  Fe267     1.0  0.63041  0.71530  0.22565  1.0000
  S   S535      1.0  0.65776  0.69951  0.21046  1.0000
  Fe  Fe268     1.0  0.58935  0.73713  0.22072  1.0000
  S   S536      1.0  0.56342  0.75033  0.20332  1.0000
  H   H2081     1.0  0.82624  0.81826  0.20206  1.0000
  C   C1306     1.0  0.64251  0.98698  0.02002  1.0000
  C   C1307     1.0  0.65366  0.82587  0.19155  1.0000
  N   N131      1.0  0.55611  0.90459  0.03870  1.0000
  C   C1308     1.0  0.91408  0.66992  0.14183  1.0000
  H   H2082     1.0  0.57684  0.89516  0.12470  1.0000
  H   H2083     1.0  0.67336  0.80386  0.21857  1.0000
  H   H2084     1.0  0.67806  0.93900  0.12378  1.0000
  H   H2085     1.0  0.68903  0.82895  0.16954  1.0000
  C   C1309     1.0  0.62729  0.99603  0.12738  1.0000
  H   H2086     1.0  0.61398  0.99364  0.13714  1.0000
  H   H2087     1.0  0.67710  0.85298  0.17411  1.0000
  C   C1310     1.0  0.96067  0.72718  0.10172  1.0000
  H   H2088     1.0  0.96945  0.68763  0.10280  1.0000
  C   C1311     1.0  0.52977  0.70424  0.24169  1.0000
  C   C1312     1.0  0.63182  0.98597  0.11058  1.0000
  C   C1313     1.0  0.56025  0.88368  0.03473  1.0000
  H   H2089     1.0  0.55577  0.87348  0.04801  1.0000
  Fe  Fe269     1.0  0.50917  0.81212  0.10023  1.0000
  C   C1314     1.0  0.66786  0.84418  0.21332  1.0000
  H   H2090     1.0  0.94409  0.69436  0.09843  1.0000
  C   C1315     1.0  0.90100  0.68873  0.16955  1.0000
  H   H2091     1.0  0.71962  0.68753  0.21453  1.0000
  H   H2092     1.0  0.64522  0.83957  0.18523  1.0000
  C   C1316     1.0  0.90270  0.68276  0.12913  1.0000
  C   C1317     1.0  0.88997  0.69826  0.13691  1.0000
  C   C1318     1.0  0.88897  0.70113  0.15710  1.0000
  H   H2093     1.0  0.50741  0.77472  0.19052  1.0000
  Fe  Fe270     1.0  0.50975  0.97417  0.12896  1.0000
  H   H2094     1.0  0.88110  0.70829  0.12720  1.0000
  H   H2095     1.0  0.87937  0.71329  0.16285  1.0000
  C   C1319     1.0  0.79567  0.81567  0.21288  1.0000
  C   C1320     1.0  0.81565  0.80843  0.20920  1.0000
  C   C1321     1.0  0.82194  0.78841  0.21467  1.0000
  N   N132      1.0  0.67234  0.83022  0.19814  1.0000
  H   H2096     1.0  0.68151  0.84699  0.21947  1.0000
  H   H2097     1.0  0.83730  0.78280  0.21167  1.0000
  H   H2098     1.0  0.86270  0.67653  0.19481  1.0000
  H   H2099     1.0  0.62962  0.76456  0.09690  1.0000
  H   H2100     1.0  0.58585  0.95277  0.13764  1.0000
  H   H2101     1.0  0.69637  0.81439  0.21308  1.0000
  C   C1322     1.0  0.58568  0.90401  0.13235  1.0000
  C   C1323     1.0  0.59084  0.93663  0.13960  1.0000
  H   H2102     1.0  0.61026  0.79759  0.09556  1.0000
  H   H2103     1.0  0.69873  0.84331  0.18573  1.0000
  C   C1324     1.0  0.52839  0.87457  0.09394  1.0000
  C   C1325     1.0  0.52058  0.85659  0.09997  1.0000
  H   H2104     1.0  0.53987  0.87544  0.08180  1.0000
  H   H2105     1.0  0.52609  0.84389  0.09239  1.0000
  C   C1326     1.0  0.55091  0.74702  0.13916  1.0000
  C   C1327     1.0  0.54394  0.76366  0.14893  1.0000
  C   C1328     1.0  0.54843  0.76463  0.16833  1.0000
  C   C1329     1.0  0.56023  0.74919  0.17810  1.0000
  C   C1330     1.0  0.56772  0.73280  0.16811  1.0000
  C   C1331     1.0  0.56293  0.73167  0.14880  1.0000
  H   H2106     1.0  0.53485  0.77565  0.14165  1.0000
  H   H2107     1.0  0.54276  0.77741  0.17587  1.0000
  H   H2108     1.0  0.57666  0.72071  0.17548  1.0000
  H   H2109     1.0  0.56841  0.71873  0.14139  1.0000
  H   H2110     1.0  0.70919  0.94941  0.16153  1.0000
  H   H2111     1.0  0.57903  0.91445  0.01681  1.0000
  H   H2112     1.0  0.56345  0.92326  0.05937  1.0000
  Fe  Fe271     1.0  0.50926  0.93806  0.10748  1.0000
  H   H2113     1.0  0.58366  0.74710  0.08419  1.0000
  C   C1332     1.0  0.69313  0.89696  0.12988  1.0000
  C   C1333     1.0  0.71062  0.88990  0.13852  1.0000
  C   C1334     1.0  0.71061  0.88634  0.15925  1.0000
  C   C1335     1.0  0.69309  0.89000  0.17158  1.0000
  C   C1336     1.0  0.67557  0.89679  0.16295  1.0000
  C   C1337     1.0  0.67555  0.90016  0.14226  1.0000
  H   H2114     1.0  0.72431  0.88733  0.12912  1.0000
  H   H2115     1.0  0.72421  0.88107  0.16567  1.0000
  H   H2116     1.0  0.66193  0.89964  0.17236  1.0000
  H   H2117     1.0  0.66197  0.90555  0.13593  1.0000
  C   C1338     1.0  0.59528  0.86668  0.07657  1.0000
  C   C1339     1.0  0.60377  0.86056  0.05841  1.0000
  C   C1340     1.0  0.59614  0.84523  0.05057  1.0000
  C   C1341     1.0  0.57996  0.83613  0.06080  1.0000
  C   C1342     1.0  0.57193  0.84202  0.07909  1.0000
  C   C1343     1.0  0.57951  0.85720  0.08691  1.0000
  H   H2118     1.0  0.61601  0.86774  0.05036  1.0000
  H   H2119     1.0  0.60258  0.84062  0.03645  1.0000
  H   H2120     1.0  0.55971  0.83503  0.08722  1.0000
  H   H2121     1.0  0.57283  0.86185  0.10096  1.0000
  H   H2122     1.0  0.55207  0.94414  0.13657  1.0000
  H   H2123     1.0  0.57710  0.77419  0.11724  1.0000
  H   H2124     1.0  0.55213  0.88048  0.02254  1.0000
  C   C1344     1.0  0.69619  0.94752  0.15385  1.0000
  S   S537      1.0  0.52968  0.91416  0.09428  1.0000
  C   C1345     1.0  0.72289  0.71178  0.24194  1.0000
  C   C1346     1.0  0.93501  0.71829  0.12743  1.0000
  H   H2125     1.0  0.55624  0.92319  0.15451  1.0000
  C   C1347     1.0  0.66455  0.67468  0.21914  1.0000
  H   H2126     1.0  0.55982  0.93340  0.02348  1.0000
  C   C1348     1.0  0.56684  0.90789  0.05532  1.0000
  H   H2127     1.0  0.60445  0.79529  0.07104  1.0000
  H   H2128     1.0  0.71271  0.98112  0.14048  1.0000
  H   H2129     1.0  0.59085  0.75032  0.11801  1.0000
  H   H2130     1.0  0.53101  0.92461  0.04799  1.0000
  S   S538      1.0  0.53688  0.98617  0.13874  1.0000
  S   S539      1.0  0.90572  0.68092  0.10330  1.0000
  S   S540      1.0  0.51007  0.97015  0.09674  1.0000
  H   H2131     1.0  0.55517  0.91536  0.00801  1.0000
  H   H2132     1.0  0.69551  0.93135  0.15413  1.0000
  N   N133      1.0  0.69774  0.95732  0.13337  1.0000
  C   C1349     1.0  0.59976  0.79172  0.08708  1.0000
  H   H2133     1.0  0.98454  0.70514  0.12614  1.0000
  H   H2134     1.0  0.58937  0.76613  0.06435  1.0000
  H   H2135     1.0  0.59011  0.93191  0.15575  1.0000
  H   H2136     1.0  0.96543  0.69799  0.14506  1.0000
  H   H2137     1.0  0.58471  0.89812  0.14824  1.0000
  C   C1350     1.0  0.67995  0.95486  0.12400  1.0000
  H   H2138     1.0  0.58503  0.80011  0.09021  1.0000
  S   S541      1.0  0.87697  0.74204  0.22299  1.0000
  H   H2139     1.0  0.54822  0.91983  0.13118  1.0000
  N   N134      1.0  0.57858  0.92527  0.12969  1.0000
  H   H2140     1.0  0.70028  0.98661  0.11850  1.0000
  S   S542      1.0  0.81468  0.75010  0.22911  1.0000
  C   C1351     1.0  0.69936  0.97862  0.13368  1.0000
  S   S543      1.0  0.84994  0.70508  0.22446  1.0000
  Fe  Fe272     1.0  0.50134  0.79066  0.06590  1.0000
  H   H2141     1.0  0.57440  0.94831  0.10588  1.0000
  H   H2142     1.0  0.54451  0.70542  0.23303  1.0000
  H   H2143     1.0  0.57056  0.92401  0.10049  1.0000
  C   C1352     1.0  0.57969  0.93230  0.10838  1.0000
  H   H2144     1.0  0.60662  0.93476  0.13340  1.0000
  H   H2145     1.0  0.80483  0.87300  0.22491  1.0000
  C   C1353     1.0  0.59203  0.76636  0.11360  1.0000
  C   C1354     1.0  0.52106  0.89131  0.10333  1.0000
  H   H2146     1.0  0.60133  0.90121  0.12601  1.0000
  H   H2147     1.0  0.61847  0.74341  0.09200  1.0000
  H   H2148     1.0  0.59511  0.93030  0.10128  1.0000
  C   C1355     1.0  0.71545  0.94827  0.12194  1.0000
  H   H2149     1.0  0.77748  0.77303  0.23380  1.0000
  H   H2150     1.0  0.50198  0.77216  0.16598  1.0000
  H   H2151     1.0  0.66628  0.96190  0.13190  1.0000
  H   H2152     1.0  0.62427  0.76229  0.07224  1.0000
  H   H2153     1.0  0.94996  0.72939  0.09039  1.0000
  H   H2154     1.0  0.68267  0.95355  0.16276  1.0000
  H   H2155     1.0  0.93063  0.70767  0.14036  1.0000
  H   H2156     1.0  0.71456  0.93223  0.12126  1.0000
  H   H2157     1.0  0.65754  0.83844  0.22588  1.0000
  N   N135      1.0  0.95491  0.71203  0.11795  1.0000
  C   C1356     1.0  0.50542  0.81038  0.16886  1.0000
  H   H2158     1.0  0.72919  0.94964  0.12865  1.0000
  H   H2159     1.0  0.81844  0.83879  0.23526  1.0000
  H   H2160     1.0  0.76661  0.80836  0.22498  1.0000
  C   C1357     1.0  0.65359  0.97363  0.00800  1.0000
  H   H2161     1.0  0.66095  0.85878  0.20714  1.0000
  H   H2162     1.0  0.51195  0.80548  0.15436  1.0000
  H   H2163     1.0  0.63843  0.67134  0.23956  1.0000
  Fe  Fe273     1.0  0.84544  0.73588  0.23344  1.0000
  H   H2164     1.0  0.60222  0.77130  0.12308  1.0000
  N   N136      1.0  0.59887  0.77025  0.09235  1.0000
  S   S544      1.0  0.61593  0.96958  0.10534  1.0000
  H   H2165     1.0  0.97555  0.72283  0.09411  1.0000
  C   C1358     1.0  0.58491  0.76323  0.08051  1.0000
  C   C1359     1.0  0.95464  0.69303  0.10984  1.0000
  S   S545      1.0  0.51003  0.94153  0.13924  1.0000
  C   C1360     1.0  0.78203  0.80292  0.22205  1.0000
  C   C1361     1.0  0.80814  0.77558  0.22343  1.0000
  H   H2166     1.0  0.73907  0.71310  0.23906  1.0000
  C   C1362     1.0  0.96927  0.70959  0.13279  1.0000
  H   H2167     1.0  0.94992  0.68134  0.12158  1.0000
  H   H2168     1.0  0.93433  0.73301  0.13293  1.0000
  C   C1363     1.0  0.78822  0.78290  0.22708  1.0000
  S   S546      1.0  0.51161  0.82052  0.06753  1.0000
  H   H2169     1.0  0.50098  0.90250  0.12711  1.0000
  H   H2170     1.0  0.96957  0.72356  0.13951  1.0000
  H   H2171     1.0  0.56980  0.77080  0.08343  1.0000
  C   C1364     1.0  0.64888  0.98930  0.09784  1.0000
  H   H2172     1.0  0.65173  0.98270  0.08418  1.0000
  H   H2173     1.0  0.52886  0.89925  0.05655  1.0000
  C   C1365     1.0  0.72670  0.68071  0.22787  1.0000
  H   H2174     1.0  0.51681  0.74276  0.23890  1.0000
  H   H2175     1.0  0.71708  0.95532  0.10640  1.0000
  H   H2176     1.0  0.74297  0.68124  0.22460  1.0000
  H   H2177     1.0  0.68096  0.96160  0.10837  1.0000
  H   H2178     1.0  0.52611  0.90784  0.03123  1.0000
  H   H2179     1.0  0.58314  0.90506  0.05178  1.0000
  C   C1366     1.0  0.50567  0.85509  0.11565  1.0000
  C   C1367     1.0  0.53461  0.90930  0.04375  1.0000
  H   H2180     1.0  0.57629  0.87970  0.03058  1.0000
  H   H2181     1.0  0.51840  0.70836  0.23114  1.0000
  H   H2182     1.0  0.56277  0.89790  0.06885  1.0000
  C   C1368     1.0  0.50648  0.88975  0.11945  1.0000
  H   H2183     1.0  0.51743  0.80854  0.17875  1.0000
  H   H2184     1.0  0.78218  0.86885  0.23973  1.0000
  H   H2185     1.0  0.98773  0.66855  0.12981  1.0000
  Fe  Fe274     1.0  0.61751  0.75217  0.24608  1.0000
  H   H2186     1.0  0.72411  0.66479  0.23014  1.0000
  C   C1369     1.0  0.68275  0.66540  0.21164  1.0000
  H   H2187     1.0  0.83642  0.86689  0.24013  1.0000
  H   H2188     1.0  0.71583  0.71959  0.22893  1.0000
  H   H2189     1.0  0.68948  0.69746  0.23650  1.0000
  C   C1370     1.0  0.79709  0.87359  0.24009  1.0000
  H   H2190     1.0  0.78483  0.68317  0.24168  1.0000
  H   H2191     1.0  0.83112  0.67120  0.21585  1.0000
  H   H2192     1.0  0.54279  0.73990  0.24126  1.0000
  H   H2193     1.0  0.79479  0.88928  0.24336  1.0000
  H   H2194     1.0  0.57756  0.66610  0.24004  1.0000
  H   H2195     1.0  0.50054  0.82648  0.16614  1.0000
  N   N137      1.0  0.71879  0.69085  0.24546  1.0000
  Fe  Fe275     1.0  0.72130  0.83611  0.24704  1.0000
  C   C1371     1.0  0.65245  0.66422  0.23364  1.0000
  Fe  Fe276     1.0  0.93909  0.83506  0.36382  1.0000
  S   S547      1.0  0.92515  0.81305  0.38669  1.0000
  S   S548      1.0  0.92744  0.86705  0.35577  1.0000
  Fe  Fe277     1.0  0.97329  0.80462  0.35240  1.0000
  S   S549      1.0  0.96152  0.78063  0.37405  1.0000
  C   C1372     1.0  0.99207  0.79935  0.45463  1.0000
  Fe  Fe278     1.0  0.93209  0.79207  0.36296  1.0000
  S   S550      1.0  0.90882  0.77353  0.35504  1.0000
  Fe  Fe279     1.0  0.95628  0.80413  0.39516  1.0000
  S   S551      1.0  0.96697  0.79733  0.42620  1.0000
  S   S552      1.0  0.94455  0.81468  0.33988  1.0000
  S   S553      1.0  0.96943  0.82753  0.37369  1.0000
  Fe  Fe280     1.0  0.83055  0.95840  0.34915  1.0000
  S   S554      1.0  0.79866  0.96950  0.35584  1.0000
  S   S555      1.0  0.85122  0.97126  0.32453  1.0000
  Fe  Fe281     1.0  0.83000  0.92727  0.38407  1.0000
  S   S556      1.0  0.79813  0.93643  0.39399  1.0000
  S   S557      1.0  0.84632  0.90099  0.40029  1.0000
  Fe  Fe282     1.0  0.79388  0.93706  0.36156  1.0000
  S   S558      1.0  0.77072  0.91842  0.35353  1.0000
  Fe  Fe283     1.0  0.80625  0.96780  0.38746  1.0000
  H   H2196     1.0  0.79569  0.83459  0.24995  1.0000
  S   S559      1.0  0.82546  0.92650  0.35241  1.0000
  S   S560      1.0  0.83847  0.95819  0.37996  1.0000
  C   C1373     1.0  0.99606  0.85805  0.31789  1.0000
  S   S561      1.0  0.75449  0.89547  0.26899  1.0000
  C   C1374     1.0  0.82776  0.86759  0.25490  1.0000
  H   H2197     1.0  0.57064  0.68249  0.40226  1.0000
  S   S562      1.0  0.90527  0.74336  0.27048  1.0000
  C   C1375     1.0  0.85457  0.98961  0.41960  1.0000
  H   H2198     1.0  0.94525  0.89692  0.32624  1.0000
  H   H2199     1.0  0.69071  0.69703  0.26251  1.0000
  H   H2200     1.0  0.88538  0.98240  0.39332  1.0000
  H   H2201     1.0  0.95651  0.93876  0.31425  1.0000
  S   S563      1.0  0.58771  0.68961  0.28398  1.0000
  H   H2202     1.0  0.55728  0.71233  0.26340  1.0000
  C   C1376     1.0  0.81197  0.67673  0.25528  1.0000
  H   H2203     1.0  0.83646  0.85826  0.26595  1.0000
  S   S564      1.0  0.54601  0.69781  0.37154  1.0000
  H   H2204     1.0  0.52882  0.68846  0.24754  1.0000
  H   H2205     1.0  0.85708  0.67030  0.33805  1.0000
  H   H2206     1.0  0.80741  0.88989  0.34585  1.0000
  H   H2207     1.0  0.97714  0.93556  0.35214  1.0000
  C   C1377     1.0  0.99187  0.97896  0.31643  1.0000
  H   H2208     1.0  0.81848  0.82999  0.26105  1.0000
  H   H2209     1.0  0.50444  0.72446  0.28140  1.0000
  S   S565      1.0  0.75135  0.84262  0.25330  1.0000
  H   H2210     1.0  0.80926  0.87795  0.39995  1.0000
  Fe  Fe284     1.0  0.59897  0.71350  0.26058  1.0000
  H   H2211     1.0  0.89222  0.69455  0.33770  1.0000
  H   H2212     1.0  0.93295  0.93230  0.32618  1.0000
  C   C1378     1.0  0.58432  0.67429  0.40765  1.0000
  H   H2213     1.0  0.96926  0.90299  0.31494  1.0000
  H   H2214     1.0  0.67157  0.82883  0.26062  1.0000
  H   H2215     1.0  0.88952  0.98492  0.32172  1.0000
  C   C1379     1.0  0.64861  0.78833  0.25491  1.0000
  H   H2216     1.0  0.72255  0.68801  0.27646  1.0000
  H   H2217     1.0  0.80810  0.97349  0.44129  1.0000
  S   S566      1.0  0.85091  0.72667  0.26514  1.0000
  C   C1380     1.0  0.57598  0.69254  0.30813  1.0000
  C   C1381     1.0  0.56869  0.67604  0.31963  1.0000
  C   C1382     1.0  0.55932  0.67751  0.33891  1.0000
  C   C1383     1.0  0.55713  0.69554  0.34698  1.0000
  C   C1384     1.0  0.56449  0.71207  0.33550  1.0000
  C   C1385     1.0  0.57380  0.71063  0.31613  1.0000
  S   S567      1.0  0.53357  0.66737  0.42392  1.0000
  C   C1386     1.0  0.97793  0.92259  0.34365  1.0000
  H   H2218     1.0  0.56296  0.72610  0.34160  1.0000
  H   H2219     1.0  0.57941  0.72346  0.30747  1.0000
  H   H2220     1.0  0.98452  0.86824  0.31178  1.0000
  Fe  Fe285     1.0  0.73898  0.87449  0.25332  1.0000
  H   H2221     1.0  0.85087  0.72066  0.31089  1.0000
  C   C1387     1.0  0.80668  0.84820  0.37822  1.0000
  H   H2222     1.0  0.80986  0.86466  0.34040  1.0000
  S   S568      1.0  0.63026  0.72157  0.25707  1.0000
  S   S569      1.0  0.62453  0.78198  0.25335  1.0000
  C   C1388     1.0  0.88304  0.69638  0.30047  1.0000
  H   H2223     1.0  0.86747  0.70064  0.34889  1.0000
  C   C1389     1.0  0.99376  0.83792  0.32102  1.0000
  H   H2224     1.0  0.52586  0.67150  0.32271  1.0000
  H   H2225     1.0  0.78740  0.87519  0.35333  1.0000
  H   H2226     1.0  0.79513  0.87736  0.27891  1.0000
  H   H2227     1.0  0.93115  0.91051  0.35764  1.0000
  H   H2228     1.0  0.56630  0.66567  0.26515  1.0000
  S   S570      1.0  0.71049  0.80641  0.25913  1.0000
  H   H2229     1.0  0.95313  0.90051  0.36838  1.0000
  H   H2230     1.0  0.99118  0.83007  0.41194  1.0000
  H   H2231     1.0  0.84338  0.69868  0.30330  1.0000
  C   C1390     1.0  0.76683  0.91180  0.32990  1.0000
  C   C1391     1.0  0.77665  0.91994  0.31226  1.0000
  C   C1392     1.0  0.77264  0.91473  0.29389  1.0000
  C   C1393     1.0  0.75898  0.90109  0.29281  1.0000
  C   C1394     1.0  0.74957  0.89251  0.31049  1.0000
  C   C1395     1.0  0.75338  0.89794  0.32886  1.0000
  H   H2232     1.0  0.78698  0.93065  0.31272  1.0000
  H   H2233     1.0  0.77999  0.92154  0.28037  1.0000
  H   H2234     1.0  0.73901  0.88204  0.30999  1.0000
  H   H2235     1.0  0.74562  0.89155  0.34236  1.0000
  C   C1396     1.0  0.85903  0.99196  0.33264  1.0000
  H   H2236     1.0  0.63817  0.81869  0.25866  1.0000
  H   H2237     1.0  0.72614  0.66507  0.26548  1.0000
  H   H2238     1.0  0.98714  0.92598  0.32937  1.0000
  H   H2239     1.0  0.84070  0.85792  0.35735  1.0000
  H   H2240     1.0  0.98031  0.83275  0.31767  1.0000
  H   H2241     1.0  0.83815  0.88317  0.36272  1.0000
  C   C1397     1.0  0.90762  0.76630  0.33104  1.0000
  C   C1398     1.0  0.89013  0.75953  0.32661  1.0000
  C   C1399     1.0  0.88889  0.75299  0.30801  1.0000
  C   C1400     1.0  0.90532  0.75267  0.29375  1.0000
  C   C1401     1.0  0.92273  0.75955  0.29815  1.0000
  C   C1402     1.0  0.92384  0.76645  0.31656  1.0000
  H   H2242     1.0  0.87743  0.75952  0.33761  1.0000
  H   H2243     1.0  0.87526  0.74820  0.30473  1.0000
  H   H2244     1.0  0.93552  0.75948  0.28725  1.0000
  H   H2245     1.0  0.93740  0.77157  0.31968  1.0000
  C   C1403     1.0  0.90459  0.87593  0.36801  1.0000
  C   C1404     1.0  0.89684  0.86627  0.38590  1.0000
  C   C1405     1.0  0.87903  0.87415  0.39579  1.0000
  C   C1406     1.0  0.86883  0.89167  0.38780  1.0000
  C   C1407     1.0  0.87646  0.90126  0.36981  1.0000
  C   C1408     1.0  0.89432  0.89343  0.35999  1.0000
  H   H2246     1.0  0.90473  0.85291  0.39233  1.0000
  H   H2247     1.0  0.87321  0.86667  0.40970  1.0000
  H   H2248     1.0  0.86867  0.91476  0.36351  1.0000
  H   H2249     1.0  0.90011  0.90090  0.34606  1.0000
  N   N138      1.0  0.80803  0.86081  0.25499  1.0000
  H   H2250     1.0  0.71711  0.71990  0.25491  1.0000
  H   H2251     1.0  0.81565  0.69183  0.25243  1.0000
  H   H2252     1.0  0.81452  0.98454  0.47304  1.0000
  H   H2253     1.0  0.83911  0.70317  0.32882  1.0000
  C   C1409     1.0  0.60371  0.68597  0.37769  1.0000
  Fe  Fe286     1.0  0.53191  0.67265  0.39098  1.0000
  N   N139      1.0  0.59863  0.66824  0.39102  1.0000
  H   H2254     1.0  0.80707  0.89735  0.38027  1.0000
  C   C1410     1.0  0.80384  0.87470  0.35175  1.0000
  H   H2255     1.0  0.59029  0.69426  0.37173  1.0000
  H   H2256     1.0  0.62376  0.66723  0.40732  1.0000
  H   H2257     1.0  0.94476  0.92643  0.36865  1.0000
  H   H2258     1.0  0.98020  0.97006  0.32281  1.0000
  H   H2259     1.0  0.81253  0.84301  0.39266  1.0000
  H   H2260     1.0  0.86529  0.97706  0.42459  1.0000
  C   C1411     1.0  0.86729  0.67273  0.32430  1.0000
  C   C1412     1.0  0.72841  0.68106  0.26280  1.0000
  C   C1413     1.0  0.66527  0.77445  0.25364  1.0000
  H   H2261     1.0  0.87920  0.71813  0.33105  1.0000
  C   C1414     1.0  0.65102  0.80794  0.25741  1.0000
  C   C1415     1.0  0.81145  0.99544  0.46069  1.0000
  Fe  Fe287     1.0  0.88267  0.73076  0.25453  1.0000
  C   C1416     1.0  0.80338  0.88211  0.38537  1.0000
  C   C1417     1.0  0.50712  0.71506  0.26900  1.0000
  C   C1418     1.0  0.68414  0.78017  0.25507  1.0000
  H   H2262     1.0  0.81292  0.83736  0.36767  1.0000
  C   C1419     1.0  0.94629  0.91379  0.35964  1.0000
  C   C1420     1.0  0.68657  0.79987  0.25729  1.0000
  H   H2263     1.0  0.79035  0.84779  0.38043  1.0000
  H   H2264     1.0  0.78695  0.88283  0.38763  1.0000
  N   N140      1.0  0.95804  0.91808  0.34038  1.0000
  H   H2265     1.0  0.98606  0.90977  0.35188  1.0000
  H   H2266     1.0  0.98446  0.78749  0.46290  1.0000
  C   C1421     1.0  0.79441  0.67181  0.24928  1.0000
  H   H2267     1.0  0.84313  0.98339  0.41258  1.0000
  C   C1422     1.0  0.95994  0.90061  0.32930  1.0000
  H   H2268     1.0  0.54176  0.69562  0.27818  1.0000
  C   C1423     1.0  0.94802  0.93522  0.32890  1.0000
  N   N141      1.0  0.81190  0.86830  0.37086  1.0000
  S   S571      1.0  0.70794  0.86749  0.24988  1.0000
  C   C1424     1.0  0.83366  0.86820  0.36815  1.0000
  H   H2269     1.0  0.74469  0.68189  0.26060  1.0000
  H   H2270     1.0  0.84020  0.86363  0.38235  1.0000
  N   N142      1.0  0.86939  0.69397  0.31877  1.0000
  H   H2271     1.0  0.94639  0.94871  0.33678  1.0000
  C   C1425     1.0  0.69720  0.68983  0.24917  1.0000
  H   H2272     1.0  0.55358  0.66470  0.34738  1.0000
  H   H2273     1.0  0.96692  0.88727  0.33785  1.0000
  H   H2274     1.0  0.61423  0.68199  0.36477  1.0000
  C   C1426     1.0  0.54227  0.71118  0.27136  1.0000
  H   H2275     1.0  0.78181  0.85743  0.27518  1.0000
  H   H2276     1.0  0.80455  0.85226  0.28638  1.0000
  H   H2277     1.0  0.82654  0.88316  0.25844  1.0000
  N   N143      1.0  0.52677  0.71709  0.25789  1.0000
  C   C1427     1.0  0.52800  0.73787  0.24949  1.0000
  H   H2278     1.0  0.54070  0.72063  0.28369  1.0000
  H   H2279     1.0  0.89814  0.68907  0.30253  1.0000
  C   C1428     1.0  0.80780  0.98910  0.44268  1.0000
  C   C1429     1.0  0.87739  0.70214  0.33484  1.0000
  H   H2280     1.0  0.87765  0.68981  0.28829  1.0000
  C   C1430     1.0  0.99591  0.82313  0.42586  1.0000
  C   C1431     1.0  0.66992  0.81374  0.25846  1.0000
  C   C1432     1.0  0.84983  0.70460  0.31533  1.0000
  H   H2281     1.0  0.88455  0.71226  0.29540  1.0000
  C   C1433     1.0  0.79698  0.86197  0.27477  1.0000
  Fe  Fe288     1.0  0.85733  0.69632  0.25532  1.0000
  H   H2282     1.0  0.50577  0.69952  0.27555  1.0000
  H   H2283     1.0  0.52570  0.74804  0.26125  1.0000
  C   C1434     1.0  0.98598  0.80767  0.43621  1.0000
  S   S572      1.0  0.58596  0.74461  0.25223  1.0000
  S   S573      1.0  0.84695  0.66827  0.27217  1.0000
  H   H2284     1.0  0.66357  0.75929  0.25183  1.0000
  C   C1435     1.0  0.81030  0.84015  0.25017  1.0000
  H   H2285     1.0  0.86119  0.66621  0.31243  1.0000
  H   H2286     1.0  0.61051  0.69637  0.38551  1.0000
  H   H2287     1.0  0.59057  0.68417  0.41651  1.0000
  H   H2288     1.0  0.86446  0.99004  0.37970  1.0000
  H   H2289     1.0  0.69351  0.67424  0.25136  1.0000
  H   H2290     1.0  0.69694  0.76933  0.25437  1.0000
  C   C1436     1.0  0.87494  0.99533  0.38866  1.0000
  C   C1437     1.0  0.87894  0.99534  0.32912  1.0000
  S   S574      1.0  0.49958  0.66859  0.39481  1.0000
  S   S575      1.0  0.79893  0.99600  0.40340  1.0000
  H   H2291     1.0  0.99651  0.76435  0.39218  1.0000
  H   H2292     1.0  0.84705  0.99606  0.43301  1.0000
  H   H2293     1.0  0.88180  0.66419  0.32677  1.0000
  S   S576      1.0  0.88957  0.69934  0.24734  1.0000
  H   H2294     1.0  0.99832  0.79968  0.39426  1.0000
  C   C1438     1.0  0.61403  0.97256  0.94392  1.0000
  H   H2295     1.0  0.62965  0.99606  0.87146  1.0000
  H   H2296     1.0  0.66957  0.97055  0.97931  1.0000
  H   H2297     1.0  0.60083  0.98630  0.85799  1.0000
  C   C1439     1.0  0.66078  0.98068  0.98863  1.0000
  H   H2298     1.0  0.62411  0.96417  0.95436  1.0000
  H   H2299     1.0  0.64078  0.99195  0.91873  1.0000
  H   H2300     1.0  0.59863  0.96976  0.94974  1.0000
  H   H2301     1.0  0.64780  0.98864  0.94352  1.0000
  H   H2302     1.0  0.61751  0.96623  0.92952  1.0000
  N   N144      1.0  0.61642  0.99391  0.94162  1.0000
  H   H2303     1.0  0.62101  0.99324  0.97222  1.0000
  H   H2304     1.0  0.98385  0.66643  0.98161  1.0000
  C   C1440     1.0  0.63704  0.99689  0.93376  1.0000
