data_image0
_chemical_formula_structural       CH4CH5SCH7C2FeCSFeS2HCH2FeSH3FeHSH2CFeS2FeS2FeSFeS2FeH2FeHSH2FeHS2HSHCSC6H5C2H2SH3C6H7CHCH3C6H4C2HSNCHCNH2CHCH2NHFeCH2S2H2CHCHC2H3C2HC3H4C2HSHFeH2SC2SH2SNCHCH2SH5FeHCFeH2CHC2HSH4C2NHCH4CSHC3H4NCH5SC2HCH2CHFeS2HCHFeSCS2H2FeS2FeHSFeSFeHS2FeS2CSHFeSFeHSC2SHFeSCFeSFeSHSHNH4NC6H7CH2CNH8C2NC2H3CHC4H4C6H4C6HCHNC4H14CH2CH4C2HC3HFeH2C2HSHC2SCSH2CHSCH2SCH3NCHCH3CH2NH9FeHCNHCH2SFeC2HC3HCH2SHFeCH2CSHFeS2CSCHFeSHFeS2FeSHS2FeS2FeS2FeSFeHS2CHCHSH2FeC2SFeHCH2C3HCHCH2C2HCH3NC6H4C7H3C6H4SC2FeHCH2C2H3CHCHN2HSHC3H2CHCH2CH2SHNH2CH8CH2SHSCNC4H9SHC3HCH6C2HCH2CH2CHSHCSFe2SFeH2CFeSHFeS2FeSFeSCSHSH4SHFeS2CFeS2C6H4CHC4H4C2H2C3H7C6H5NS3CSNC4FeH11CH2CH3FeNH2C2HCH3NHS2HC3HCHFeH3CSHCH3CHCHFeCS2FeSHFeS2Fe2S3FeS2FeS2FeSFeS3FeS2FeS2FeSFeS3CFeS2HCSHFeSC7H4C6H6CH5FeCHC7H4C4H4C3H4C6H8CHSC6H4N2SHSH7CH4SH2CH4C3HNHNC4H15NC4H10NC4H12CHNH3CNCHSH3C2H2CH4CH2C3SHCHCH2CH2Fe2CHCSH3NCH2CSC3HCH3CHCNCSH2FeH4C2H7CHCH3CH2NH2SHC3FeHSHFeS2FeS2FeSFeS3H2CHFeS2FeS2FeSFeS3FeS2FeS2FeSFeS3HCS2HC6H5C2H2CHNC2HC6H4CH2CH3C6H4C6H4C6H4C6H4CHCNC4H12NCHC2H4FeHC3H3CHC2H4CH5C2H7SHC2H3CH2NH3CFeHNH2NSHCH2CH2CHCH3CHCHC2H2CH3SH3NCHCH3C2H2CSHC2HC3HCHSHCHCH2C2HNHC3H2CH5CH4FeH4CHSFeHSNH4CH9NH7NHFeS2FeHSFeS2CFeSH2FeSCHSCFeSFeCHFeS2FeS2FeCFeS3CH2NHCH4SCHC6H10CH3C6H4C2HC2H2C6H7CH7SNC4H12NC4HFeH4FeHC2HFeCH2SCH2CNH2C2H2C2H2CNHCHNCHCH2SCSH5CNH2CHCHCH4CSHCSH4CSH5CH4CH4NH5CHC3H2CHCFeSHSFeS2FeS2FeCFeS3FeS2FeS2FeSFeHS2C3SCH5C2HCHC4H2C7H8FeC5SH3C6H4CH5CH3CH6CHCHCH2CHCH4C3SCHCHN2C4H12NFeH2SNCH2C2H5C2HCNHCH4CHNH4SH3C4HCHCSC2H10CHCH3FeSCHS2FeS2CFeSCSFeHSFeS2FeS2FeSHFeSFeS3FeS2FeSFeSFeS3H3CFeCHC6H4C6H4CHSH3CH2CSHSC2HC2H3C6H5C5H3C6H2C2HCN2H3CH2SCHSC2H2FeNC4H12CH2CSC4H3CH8FeHC2NCHSCH4C3HCH5NC4H12C3H3CNH2CHCHSH2CH2NSHCH4CHSH5CH5SH4FeS2HFeSHSHCSFeHFeSHSFeSCFeSFe2S3FeS2FeS2Fe2S3H2C2HC3H2C3H4SC2H2CHCHC4H2C6H6C3HCH3C6H5C2H3SHCSFeCH3CH4CHCHC2HC3HFeH2SH3CNHSCHCHC3NCHSCH2SHCHCH5NCSCH6NH2NHCHCH2CH4CH2CH3CHNCHSHSCSCH3CFeS2CH3FeSHS2FeS2FeHSCHFeS3FeS2FeHFeH2CS2FeS2FeS2FeSFeHS2C2H5CHC8H4CHCH5C6H6SHC2H3C7H2CHC6H4NC3HSH3CHSHC2HSCH5C2H4CH2FeH4NHCSC2H3SCHNCNFeHNHNCH3FeCH2CHSH6C2HC2H4NH3C2HSNHCH6C2HC2HCHNHCH4C4H3C2HC2HC2H4CSHSCFeSHFeSFeCHSH2CSCHNCHSHCHFeSHFeSCFeSFeS3FeCFeS2H2FeS3H3CH4C4S2H2C2HC6H4SC6H4C2HCFeNH2SHC2H2CHC3H2CHCNCNH2CH2NCH2CHCSH2CH2C2HS2H2SCHFeHCSH3CH3CH3CH2NH5CH3CH5CH2CH8CHSFeS2FeS2FeS2FeS2FeS2FeHCS2Fe3S2HSFeHS2HCNC6H5CHCHCH2C6H4C6H4NHC2SCH2NC2H3CHCH2CHC4H2CH2C2HC2SHSH3SH2SHCHCH2CHCHNH2SHCH2SH2C2HCH3FeCNCH3NH2CHCHNCH2NH4CH6FeCHC2HC2HSH2Fe2CHCH5FeNH2CSHCH2FeHC3HSH3CH3CH2CH2CH4C2SH2CH6C2HCHC2HSHCH2SHCH3CHC2H2C2FeHSH2SHSH2FeSHFeS2FeSFeS2FeS2FeS2FeSFeS3HC6H4CHSCH5C3H3S2H5C2HFeHC6H4C6H4CSH2CH2CSCH2CH2SNH2C2H2CHFeH3CHFeCNC4H14SH3NC4H12C2HC2FeHCH2C2H4SHCH2CHCH4CH4NH2CSH2CHCH3CH4FeS2FeS2FeSFeS3C2HSFeS2FeCSHFeSFeS2Fe2S3FeS2FeS2FeSFeS4FeNSC6H5CHNH3CHC8H4CHSCH2CHSHC6H4C6H4C6H7C3HCH2CNC2HCSH3CH3CH8CH2CH4SHNC4H10NHC2NH4CH2FeCHCHNC4H14CH10FeHSHCH4CH2CNH3CHCH3FeH5SC2HC3HFeCHC2HCFeS2FeS2FeSFeS3FeSH2SFeS2FeS2FeSFeS3HSH2S2FeS2FeS2FeSFeS3C6H4C6H4C5H6C2H2C6H6CHCH3CHC6H4C6H4C6H4C2HCNC4H14N2C4H12NCHCH3C3H2CHCH7CHSCHCNH2CNCH2CH4CH2FeHCHCH4FeHCH2CNC2H9NH2CHCFeH6CH2CHCHC2H2SHC2NH6C2HCNH3CHCSC2H8SH2CH2C3H2CH3C3H3FeS2FeSFeHFeHS2FeSCFeSHFeSFeS3CHCHCHNHCHCH3C2HCH3SHCHC2HC3H4CSC3HNFeH2CFeCHCSHCHCHCH3C7H6CH2S2C2SH5SHCH4NC3HSH4FeH6CHCH2NCH2C2H4CSH7SFeS2FeHSFeHFeS3FeHFe2S2H2FeHS3C2H2C6H5SCHCH2CHC5FeNHSHC3FeH4SC5HCSCHCH4SHCH4CHCH3CH4SC2NCHSNH2C4SCFeCH6NH2FeS2FeSCSCNHSH4FeCSH2NHSFeS2FeS2FeSFeS3FeS2FeS2FeSFeS3CHCFeSC6H5CHCH3C4H4C2HCH4SC6H3C5HSCH2C6H4C6H3SCHCH3CHC2H2CNCSHC2HCHC2H6NC4H13C2NHCH3CH3CH2CNCH4SC2HCH6CH5CH2NSH3C2H2SCH10CHNH4FeHC2HFeCH3CHC2SNHCH2SCH4FeHS2CFeHFeS2FeS2FeS2HCNFeSHSHCHCHSH2FeSH2FeS2FeS2Fe2S4H2SHC2SHCHC6H5C4HC6H4C6H5C6H3SCFeHNHC2H6SHSCH2CHNSHFeH2FeH2CH2CSHC2H2NC4H17CHC2HCNH4CHNC3H15SH4C2HCH2CH2NCH2SC2SCH5CHFeH2C2FeHCH2CSC2NH2CHCSHC3H2CH2C3H3CNH8CSH3SCHC2HCHCHCH3CHCHCH4CH5
_chemical_formula_sum              "C1440 H2304 S576 Fe288 N144"
_cell_length_a       66.9192
_cell_length_b       66.9019
_cell_length_c       67.0055
_cell_angle_alpha    82.0954
_cell_angle_beta     81.9475
_cell_angle_gamma    82.0459

_space_group_name_H-M_alt    "P 1"
_space_group_IT_number       1

loop_
  _space_group_symop_operation_xyz
  'x, y, z'

loop_
  _atom_site_type_symbol
  _atom_site_label
  _atom_site_symmetry_multiplicity
  _atom_site_fract_x
  _atom_site_fract_y
  _atom_site_fract_z
  _atom_site_occupancy
  C   C1        1.0  0.05509  0.31286  0.00386  1.0000
  H   H1        1.0  0.49015  0.18461  0.01889  1.0000
  H   H2        1.0  0.06833  0.32164  0.00203  1.0000
  H   H3        1.0  0.43584  0.21192  0.99807  1.0000
  H   H4        1.0  0.05456  0.30356  0.01899  1.0000
  C   C2        1.0  0.49304  0.16368  0.99661  1.0000
  H   H5        1.0  0.07556  0.27535  0.00239  1.0000
  H   H6        1.0  0.03757  0.27888  0.00524  1.0000
  H   H7        1.0  0.49315  0.01056  0.16869  1.0000
  H   H8        1.0  0.04103  0.32393  0.00396  1.0000
  H   H9        1.0  0.44464  0.24742  0.99289  1.0000
  S   S1        1.0  0.46826  0.17134  0.99001  1.0000
  C   C3        1.0  0.03884  0.28858  0.99033  1.0000
  H   H10       1.0  0.99677  0.07143  0.34750  1.0000
  H   H11       1.0  0.00764  0.05079  0.36431  1.0000
  H   H12       1.0  0.00992  0.21461  0.44650  1.0000
  H   H13       1.0  0.00667  0.04755  0.33829  1.0000
  H   H14       1.0  0.99979  0.18504  0.47077  1.0000
  H   H15       1.0  0.99638  0.23172  0.46367  1.0000
  H   H16       1.0  0.02663  0.14491  0.48395  1.0000
  C   C4        1.0  0.99817  0.05463  0.35159  1.0000
  C   C5        1.0  0.99479  0.22305  0.45106  1.0000
  Fe  Fe1       1.0  0.46248  0.29379  0.62890  1.0000
  C   C6        1.0  0.43430  0.14339  0.61201  1.0000
  S   S2        1.0  0.46473  0.29839  0.66109  1.0000
  Fe  Fe2       1.0  0.45352  0.26800  0.59840  1.0000
  S   S3        1.0  0.45896  0.29233  0.57187  1.0000
  S   S4        1.0  0.44929  0.23619  0.59272  1.0000
  H   H17       1.0  0.25500  0.05667  0.55820  1.0000
  C   C7        1.0  0.23841  0.05842  0.56370  1.0000
  H   H18       1.0  0.08455  0.19559  0.53133  1.0000
  H   H19       1.0  0.23375  0.04289  0.56669  1.0000
  Fe  Fe3       1.0  0.01693  0.31079  0.63018  1.0000
  S   S5        1.0  0.43326  0.28964  0.61797  1.0000
  H   H20       1.0  0.11389  0.16675  0.55626  1.0000
  H   H21       1.0  0.13632  0.18386  0.50409  1.0000
  H   H22       1.0  0.05397  0.00481  0.66693  1.0000
  Fe  Fe4       1.0  0.48624  0.29587  0.58644  1.0000
  H   H23       1.0  0.11324  0.04791  0.57945  1.0000
  S   S6        1.0  0.44294  0.08566  0.63475  1.0000
  H   H24       1.0  0.02493  0.15462  0.70398  1.0000
  H   H25       1.0  0.02708  0.02370  0.73050  1.0000
  C   C8        1.0  0.48913  0.30353  0.66396  1.0000
  Fe  Fe5       1.0  0.07775  0.14189  0.56212  1.0000
  S   S7        1.0  0.05303  0.12457  0.57928  1.0000
  S   S8        1.0  0.10603  0.12805  0.54350  1.0000
  Fe  Fe6       1.0  0.05576  0.18304  0.57313  1.0000
  S   S9        1.0  0.02932  0.16903  0.59144  1.0000
  S   S10       1.0  0.05993  0.21661  0.56642  1.0000
  Fe  Fe7       1.0  0.05311  0.14501  0.60313  1.0000
  S   S11       1.0  0.05292  0.13127  0.63552  1.0000
  Fe  Fe8       1.0  0.03124  0.14985  0.56595  1.0000
  S   S12       1.0  0.07950  0.16042  0.58713  1.0000
  S   S13       1.0  0.05581  0.16566  0.54661  1.0000
  Fe  Fe9       1.0  0.22832  0.01130  0.55215  1.0000
  H   H26       1.0  0.09882  0.19264  0.50691  1.0000
  H   H27       1.0  0.48124  0.20310  0.65255  1.0000
  Fe  Fe10      1.0  0.18476  0.03028  0.56512  1.0000
  H   H28       1.0  0.30507  0.01204  0.54772  1.0000
  S   S14       1.0  0.16539  0.05465  0.58233  1.0000
  H   H29       1.0  0.25124  0.00837  0.59055  1.0000
  H   H30       1.0  0.40638  0.00463  0.66279  1.0000
  Fe  Fe11      1.0  0.39342  0.99498  0.61054  1.0000
  H   H31       1.0  0.45519  0.14813  0.64176  1.0000
  S   S15       1.0  0.20838  0.01009  0.58204  1.0000
  S   S16       1.0  0.20584  0.03380  0.53594  1.0000
  H   H32       1.0  0.03082  0.14553  0.52014  1.0000
  S   S17       1.0  0.02009  0.27631  0.63154  1.0000
  H   H33       1.0  0.99813  0.30700  0.57036  1.0000
  C   C9        1.0  0.27668  0.01066  0.56724  1.0000
  S   S18       1.0  0.00157  0.14367  0.55676  1.0000
  C   C10       1.0  0.04891  0.23323  0.58454  1.0000
  C   C11       1.0  0.05088  0.25412  0.58045  1.0000
  C   C12       1.0  0.04235  0.26760  0.59470  1.0000
  C   C13       1.0  0.03176  0.26023  0.61318  1.0000
  C   C14       1.0  0.02973  0.23939  0.61717  1.0000
  C   C15       1.0  0.03823  0.22596  0.60295  1.0000
  H   H34       1.0  0.05917  0.25988  0.56627  1.0000
  H   H35       1.0  0.04415  0.28359  0.59149  1.0000
  H   H36       1.0  0.02158  0.23355  0.63141  1.0000
  H   H37       1.0  0.03665  0.20994  0.60635  1.0000
  H   H38       1.0  0.99551  0.27261  0.56199  1.0000
  C   C16       1.0  0.02335  0.10854  0.65391  1.0000
  C   C17       1.0  0.02811  0.12803  0.64621  1.0000
  H   H39       1.0  0.08376  0.01724  0.59665  1.0000
  H   H40       1.0  0.08761  0.03870  0.60852  1.0000
  S   S19       1.0  0.36966  0.00554  0.63508  1.0000
  H   H41       1.0  0.03495  0.09559  0.65292  1.0000
  H   H42       1.0  0.00904  0.08188  0.60394  1.0000
  H   H43       1.0  0.00021  0.03159  0.73276  1.0000
  C   C18       1.0  0.12161  0.10689  0.55443  1.0000
  C   C19       1.0  0.13593  0.09538  0.54177  1.0000
  C   C20       1.0  0.14910  0.07900  0.55005  1.0000
  C   C21       1.0  0.14836  0.07428  0.57111  1.0000
  C   C22       1.0  0.13399  0.08572  0.58377  1.0000
  C   C23       1.0  0.12053  0.10181  0.57549  1.0000
  H   H44       1.0  0.20640  0.05519  0.59269  1.0000
  H   H45       1.0  0.16005  0.07029  0.54012  1.0000
  H   H46       1.0  0.13333  0.08225  0.60008  1.0000
  H   H47       1.0  0.10962  0.11058  0.58541  1.0000
  H   H48       1.0  0.47960  0.16516  0.60626  1.0000
  H   H49       1.0  0.09627  0.17083  0.52546  1.0000
  H   H50       1.0  0.41082  0.12142  0.63974  1.0000
  C   C24       1.0  0.02166  0.00406  0.67399  1.0000
  H   H51       1.0  0.44456  0.12459  0.64814  1.0000
  C   C25       1.0  0.40724  0.13826  0.63932  1.0000
  H   H52       1.0  0.23224  0.09863  0.56519  1.0000
  H   H53       1.0  0.02453  0.30631  0.72845  1.0000
  H   H54       1.0  0.32610  0.00846  0.57613  1.0000
  C   C26       1.0  0.43725  0.06476  0.62393  1.0000
  C   C27       1.0  0.45184  0.05374  0.61127  1.0000
  C   C28       1.0  0.44665  0.03722  0.60291  1.0000
  C   C29       1.0  0.42697  0.03140  0.60738  1.0000
  C   C30       1.0  0.41248  0.04227  0.62026  1.0000
  C   C31       1.0  0.41755  0.05899  0.62833  1.0000
  H   H55       1.0  0.46704  0.05808  0.60772  1.0000
  H   H56       1.0  0.45795  0.02895  0.59291  1.0000
  H   H57       1.0  0.39723  0.03809  0.62368  1.0000
  H   H58       1.0  0.40616  0.06745  0.63807  1.0000
  C   C32       1.0  0.46171  0.21550  0.60754  1.0000
  C   C33       1.0  0.46602  0.19637  0.60043  1.0000
  H   H59       1.0  0.46884  0.99312  0.67292  1.0000
  S   S20       1.0  0.01611  0.03051  0.66841  1.0000
  N   N1        1.0  0.11499  0.01963  0.59923  1.0000
  C   C34       1.0  0.46746  0.21785  0.62627  1.0000
  H   H60       1.0  0.46173  0.19446  0.58589  1.0000
  C   C35       1.0  0.99923  0.14344  0.53090  1.0000
  N   N2        1.0  0.43700  0.00126  0.67037  1.0000
  H   H61       1.0  0.46411  0.23245  0.63200  1.0000
  H   H62       1.0  0.00494  0.29586  0.59476  1.0000
  C   C36       1.0  0.02506  0.13802  0.70367  1.0000
  H   H63       1.0  0.43516  0.14554  0.66231  1.0000
  C   C37       1.0  0.01304  0.14473  0.64722  1.0000
  H   H64       1.0  0.47903  0.31724  0.69146  1.0000
  H   H65       1.0  0.41522  0.00350  0.69709  1.0000
  N   N3        1.0  0.42566  0.14848  0.63250  1.0000
  H   H66       1.0  0.04085  0.13062  0.70499  1.0000
  Fe  Fe12      1.0  0.19380  0.00600  0.52905  1.0000
  C   C38       1.0  0.11840  0.03140  0.57895  1.0000
  H   H67       1.0  0.25692  0.08867  0.57235  1.0000
  H   H68       1.0  0.46196  0.99314  0.64790  1.0000
  S   S21       1.0  0.48191  0.27047  0.61153  1.0000
  S   S22       1.0  0.18607  0.00243  0.49826  1.0000
  H   H69       1.0  0.15504  0.00500  0.71009  1.0000
  H   H70       1.0  0.14340  0.02409  0.60842  1.0000
  C   C39       1.0  0.42160  0.99608  0.65875  1.0000
  H   H71       1.0  0.26159  0.05476  0.59354  1.0000
  C   C40       1.0  0.48130  0.18201  0.63096  1.0000
  H   H72       1.0  0.11020  0.02605  0.56773  1.0000
  C   C41       1.0  0.47600  0.17972  0.61199  1.0000
  C   C42       1.0  0.43875  0.02325  0.66592  1.0000
  H   H73       1.0  0.42580  0.99966  0.64209  1.0000
  H   H74       1.0  0.24238  0.06488  0.61236  1.0000
  H   H75       1.0  0.20276  0.07878  0.57675  1.0000
  C   C43       1.0  0.01084  0.10737  0.71863  1.0000
  C   C44       1.0  0.11918  0.21244  0.52824  1.0000
  H   H76       1.0  0.40049  0.14145  0.65487  1.0000
  C   C45       1.0  0.24028  0.08943  0.57748  1.0000
  C   C46       1.0  0.29787  0.01046  0.56327  1.0000
  C   C47       1.0  0.00350  0.10568  0.66243  1.0000
  H   H77       1.0  0.44399  0.02746  0.64957  1.0000
  H   H78       1.0  0.01672  0.15983  0.64121  1.0000
  H   H79       1.0  0.12912  0.18563  0.56001  1.0000
  H   H80       1.0  0.00877  0.11916  0.59590  1.0000
  C   C48       1.0  0.01600  0.14454  0.51594  1.0000
  C   C49       1.0  0.12674  0.02690  0.61330  1.0000
  H   H81       1.0  0.44816  0.15092  0.60632  1.0000
  S   S23       1.0  0.17097  0.00426  0.55687  1.0000
  H   H82       1.0  0.20751  0.07855  0.60255  1.0000
  Fe  Fe13      1.0  0.47533  0.09300  0.63333  1.0000
  H   H83       1.0  0.41353  0.17508  0.64705  1.0000
  H   H84       1.0  0.27207  0.00596  0.61888  1.0000
  S   S24       1.0  0.26213  0.01393  0.54680  1.0000
  C   C50       1.0  0.27931  0.00717  0.60334  1.0000
  C   C51       1.0  0.43080  0.99608  0.69233  1.0000
  S   S25       1.0  0.31457  0.00550  0.61999  1.0000
  H   H85       1.0  0.08999  0.01360  0.62223  1.0000
  H   H86       1.0  0.23981  0.04178  0.60274  1.0000
  S   S26       1.0  0.48734  0.11896  0.61231  1.0000
  N   N4        1.0  0.11696  0.19051  0.53140  1.0000
  C   C52       1.0  0.26747  0.00866  0.58733  1.0000
  H   H87       1.0  0.48143  0.24853  0.56421  1.0000
  C   C53       1.0  0.47713  0.20117  0.63793  1.0000
  H   H88       1.0  0.12293  0.04356  0.61392  1.0000
  H   H89       1.0  0.13684  0.09915  0.52546  1.0000
  S   S27       1.0  0.46931  0.31936  0.60501  1.0000
  H   H90       1.0  0.43873  0.12670  0.61204  1.0000
  H   H91       1.0  0.14910  0.18090  0.52643  1.0000
  H   H92       1.0  0.12374  0.01906  0.62899  1.0000
  H   H93       1.0  0.40940  0.17678  0.62086  1.0000
  H   H94       1.0  0.99986  0.09049  0.66758  1.0000
  Fe  Fe14      1.0  0.34771  0.99236  0.61948  1.0000
  H   H95       1.0  0.39542  0.14329  0.62894  1.0000
  C   C54       1.0  0.42038  0.17075  0.63190  1.0000
  Fe  Fe15      1.0  0.44120  0.31426  0.59266  1.0000
  H   H96       1.0  0.23031  0.06671  0.55103  1.0000
  H   H97       1.0  0.13330  0.16232  0.52298  1.0000
  C   C55       1.0  0.24489  0.05712  0.59841  1.0000
  H   H98       1.0  0.44990  0.02790  0.67473  1.0000
  C   C56       1.0  0.09312  0.02242  0.60699  1.0000
  C   C57       1.0  0.13475  0.17895  0.52073  1.0000
  H   H99       1.0  0.42324  0.14827  0.60083  1.0000
  S   S28       1.0  0.48271  0.10446  0.66112  1.0000
  H   H100      1.0  0.42388  0.03257  0.66956  1.0000
  H   H101      1.0  0.44143  0.00081  0.70166  1.0000
  H   H102      1.0  0.02626  0.09907  0.72008  1.0000
  H   H103      1.0  0.43409  0.17882  0.62735  1.0000
  C   C58       1.0  0.09833  0.18727  0.52341  1.0000
  C   C59       1.0  0.44078  0.14139  0.64681  1.0000
  N   N5        1.0  0.23382  0.06888  0.58212  1.0000
  H   H104      1.0  0.01205  0.01735  0.71265  1.0000
  C   C60       1.0  0.21171  0.07048  0.58883  1.0000
  H   H105      1.0  0.23703  0.09782  0.59105  1.0000
  H   H106      1.0  0.13482  0.03009  0.57292  1.0000
  H   H107      1.0  0.13303  0.21549  0.53419  1.0000
  H   H108      1.0  0.10198  0.19155  0.56185  1.0000
  C   C61       1.0  0.11543  0.18330  0.55335  1.0000
  S   S29       1.0  0.42100  0.01050  0.59668  1.0000
  H   H109      1.0  0.10585  0.22138  0.53624  1.0000
  C   C62       1.0  0.01216  0.01894  0.72894  1.0000
  C   C63       1.0  0.30049  0.00696  0.59939  1.0000
  C   C64       1.0  0.30980  0.00838  0.57931  1.0000
  H   H110      1.0  0.00178  0.26144  0.58655  1.0000
  H   H111      1.0  0.12026  0.21847  0.51184  1.0000
  H   H112      1.0  0.00653  0.10477  0.70383  1.0000
  H   H113      1.0  0.11862  0.00281  0.72321  1.0000
  N   N6        1.0  0.01032  0.12931  0.71997  1.0000
  C   C65       1.0  0.01361  0.14413  0.49547  1.0000
  H   H114      1.0  0.99756  0.12228  0.62125  1.0000
  H   H115      1.0  0.02153  0.13591  0.68840  1.0000
  H   H116      1.0  0.99770  0.08506  0.62935  1.0000
  H   H117      1.0  0.49419  0.30157  0.53905  1.0000
  H   H118      1.0  0.00004  0.10023  0.73078  1.0000
  S   S30       1.0  0.49269  0.16135  0.64666  1.0000
  C   C66       1.0  0.49187  0.31336  0.68036  1.0000
  C   C67       1.0  0.04199  0.99533  0.67227  1.0000
  H   H119      1.0  0.15290  0.99721  0.64071  1.0000
  C   C68       1.0  0.02317  0.32275  0.73029  1.0000
  H   H120      1.0  0.38820  0.32467  0.59375  1.0000
  H   H121      1.0  0.13819  0.99511  0.59205  1.0000
  C   C69       1.0  0.12171  0.99781  0.59776  1.0000
  H   H122      1.0  0.49318  0.21263  0.56337  1.0000
  Fe  Fe16      1.0  0.02597  0.09061  0.86161  1.0000
  S   S31       1.0  0.03593  0.10999  0.83278  1.0000
  S   S32       1.0  0.04289  0.06056  0.87342  1.0000
  H   H123      1.0  0.09420  0.10506  0.84961  1.0000
  C   C70       1.0  0.00788  0.00296  0.76356  1.0000
  H   H124      1.0  0.44933  0.07712  0.90374  1.0000
  Fe  Fe17      1.0  0.02782  0.13596  0.85191  1.0000
  S   S33       1.0  0.04853  0.16092  0.84795  1.0000
  C   C71       1.0  0.47196  0.15944  0.85937  1.0000
  S   S34       1.0  0.01976  0.11627  0.88107  1.0000
  S   S35       1.0  0.13580  0.03242  0.84386  1.0000
  H   H125      1.0  0.46196  0.04168  0.80785  1.0000
  H   H126      1.0  0.44031  0.21752  0.94151  1.0000
  Fe  Fe18      1.0  0.05943  0.25442  0.90782  1.0000
  S   S36       1.0  0.03681  0.27888  0.89431  1.0000
  S   S37       1.0  0.05358  0.22115  0.91268  1.0000
  Fe  Fe19      1.0  0.08274  0.28631  0.92203  1.0000
  H   H127      1.0  0.99563  0.30288  0.75608  1.0000
  S   S38       1.0  0.10580  0.29156  0.94226  1.0000
  Fe  Fe20      1.0  0.03647  0.29348  0.92256  1.0000
  S   S39       1.0  0.00847  0.30931  0.93952  1.0000
  Fe  Fe21      1.0  0.06429  0.29494  0.88277  1.0000
  H   H128      1.0  0.47035  0.08976  0.93626  1.0000
  S   S40       1.0  0.05735  0.26835  0.93693  1.0000
  S   S41       1.0  0.08725  0.26966  0.89435  1.0000
  Fe  Fe22      1.0  0.45450  0.17520  0.91879  1.0000
  S   S42       1.0  0.43337  0.17181  0.94793  1.0000
  S   S43       1.0  0.45382  0.20341  0.89570  1.0000
  C   C72       1.0  0.48848  0.23863  0.91795  1.0000
  S   S44       1.0  0.45907  0.12701  0.95817  1.0000
  H   H129      1.0  0.03120  0.12448  0.74237  1.0000
  Fe  Fe23      1.0  0.43221  0.13975  0.94152  1.0000
  S   S45       1.0  0.40498  0.12198  0.95070  1.0000
  Fe  Fe24      1.0  0.46180  0.15923  0.96202  1.0000
  H   H130      1.0  0.45273  0.02153  0.79778  1.0000
  S   S46       1.0  0.45056  0.14437  0.91087  1.0000
  C   C73       1.0  0.05724  0.31290  0.96762  1.0000
  C   C74       1.0  0.49326  0.01945  0.78802  1.0000
  S   S47       1.0  0.33920  0.02692  0.88471  1.0000
  H   H131      1.0  0.48931  0.17352  0.88787  1.0000
  Fe  Fe25      1.0  0.32649  0.01187  0.94193  1.0000
  S   S48       1.0  0.31520  0.04263  0.92662  1.0000
  C   C75       1.0  0.48286  0.09529  0.86852  1.0000
  Fe  Fe26      1.0  0.30828  0.02541  0.90237  1.0000
  S   S49       1.0  0.28085  0.03527  0.88516  1.0000
  Fe  Fe27      1.0  0.34694  0.04209  0.91018  1.0000
  S   S50       1.0  0.36268  0.07043  0.89888  1.0000
  H   H132      1.0  0.13404  0.29503  0.96857  1.0000
  S   S51       1.0  0.35889  0.01252  0.92746  1.0000
  H   H133      1.0  0.49448  0.03514  0.82270  1.0000
  N   N7        1.0  0.08615  0.11460  0.87939  1.0000
  H   H134      1.0  0.46977  0.10837  0.89571  1.0000
  H   H135      1.0  0.41487  0.21985  0.98339  1.0000
  H   H136      1.0  0.42466  0.07596  0.91803  1.0000
  H   H137      1.0  0.43869  0.09658  0.91958  1.0000
  N   N8        1.0  0.49320  0.16374  0.85820  1.0000
  C   C76       1.0  0.39369  0.10765  0.93590  1.0000
  C   C77       1.0  0.38201  0.09243  0.94583  1.0000
  C   C78       1.0  0.37278  0.08060  0.93474  1.0000
  C   C79       1.0  0.37483  0.08415  0.91354  1.0000
  C   C80       1.0  0.38642  0.09944  0.90358  1.0000
  C   C81       1.0  0.39591  0.11107  0.91468  1.0000
  H   H138      1.0  0.38003  0.08980  0.96226  1.0000
  H   H139      1.0  0.36379  0.06898  0.94261  1.0000
  H   H140      1.0  0.38801  0.10236  0.88718  1.0000
  H   H141      1.0  0.40467  0.12287  0.90684  1.0000
  H   H142      1.0  0.10882  0.06769  0.83160  1.0000
  H   H143      1.0  0.10552  0.01272  0.87271  1.0000
  H   H144      1.0  0.07423  0.13016  0.90546  1.0000
  C   C82       1.0  0.44019  0.07995  0.91851  1.0000
  H   H145      1.0  0.48546  0.01582  0.77558  1.0000
  H   H146      1.0  0.07234  0.07884  0.84242  1.0000
  C   C83       1.0  0.01670  0.31229  0.83124  1.0000
  N   N9        1.0  0.05665  0.29994  0.98739  1.0000
  H   H147      1.0  0.48475  0.19608  0.85640  1.0000
  H   H148      1.0  0.02234  0.00780  0.76651  1.0000
  H   H149      1.0  0.15774  0.31965  0.96997  1.0000
  H   H150      1.0  0.00584  0.30159  0.83179  1.0000
  H   H151      1.0  0.43399  0.19949  0.97670  1.0000
  H   H152      1.0  0.43480  0.04179  0.93465  1.0000
  H   H153      1.0  0.44603  0.24327  0.93810  1.0000
  H   H154      1.0  0.43678  0.08936  0.95687  1.0000
  C   C84       1.0  0.46303  0.24286  0.88768  1.0000
  C   C85       1.0  0.46652  0.22392  0.89943  1.0000
  N   N10       1.0  0.48210  0.01365  0.80818  1.0000
  C   C86       1.0  0.01573  0.13216  0.73997  1.0000
  C   C87       1.0  0.47965  0.22181  0.91429  1.0000
  H   H155      1.0  0.45297  0.24466  0.87606  1.0000
  H   H156      1.0  0.47506  0.23265  0.95966  1.0000
  H   H157      1.0  0.48021  0.06970  0.92117  1.0000
  C   C88       1.0  0.14807  0.32218  0.95798  1.0000
  H   H158      1.0  0.07858  0.14656  0.88205  1.0000
  C   C89       1.0  0.43997  0.24897  0.97739  1.0000
  C   C90       1.0  0.26347  0.01792  0.88352  1.0000
  C   C91       1.0  0.24823  0.02347  0.87061  1.0000
  C   C92       1.0  0.23471  0.00968  0.86848  1.0000
  H   H159      1.0  0.42362  0.25527  0.97838  1.0000
  H   H160      1.0  0.24694  0.03845  0.86210  1.0000
  H   H161      1.0  0.22316  0.01407  0.85836  1.0000
  H   H162      1.0  0.48528  0.01421  0.83959  1.0000
  C   C93       1.0  0.04797  0.17869  0.86554  1.0000
  C   C94       1.0  0.03823  0.17559  0.88540  1.0000
  C   C95       1.0  0.03984  0.18892  0.89952  1.0000
  C   C96       1.0  0.05063  0.20586  0.89383  1.0000
  C   C97       1.0  0.05984  0.20931  0.87379  1.0000
  C   C98       1.0  0.05873  0.19564  0.85982  1.0000
  H   H163      1.0  0.02977  0.16273  0.89003  1.0000
  H   H164      1.0  0.03268  0.18611  0.91498  1.0000
  H   H165      1.0  0.06834  0.22216  0.86923  1.0000
  H   H166      1.0  0.06637  0.19816  0.84452  1.0000
  C   C99       1.0  0.06837  0.05244  0.86413  1.0000
  C   C100      1.0  0.07783  0.03369  0.87249  1.0000
  C   C101      1.0  0.09836  0.02713  0.86608  1.0000
  C   C102      1.0  0.10966  0.03945  0.85145  1.0000
  C   C103      1.0  0.10018  0.05817  0.84302  1.0000
  C   C104      1.0  0.07955  0.06454  0.84915  1.0000
  H   H167      1.0  0.06927  0.02423  0.88406  1.0000
  C   C105      1.0  0.47041  0.07326  0.93540  1.0000
  H   H168      1.0  0.06876  0.11752  0.85435  1.0000
  N   N11       1.0  0.30307  0.09622  0.88785  1.0000
  C   C106      1.0  0.28398  0.08781  0.89658  1.0000
  C   C107      1.0  0.31619  0.08132  0.87593  1.0000
  C   C108      1.0  0.31383  0.10044  0.90437  1.0000
  C   C109      1.0  0.29833  0.11525  0.87444  1.0000
  H   H169      1.0  0.27565  0.08412  0.88453  1.0000
  H   H170      1.0  0.27361  0.09859  0.90567  1.0000
  H   H171      1.0  0.28697  0.07338  0.90672  1.0000
  H   H172      1.0  0.32015  0.06697  0.88572  1.0000
  H   H173      1.0  0.30852  0.07740  0.86352  1.0000
  H   H174      1.0  0.33082  0.08702  0.86914  1.0000
  H   H175      1.0  0.32847  0.10652  0.89829  1.0000
  H   H176      1.0  0.31780  0.08638  0.91472  1.0000
  H   H177      1.0  0.30447  0.11162  0.91375  1.0000
  H   H178      1.0  0.31244  0.12193  0.86759  1.0000
  H   H179      1.0  0.28844  0.12686  0.88295  1.0000
  H   H180      1.0  0.29026  0.11256  0.86178  1.0000
  H   H181      1.0  0.47019  0.21751  0.98373  1.0000
  H   H182      1.0  0.45936  0.04200  0.91986  1.0000
  C   C110      1.0  0.48437  0.25775  0.90679  1.0000
  H   H183      1.0  0.07060  0.32160  0.96473  1.0000
  H   H184      1.0  0.11356  0.12873  0.87593  1.0000
  C   C111      1.0  0.12217  0.31057  0.94164  1.0000
  H   H185      1.0  0.06290  0.09452  0.88564  1.0000
  H   H186      1.0  0.03983  0.27837  0.97837  1.0000
  H   H187      1.0  0.01502  0.26671  0.95567  1.0000
  H   H188      1.0  0.08833  0.08193  0.88234  1.0000
  C   C112      1.0  0.46537  0.22138  0.96827  1.0000
  C   C113      1.0  0.07359  0.13162  0.88882  1.0000
  H   H189      1.0  0.46701  0.16077  0.84401  1.0000
  C   C114      1.0  0.48365  0.10297  0.88683  1.0000
  C   C115      1.0  0.43742  0.23203  0.94844  1.0000
  C   C116      1.0  0.43729  0.07300  0.95503  1.0000
  H   H190      1.0  0.45249  0.02068  0.82457  1.0000
  Fe  Fe28      1.0  0.47731  0.13350  0.92791  1.0000
  H   H191      1.0  0.03674  0.29154  0.84923  1.0000
  H   H192      1.0  0.47010  0.14376  0.86680  1.0000
  C   C117      1.0  0.03407  0.30665  0.84120  1.0000
  C   C118      1.0  0.13458  0.30815  0.95718  1.0000
  H   H193      1.0  0.99539  0.01499  0.76796  1.0000
  S   S52       1.0  0.31694  0.99480  0.91903  1.0000
  H   H194      1.0  0.07886  0.09285  0.90534  1.0000
  C   C119      1.0  0.99708  0.29514  0.96121  1.0000
  C   C120      1.0  0.47192  0.25974  0.89132  1.0000
  S   S53       1.0  0.06152  0.31224  0.90958  1.0000
  C   C121      1.0  0.08469  0.11742  0.85736  1.0000
  S   S54       1.0  0.48278  0.16445  0.93328  1.0000
  H   H195      1.0  0.30691  0.00024  0.87029  1.0000
  H   H196      1.0  0.46857  0.27443  0.88266  1.0000
  C   C122      1.0  0.00377  0.27453  0.96605  1.0000
  H   H197      1.0  0.08926  0.29338  0.98518  1.0000
  S   S55       1.0  0.31614  0.00256  0.97489  1.0000
  C   C123      1.0  0.10757  0.11425  0.88272  1.0000
  H   H198      1.0  0.48281  0.20730  0.92321  1.0000
  H   H199      1.0  0.02340  0.31770  0.78152  1.0000
  S   S56       1.0  0.99592  0.14158  0.84424  1.0000
  C   C124      1.0  0.04822  0.32040  0.84031  1.0000
  H   H200      1.0  0.32117  0.00133  0.84548  1.0000
  H   H201      1.0  0.05736  0.13237  0.88647  1.0000
  H   H202      1.0  0.42096  0.23755  0.94850  1.0000
  N   N12       1.0  0.44355  0.22923  0.96911  1.0000
  C   C125      1.0  0.45034  0.04615  0.93429  1.0000
  H   H203      1.0  0.00226  0.24840  0.98867  1.0000
  C   C126      1.0  0.46144  0.02496  0.80965  1.0000
  H   H204      1.0  0.42126  0.06997  0.95559  1.0000
  H   H205      1.0  0.40282  0.01263  0.83770  1.0000
  H   H206      1.0  0.37832  0.00665  0.86863  1.0000
  C   C127      1.0  0.07876  0.09516  0.88860  1.0000
  H   H207      1.0  0.46836  0.09493  0.86325  1.0000
  H   H208      1.0  0.11746  0.10160  0.87571  1.0000
  N   N13       1.0  0.44957  0.06808  0.93582  1.0000
  H   H209      1.0  0.08957  0.13223  0.84998  1.0000
  H   H210      1.0  0.45742  0.03671  0.94707  1.0000
  H   H211      1.0  0.10922  0.11214  0.89920  1.0000
  H   H212      1.0  0.47792  0.06486  0.94841  1.0000
  H   H213      1.0  0.46128  0.17023  0.86827  1.0000
  H   H214      1.0  0.44878  0.26042  0.96759  1.0000
  H   H215      1.0  0.46888  0.20721  0.96079  1.0000
  H   H216      1.0  0.03081  0.29858  0.76471  1.0000
  H   H217      1.0  0.27612  0.99427  0.90490  1.0000
  Fe  Fe29      1.0  0.34846  0.99757  0.90334  1.0000
  H   H218      1.0  0.44361  0.06403  0.96847  1.0000
  C   C128      1.0  0.43145  0.21458  0.98240  1.0000
  N   N14       1.0  0.00849  0.99983  0.74206  1.0000
  H   H219      1.0  0.05860  0.30363  0.95489  1.0000
  C   C129      1.0  0.38616  0.99391  0.86126  1.0000
  H   H220      1.0  0.49080  0.18639  0.83227  1.0000
  H   H221      1.0  0.07698  0.27538  0.97545  1.0000
  S   S57       1.0  0.07000  0.31370  0.85259  1.0000
  Fe  Fe30      1.0  0.00292  0.11380  0.82788  1.0000
  C   C130      1.0  0.26485  0.99854  0.89452  1.0000
  C   C131      1.0  0.40012  0.99727  0.84382  1.0000
  H   H222      1.0  0.04314  0.32379  0.96656  1.0000
  C   C132      1.0  0.02913  0.31524  0.76549  1.0000
  C   C133      1.0  0.07541  0.28539  0.98773  1.0000
  C   C134      1.0  0.99643  0.26414  0.98471  1.0000
  H   H223      1.0  0.14536  0.99380  0.74655  1.0000
  C   C135      1.0  0.49315  0.01855  0.82417  1.0000
  H   H224      1.0  0.04456  0.32026  0.76212  1.0000
  H   H225      1.0  0.00496  0.12576  0.75266  1.0000
  S   S58       1.0  0.49305  0.27900  0.91442  1.0000
  H   H226      1.0  0.01544  0.14855  0.74156  1.0000
  Fe  Fe31      1.0  0.15097  0.00016  0.85089  1.0000
  C   C136      1.0  0.99491  0.31949  0.75671  1.0000
  H   H227      1.0  0.02439  0.29900  0.98962  1.0000
  H   H228      1.0  0.33339  0.56588  0.02120  1.0000
  C   C137      1.0  0.01095  0.36901  0.12052  1.0000
  S   S59       1.0  0.44781  0.63080  0.09355  1.0000
  H   H229      1.0  0.00410  0.40981  0.11223  1.0000
  Fe  Fe32      1.0  0.40049  0.59966  0.00383  1.0000
  S   S60       1.0  0.37632  0.62415  0.01349  1.0000
  S   S61       1.0  0.42649  0.58706  0.02200  1.0000
  C   C138      1.0  0.00329  0.62412  0.12761  1.0000
  S   S62       1.0  0.49219  0.60166  0.12569  1.0000
  C   C139      1.0  0.15043  0.60675  0.01297  1.0000
  H   H230      1.0  0.45096  0.63781  0.03360  1.0000
  Fe  Fe33      1.0  0.03725  0.53050  0.17915  1.0000
  S   S63       1.0  0.06403  0.51324  0.19301  1.0000
  H   H231      1.0  0.33524  0.62926  0.04223  1.0000
  Fe  Fe34      1.0  0.05835  0.56824  0.16709  1.0000
  S   S64       1.0  0.08693  0.55454  0.18016  1.0000
  S   S65       1.0  0.05621  0.59802  0.14721  1.0000
  Fe  Fe35      1.0  0.08326  0.52718  0.16573  1.0000
  S   S66       1.0  0.10897  0.50815  0.14852  1.0000
  H   H232      1.0  0.09896  0.58665  0.06519  1.0000
  S   S67       1.0  0.05620  0.54184  0.15066  1.0000
  S   S68       1.0  0.03729  0.55823  0.19467  1.0000
  Fe  Fe36      1.0  0.23635  0.53461  0.03294  1.0000
  S   S69       1.0  0.22486  0.52265  0.00759  1.0000
  S   S70       1.0  0.27071  0.53383  0.03021  1.0000
  Fe  Fe37      1.0  0.19385  0.53756  0.05782  1.0000
  S   S71       1.0  0.17941  0.52547  0.03427  1.0000
  S   S72       1.0  0.17587  0.55016  0.08584  1.0000
  Fe  Fe38      1.0  0.20768  0.50305  0.03180  1.0000
  S   S73       1.0  0.21085  0.47021  0.02620  1.0000
  Fe  Fe39      1.0  0.19789  0.54603  0.01207  1.0000
  H   H233      1.0  0.12347  0.50277  0.23779  1.0000
  S   S74       1.0  0.22080  0.51325  0.05727  1.0000
  S   S75       1.0  0.21062  0.55996  0.03542  1.0000
  C   C140      1.0  0.14529  0.48884  0.19193  1.0000
  H   H234      1.0  0.00871  0.36165  0.16112  1.0000
  C   C141      1.0  0.16401  0.58939  0.00904  1.0000
  H   H235      1.0  0.14744  0.61110  0.02817  1.0000
  S   S76       1.0  0.00801  0.63750  0.05322  1.0000
  H   H236      1.0  0.17133  0.58035  0.02124  1.0000
  H   H237      1.0  0.09768  0.49583  0.21739  1.0000
  Fe  Fe40      1.0  0.47973  0.62614  0.10260  1.0000
  C   C142      1.0  0.19570  0.46471  0.00882  1.0000
  C   C143      1.0  0.00126  0.45289  0.17668  1.0000
  S   S77       1.0  0.12441  0.64052  0.00218  1.0000
  Fe  Fe41      1.0  0.06569  0.54189  0.20660  1.0000
  H   H238      1.0  0.03981  0.37511  0.14281  1.0000
  C   C144      1.0  0.01565  0.64809  0.02830  1.0000
  H   H239      1.0  0.11811  0.39659  0.01245  1.0000
  H   H240      1.0  0.14074  0.49075  0.17630  1.0000
  C   C145      1.0  0.15638  0.40476  0.00023  1.0000
  C   C146      1.0  0.03069  0.60824  0.14677  1.0000
  C   C147      1.0  0.01696  0.60730  0.16456  1.0000
  H   H241      1.0  0.12062  0.58685  0.07820  1.0000
  C   C148      1.0  0.02386  0.61679  0.12832  1.0000
  H   H242      1.0  0.02221  0.60090  0.17889  1.0000
  C   C149      1.0  0.99650  0.61530  0.16394  1.0000
  H   H243      1.0  0.03432  0.61740  0.11448  1.0000
  H   H244      1.0  0.47297  0.64908  0.02166  1.0000
  C   C150      1.0  0.02229  0.47974  0.17754  1.0000
  C   C151      1.0  0.03007  0.38889  0.13691  1.0000
  H   H245      1.0  0.13526  0.37939  0.02701  1.0000
  C   C152      1.0  0.47123  0.59264  0.22421  1.0000
  H   H246      1.0  0.14871  0.47224  0.19660  1.0000
  H   H247      1.0  0.03703  0.48439  0.17806  1.0000
  H   H248      1.0  0.16846  0.36482  0.01014  1.0000
  N   N15       1.0  0.14697  0.38735  0.99583  1.0000
  C   C153      1.0  0.12765  0.51984  0.13122  1.0000
  C   C154      1.0  0.13790  0.50966  0.11503  1.0000
  C   C155      1.0  0.15281  0.51865  0.10101  1.0000
  C   C156      1.0  0.15789  0.53771  0.10336  1.0000
  C   C157      1.0  0.14798  0.54762  0.11985  1.0000
  C   C158      1.0  0.13276  0.53887  0.13359  1.0000
  H   H249      1.0  0.13415  0.49485  0.11318  1.0000
  H   H250      1.0  0.16042  0.51082  0.08843  1.0000
  H   H251      1.0  0.15205  0.56225  0.12190  1.0000
  H   H252      1.0  0.12520  0.54674  0.14614  1.0000
  C   C159      1.0  0.30733  0.58836  0.01802  1.0000
  C   C160      1.0  0.28604  0.59156  0.01889  1.0000
  C   C161      1.0  0.27452  0.57503  0.02280  1.0000
  C   C162      1.0  0.28426  0.55519  0.02600  1.0000
  C   C163      1.0  0.30554  0.55203  0.02532  1.0000
  C   C164      1.0  0.31704  0.56853  0.02144  1.0000
  C   C165      1.0  0.99719  0.40302  0.12725  1.0000
  H   H253      1.0  0.25814  0.57761  0.02335  1.0000
  H   H254      1.0  0.24505  0.46467  0.99214  1.0000
  H   H255      1.0  0.13873  0.52816  0.19899  1.0000
  C   C166      1.0  0.44190  0.61795  0.07418  1.0000
  C   C167      1.0  0.42267  0.62276  0.06741  1.0000
  C   C168      1.0  0.41765  0.61326  0.05161  1.0000
  C   C169      1.0  0.43181  0.59875  0.04251  1.0000
  C   C170      1.0  0.45096  0.59378  0.04943  1.0000
  C   C171      1.0  0.45605  0.60341  0.06512  1.0000
  H   H256      1.0  0.41162  0.63390  0.07445  1.0000
  H   H257      1.0  0.40277  0.61700  0.04665  1.0000
  H   H258      1.0  0.46197  0.58249  0.04257  1.0000
  H   H259      1.0  0.47086  0.59949  0.07029  1.0000
  S   S78       1.0  0.32118  0.60954  0.01233  1.0000
  C   C172      1.0  0.46353  0.59785  0.20547  1.0000
  C   C173      1.0  0.47506  0.60763  0.18865  1.0000
  Fe  Fe42      1.0  0.35486  0.60776  0.00059  1.0000
  H   H260      1.0  0.11250  0.52788  0.20948  1.0000
  C   C174      1.0  0.42791  0.64967  0.00348  1.0000
  H   H261      1.0  0.44839  0.59467  0.20406  1.0000
  H   H262      1.0  0.46875  0.61199  0.17444  1.0000
  C   C175      1.0  0.17664  0.47572  0.00662  1.0000
  C   C176      1.0  0.12995  0.38317  0.01177  1.0000
  H   H263      1.0  0.02922  0.40039  0.14772  1.0000
  H   H264      1.0  0.09433  0.57363  0.12985  1.0000
  H   H265      1.0  0.14537  0.41887  0.00027  1.0000
  C   C177      1.0  0.12508  0.52029  0.19933  1.0000
  H   H266      1.0  0.31315  0.53671  0.02793  1.0000
  C   C178      1.0  0.03634  0.64561  0.02078  1.0000
  H   H267      1.0  0.21736  0.43999  0.99912  1.0000
  N   N16       1.0  0.00956  0.38420  0.13488  1.0000
  N   N17       1.0  0.45027  0.64852  0.00197  1.0000
  H   H268      1.0  0.99802  0.62977  0.11317  1.0000
  S   S79       1.0  0.00676  0.52029  0.17756  1.0000
  H   H269      1.0  0.02011  0.35457  0.12581  1.0000
  C   C179      1.0  0.45617  0.65021  0.02206  1.0000
  C   C180      1.0  0.99990  0.37593  0.15493  1.0000
  C   C181      1.0  0.16231  0.36918  0.99536  1.0000
  H   H270      1.0  0.09962  0.60667  0.08035  1.0000
  H   H271      1.0  0.03364  0.44789  0.17770  1.0000
  C   C182      1.0  0.02035  0.45908  0.17729  1.0000
  H   H272      1.0  0.01800  0.37474  0.10514  1.0000
  C   C183      1.0  0.14076  0.61843  0.99728  1.0000
  H   H273      1.0  0.42213  0.63669  0.01383  1.0000
  H   H274      1.0  0.11268  0.47222  0.21229  1.0000
  C   C184      1.0  0.11034  0.48877  0.20695  1.0000
  H   H275      1.0  0.09558  0.59926  0.11835  1.0000
  H   H276      1.0  0.03786  0.39525  0.12210  1.0000
  S   S80       1.0  0.99904  0.42693  0.17655  1.0000
  H   H277      1.0  0.04719  0.63683  0.03012  1.0000
  N   N18       1.0  0.12909  0.49835  0.20626  1.0000
  H   H278      1.0  0.17087  0.48770  0.01600  1.0000
  H   H279      1.0  0.99556  0.41475  0.13786  1.0000
  C   C185      1.0  0.00511  0.49426  0.17718  1.0000
  H   H280      1.0  0.47653  0.62754  0.99350  1.0000
  H   H281      1.0  0.15963  0.49583  0.19084  1.0000
  H   H282      1.0  0.27838  0.60686  0.01640  1.0000
  H   H283      1.0  0.12069  0.52286  0.18368  1.0000
  H   H284      1.0  0.12255  0.37011  0.00884  1.0000
  H   H285      1.0  0.16231  0.40172  0.01520  1.0000
  H   H286      1.0  0.00272  0.56251  0.12073  1.0000
  H   H287      1.0  0.29594  0.65674  0.05338  1.0000
  C   C186      1.0  0.13550  0.49559  0.22679  1.0000
  H   H288      1.0  0.45503  0.61583  0.00633  1.0000
  H   H289      1.0  0.10519  0.49041  0.19163  1.0000
  S   S81       1.0  0.07280  0.53678  0.23929  1.0000
  H   H290      1.0  0.99867  0.38693  0.16621  1.0000
  S   S82       1.0  0.48987  0.65132  0.11646  1.0000
  C   C187      1.0  0.49089  0.59664  0.22574  1.0000
  N   N19       1.0  0.09401  0.57793  0.09747  1.0000
  C   C188      1.0  0.07166  0.58255  0.09860  1.0000
  C   C189      1.0  0.09997  0.55605  0.09578  1.0000
  C   C190      1.0  0.10072  0.58308  0.11604  1.0000
  C   C191      1.0  0.10371  0.59007  0.07951  1.0000
  H   H291      1.0  0.06664  0.59890  0.10021  1.0000
  H   H292      1.0  0.06392  0.57364  0.11202  1.0000
  H   H293      1.0  0.06595  0.57908  0.08480  1.0000
  H   H294      1.0  0.11679  0.55221  0.09408  1.0000
  H   H295      1.0  0.09368  0.54640  0.10950  1.0000
  H   H296      1.0  0.09452  0.55146  0.08234  1.0000
  H   H297      1.0  0.11755  0.58070  0.11537  1.0000
  H   H298      1.0  0.30234  0.64454  0.03075  1.0000
  H   H299      1.0  0.32888  0.64140  0.06489  1.0000
  S   S83       1.0  0.37848  0.58142  0.99368  1.0000
  H   H300      1.0  0.05726  0.57982  0.23307  1.0000
  C   C192      1.0  0.45964  0.62884  0.99522  1.0000
  C   C193      1.0  0.20283  0.44882  0.99709  1.0000
  C   C194      1.0  0.49426  0.61261  0.19058  1.0000
  H   H301      1.0  0.33448  0.64978  0.00840  1.0000
  C   C195      1.0  0.04317  0.65486  0.00141  1.0000
  H   H302      1.0  0.00521  0.55475  0.14712  1.0000
  H   H303      1.0  0.05922  0.65316  0.99595  1.0000
  H   H304      1.0  0.99553  0.36525  0.11894  1.0000
  H   H305      1.0  0.15583  0.35586  0.99161  1.0000
  H   H306      1.0  0.13851  0.47919  0.23260  1.0000
  H   H307      1.0  0.00110  0.58116  0.13793  1.0000
  C   C196      1.0  0.99690  0.56599  0.13639  1.0000
  C   C197      1.0  0.47639  0.65304  0.23642  1.0000
  H   H308      1.0  0.47929  0.63987  0.22744  1.0000
  C   C198      1.0  0.16471  0.47069  0.99280  1.0000
  H   H309      1.0  0.35224  0.64514  0.04879  1.0000
  H   H310      1.0  0.14960  0.50265  0.22686  1.0000
  C   C199      1.0  0.33589  0.64355  0.04879  1.0000
  H   H311      1.0  0.14967  0.47874  0.99170  1.0000
  H   H312      1.0  0.17207  0.64845  0.99515  1.0000
  C   C200      1.0  0.30380  0.65847  0.03758  1.0000
  H   H313      1.0  0.36628  0.50841  0.37322  1.0000
  S   S84       1.0  0.46967  0.54430  0.29417  1.0000
  H   H314      1.0  0.46589  0.56373  0.38999  1.0000
  C   C201      1.0  0.38376  0.59654  0.47399  1.0000
  S   S85       1.0  0.44761  0.58946  0.30426  1.0000
  Fe  Fe43      1.0  0.00319  0.57989  0.37064  1.0000
  Fe  Fe44      1.0  0.45458  0.55884  0.32195  1.0000
  S   S86       1.0  0.43350  0.54392  0.34769  1.0000
  Fe  Fe45      1.0  0.46540  0.57577  0.27718  1.0000
  H   H315      1.0  0.03252  0.60824  0.48340  1.0000
  H   H316      1.0  0.44738  0.63839  0.26392  1.0000
  C   C202      1.0  0.44960  0.59592  0.36643  1.0000
  Fe  Fe46      1.0  0.34074  0.57682  0.47546  1.0000
  S   S87       1.0  0.35480  0.55653  0.45204  1.0000
  H   H317      1.0  0.34060  0.51051  0.36747  1.0000
  Fe  Fe47      1.0  0.30268  0.59132  0.45485  1.0000
  S   S88       1.0  0.31334  0.57179  0.42971  1.0000
  S   S89       1.0  0.27428  0.61421  0.45560  1.0000
  Fe  Fe48      1.0  0.32324  0.54786  0.45462  1.0000
  S   S90       1.0  0.31900  0.51470  0.45813  1.0000
  Fe  Fe49      1.0  0.34404  0.58212  0.42933  1.0000
  S   S91       1.0  0.36235  0.59423  0.40013  1.0000
  C   C203      1.0  0.43243  0.58912  0.40038  1.0000
  S   S92       1.0  0.33269  0.60353  0.45271  1.0000
  H   H318      1.0  0.26215  0.57589  0.47648  1.0000
  S   S93       1.0  0.48167  0.62605  0.31917  1.0000
  H   H319      1.0  0.07951  0.57176  0.48291  1.0000
  H   H320      1.0  0.37332  0.51940  0.40499  1.0000
  H   H321      1.0  0.37644  0.59111  0.46274  1.0000
  H   H322      1.0  0.46659  0.61789  0.25813  1.0000
  S   S94       1.0  0.09562  0.63679  0.45677  1.0000
  H   H323      1.0  0.35589  0.50313  0.41966  1.0000
  Fe  Fe50      1.0  0.02995  0.59897  0.33433  1.0000
  S   S95       1.0  0.03571  0.57208  0.35767  1.0000
  S   S96       1.0  0.04182  0.60267  0.30064  1.0000
  C   C204      1.0  0.45564  0.61454  0.39297  1.0000
  Fe  Fe51      1.0  0.04269  0.59472  0.37694  1.0000
  S   S97       1.0  0.07161  0.58601  0.39188  1.0000
  S   S98       1.0  0.03900  0.62123  0.35274  1.0000
  C   C205      1.0  0.08940  0.62233  0.43878  1.0000
  C   C206      1.0  0.07286  0.62999  0.42799  1.0000
  C   C207      1.0  0.06703  0.61888  0.41384  1.0000
  C   C208      1.0  0.07789  0.60008  0.41016  1.0000
  C   C209      1.0  0.09445  0.59239  0.42094  1.0000
  C   C210      1.0  0.10013  0.60340  0.43529  1.0000
  H   H324      1.0  0.06449  0.64464  0.43058  1.0000
  H   H325      1.0  0.05431  0.62501  0.40559  1.0000
  H   H326      1.0  0.10297  0.57788  0.41812  1.0000
  H   H327      1.0  0.11296  0.59739  0.44341  1.0000
  C   C211      1.0  0.06261  0.55481  0.25633  1.0000
  H   H328      1.0  0.05573  0.61156  0.46708  1.0000
  C   C212      1.0  0.04983  0.58939  0.26306  1.0000
  C   C213      1.0  0.04872  0.58358  0.28412  1.0000
  C   C214      1.0  0.05436  0.56320  0.29128  1.0000
  C   C215      1.0  0.06154  0.54895  0.27742  1.0000
  H   H329      1.0  0.44736  0.58094  0.36220  1.0000
  H   H330      1.0  0.04556  0.60512  0.25736  1.0000
  H   H331      1.0  0.05359  0.55850  0.30744  1.0000
  H   H332      1.0  0.06625  0.53331  0.28305  1.0000
  C   C216      1.0  0.25030  0.60615  0.46488  1.0000
  C   C217      1.0  0.46851  0.57896  0.39333  1.0000
  H   H333      1.0  0.32075  0.50586  0.41218  1.0000
  H   H334      1.0  0.09070  0.57149  0.33962  1.0000
  C   C218      1.0  0.21329  0.61396  0.47036  1.0000
  C   C219      1.0  0.23258  0.61983  0.46268  1.0000
  C   C220      1.0  0.39905  0.60925  0.46779  1.0000
  H   H335      1.0  0.40326  0.61382  0.45180  1.0000
  H   H336      1.0  0.19969  0.62442  0.46829  1.0000
  H   H337      1.0  0.23380  0.63493  0.45480  1.0000
  H   H338      1.0  0.31493  0.47518  0.48150  1.0000
  H   H339      1.0  0.36115  0.54478  0.37614  1.0000
  H   H340      1.0  0.35270  0.52956  0.42236  1.0000
  H   H341      1.0  0.46348  0.60071  0.35686  1.0000
  C   C221      1.0  0.41390  0.55814  0.36225  1.0000
  C   C222      1.0  0.40547  0.54920  0.38124  1.0000
  C   C223      1.0  0.38996  0.56021  0.39328  1.0000
  C   C224      1.0  0.38241  0.58006  0.38612  1.0000
  C   C225      1.0  0.39092  0.58901  0.36721  1.0000
  C   C226      1.0  0.40662  0.57814  0.35534  1.0000
  H   H342      1.0  0.41119  0.53379  0.38676  1.0000
  H   H343      1.0  0.38383  0.55339  0.40803  1.0000
  H   H344      1.0  0.38517  0.60438  0.36159  1.0000
  H   H345      1.0  0.41287  0.58513  0.34069  1.0000
  H   H346      1.0  0.31201  0.52399  0.39180  1.0000
  N   N20       1.0  0.45153  0.59465  0.38829  1.0000
  S   S99       1.0  0.48407  0.56540  0.33059  1.0000
  S   S100      1.0  0.01056  0.60027  0.39207  1.0000
  S   S101      1.0  0.14831  0.63848  0.47941  1.0000
  C   C227      1.0  0.35019  0.50771  0.38010  1.0000
  S   S102      1.0  0.30985  0.56644  0.47976  1.0000
  N   N21       1.0  0.09723  0.60124  0.32559  1.0000
  C   C228      1.0  0.08797  0.61808  0.31179  1.0000
  C   C229      1.0  0.11801  0.59427  0.31652  1.0000
  C   C230      1.0  0.08481  0.58421  0.32861  1.0000
  C   C231      1.0  0.09810  0.60831  0.34539  1.0000
  Fe  Fe52      1.0  0.00632  0.62525  0.36632  1.0000
  H   H347      1.0  0.08655  0.61307  0.29690  1.0000
  H   H348      1.0  0.09698  0.63117  0.30888  1.0000
  H   H349      1.0  0.12532  0.58147  0.32653  1.0000
  H   H350      1.0  0.11785  0.58887  0.30154  1.0000
  H   H351      1.0  0.12784  0.60673  0.31407  1.0000
  H   H352      1.0  0.08413  0.57817  0.31407  1.0000
  H   H353      1.0  0.06891  0.58926  0.33465  1.0000
  H   H354      1.0  0.34223  0.55512  0.39488  1.0000
  H   H355      1.0  0.10472  0.59589  0.35630  1.0000
  H   H356      1.0  0.08268  0.61359  0.35275  1.0000
  H   H357      1.0  0.10734  0.62116  0.34378  1.0000
  C   C232      1.0  0.04815  0.60082  0.47900  1.0000
  H   H358      1.0  0.46993  0.61914  0.38405  1.0000
  H   H359      1.0  0.43318  0.58842  0.41696  1.0000
  C   C233      1.0  0.34556  0.54343  0.38412  1.0000
  H   H360      1.0  0.34900  0.49192  0.38759  1.0000
  H   H361      1.0  0.36311  0.64010  0.45033  1.0000
  H   H362      1.0  0.07228  0.62377  0.31822  1.0000
  Fe  Fe53      1.0  0.47802  0.59519  0.31124  1.0000
  N   N22       1.0  0.34383  0.52271  0.39473  1.0000
  H   H363      1.0  0.31723  0.53234  0.41465  1.0000
  H   H364      1.0  0.45744  0.61412  0.40931  1.0000
  C   C234      1.0  0.22937  0.58077  0.48265  1.0000
  C   C235      1.0  0.32252  0.52115  0.40364  1.0000
  H   H365      1.0  0.33485  0.54763  0.37252  1.0000
  C   C236      1.0  0.35708  0.51850  0.41109  1.0000
  H   H366      1.0  0.43653  0.60709  0.36210  1.0000
  H   H367      1.0  0.44316  0.62675  0.38932  1.0000
  H   H368      1.0  0.20571  0.65211  0.48748  1.0000
  N   N23       1.0  0.47794  0.64640  0.25819  1.0000
  H   H369      1.0  0.48310  0.58259  0.38434  1.0000
  S   S103      1.0  0.99676  0.60519  0.34585  1.0000
  S   S104      1.0  0.42250  0.63724  0.47495  1.0000
  H   H370      1.0  0.46365  0.62681  0.28250  1.0000
  C   C237      1.0  0.05646  0.57506  0.24924  1.0000
  C   C238      1.0  0.21167  0.59447  0.48059  1.0000
  C   C239      1.0  0.40780  0.61716  0.48232  1.0000
  H   H371      1.0  0.47062  0.57773  0.40966  1.0000
  C   C240      1.0  0.24861  0.58655  0.47479  1.0000
  H   H372      1.0  0.41916  0.60033  0.39658  1.0000
  Fe  Fe54      1.0  0.11806  0.62708  0.47987  1.0000
  H   H373      1.0  0.42916  0.57400  0.39746  1.0000
  H   H374      1.0  0.04688  0.58707  0.47182  1.0000
  H   H375      1.0  0.08889  0.59601  0.47869  1.0000
  C   C241      1.0  0.46324  0.63177  0.26602  1.0000
  S   S105      1.0  0.45556  0.58208  0.24552  1.0000
  H   H376      1.0  0.38436  0.65038  0.45695  1.0000
  C   C242      1.0  0.32625  0.50376  0.48188  1.0000
  H   H377      1.0  0.48729  0.65646  0.34382  1.0000
  H   H378      1.0  0.33911  0.53016  0.48691  1.0000
  H   H379      1.0  0.35017  0.63119  0.48597  1.0000
  C   C243      1.0  0.36813  0.65412  0.45429  1.0000
  H   H380      1.0  0.32778  0.65411  0.46375  1.0000
  C   C244      1.0  0.35580  0.64506  0.48954  1.0000
  H   H381      1.0  0.23332  0.65371  0.50756  1.0000
  Fe  Fe55      1.0  0.15831  0.60761  0.49533  1.0000
  C   C245      1.0  0.26243  0.50829  0.54949  1.0000
  S   S106      1.0  0.39745  0.62001  0.56903  1.0000
  S   S107      1.0  0.43802  0.63985  0.52865  1.0000
  Fe  Fe56      1.0  0.43726  0.51135  0.67837  1.0000
  S   S108      1.0  0.41069  0.49335  0.68200  1.0000
  H   H382      1.0  0.26671  0.47033  0.53864  1.0000
  Fe  Fe57      1.0  0.41167  0.55190  0.66783  1.0000
  S   S109      1.0  0.38306  0.53728  0.67094  1.0000
  S   S110      1.0  0.41138  0.58601  0.66013  1.0000
  Fe  Fe58      1.0  0.39401  0.51873  0.69896  1.0000
  Fe  Fe59      1.0  0.40222  0.51346  0.65391  1.0000
  S   S111      1.0  0.39216  0.50440  0.62608  1.0000
  S   S112      1.0  0.42117  0.53541  0.69724  1.0000
  S   S113      1.0  0.43027  0.52935  0.64885  1.0000
  Fe  Fe60      1.0  0.32361  0.45521  0.56522  1.0000
  S   S114      1.0  0.30466  0.43283  0.55738  1.0000
  S   S115      1.0  0.34012  0.47978  0.54632  1.0000
  Fe  Fe61      1.0  0.31465  0.44287  0.61056  1.0000
  S   S116      1.0  0.29474  0.41969  0.60686  1.0000
  S   S117      1.0  0.32049  0.44962  0.64099  1.0000
  Fe  Fe62      1.0  0.31932  0.41112  0.58175  1.0000
  S   S118      1.0  0.33060  0.37749  0.58221  1.0000
  Fe  Fe63      1.0  0.28185  0.44320  0.58320  1.0000
  S   S119      1.0  0.24930  0.45670  0.57973  1.0000
  S   S120      1.0  0.33999  0.43278  0.58730  1.0000
  S   S121      1.0  0.29994  0.46703  0.58916  1.0000
  Fe  Fe64      1.0  0.10197  0.46787  0.63683  1.0000
  S   S122      1.0  0.11570  0.45153  0.66406  1.0000
  S   S123      1.0  0.07747  0.45712  0.62213  1.0000
  Fe  Fe65      1.0  0.12615  0.50396  0.63463  1.0000
  S   S124      1.0  0.14177  0.49009  0.66184  1.0000
  S   S125      1.0  0.13516  0.53473  0.62087  1.0000
  Fe  Fe66      1.0  0.14520  0.46122  0.64740  1.0000
  S   S126      1.0  0.17393  0.43877  0.64579  1.0000
  Fe  Fe67      1.0  0.11098  0.48201  0.67588  1.0000
  S   S127      1.0  0.09390  0.48667  0.70712  1.0000
  S   S128      1.0  0.13173  0.47559  0.61925  1.0000
  S   S129      1.0  0.09515  0.49781  0.64956  1.0000
  C   C246      1.0  0.47568  0.47262  0.68088  1.0000
  Fe  Fe68      1.0  0.11835  0.60628  0.52324  1.0000
  S   S130      1.0  0.09815  0.58618  0.54475  1.0000
  S   S131      1.0  0.14824  0.61624  0.52675  1.0000
  H   H383      1.0  0.33517  0.40909  0.63187  1.0000
  C   C247      1.0  0.01975  0.45771  0.72170  1.0000
  S   S132      1.0  0.02195  0.33509  0.60383  1.0000
  H   H384      1.0  0.99778  0.38245  0.68363  1.0000
  Fe  Fe69      1.0  0.03192  0.35237  0.62694  1.0000
  S   S133      1.0  0.06198  0.36526  0.62475  1.0000
  C   C248      1.0  0.49252  0.46161  0.68932  1.0000
  C   C249      1.0  0.07167  0.43175  0.62543  1.0000
  C   C250      1.0  0.08342  0.41602  0.63604  1.0000
  C   C251      1.0  0.07992  0.39570  0.63624  1.0000
  C   C252      1.0  0.06406  0.39102  0.62661  1.0000
  C   C253      1.0  0.05161  0.40687  0.61695  1.0000
  C   C254      1.0  0.05557  0.42712  0.61616  1.0000
  H   H385      1.0  0.09551  0.41949  0.64363  1.0000
  H   H386      1.0  0.08957  0.38351  0.64379  1.0000
  H   H387      1.0  0.03953  0.40345  0.60927  1.0000
  H   H388      1.0  0.04638  0.43922  0.60796  1.0000
  C   C255      1.0  0.12504  0.54813  0.59923  1.0000
  C   C256      1.0  0.13449  0.56461  0.58868  1.0000
  C   C257      1.0  0.12658  0.57607  0.57173  1.0000
  C   C258      1.0  0.10890  0.57139  0.56543  1.0000
  C   C259      1.0  0.09934  0.55497  0.57608  1.0000
  C   C260      1.0  0.10749  0.54323  0.59283  1.0000
  H   H389      1.0  0.14802  0.56852  0.59359  1.0000
  H   H390      1.0  0.13397  0.58875  0.56376  1.0000
  H   H391      1.0  0.08565  0.55128  0.57130  1.0000
  H   H392      1.0  0.10007  0.53058  0.60089  1.0000
  H   H393      1.0  0.35669  0.39188  0.66856  1.0000
  H   H394      1.0  0.47796  0.39965  0.63283  1.0000
  C   C261      1.0  0.12029  0.50811  0.72187  1.0000
  H   H395      1.0  0.04767  0.56732  0.50653  1.0000
  H   H396      1.0  0.11679  0.57589  0.68000  1.0000
  H   H397      1.0  0.17406  0.64461  0.53763  1.0000
  H   H398      1.0  0.11547  0.57287  0.65397  1.0000
  H   H399      1.0  0.13119  0.50445  0.70899  1.0000
  Fe  Fe70      1.0  0.99729  0.34233  0.65947  1.0000
  C   C262      1.0  0.38367  0.34058  0.58900  1.0000
  H   H400      1.0  0.40930  0.61686  0.51429  1.0000
  C   C263      1.0  0.40242  0.61106  0.50297  1.0000
  C   C264      1.0  0.22847  0.45124  0.59807  1.0000
  C   C265      1.0  0.21035  0.46465  0.59824  1.0000
  C   C266      1.0  0.19363  0.46114  0.61295  1.0000
  C   C267      1.0  0.19479  0.44398  0.62743  1.0000
  C   C268      1.0  0.21282  0.43044  0.62713  1.0000
  C   C269      1.0  0.22963  0.43406  0.61253  1.0000
  H   H401      1.0  0.20928  0.47794  0.58706  1.0000
  H   H402      1.0  0.17982  0.47169  0.61302  1.0000
  H   H403      1.0  0.21376  0.41703  0.63817  1.0000
  H   H404      1.0  0.24337  0.42342  0.61230  1.0000
  C   C270      1.0  0.39233  0.37445  0.57712  1.0000
  C   C271      1.0  0.37164  0.38180  0.57664  1.0000
  C   C272      1.0  0.35682  0.36858  0.58227  1.0000
  C   C273      1.0  0.36293  0.34794  0.58842  1.0000
  H   H405      1.0  0.40369  0.38477  0.57248  1.0000
  H   H406      1.0  0.36723  0.39761  0.57148  1.0000
  H   H407      1.0  0.08917  0.58109  0.50312  1.0000
  H   H408      1.0  0.25499  0.52425  0.54928  1.0000
  C   C274      1.0  0.32642  0.47632  0.50991  1.0000
  C   C275      1.0  0.33529  0.48807  0.52122  1.0000
  C   C276      1.0  0.34010  0.50732  0.51260  1.0000
  H   H409      1.0  0.35156  0.33759  0.59274  1.0000
  H   H410      1.0  0.38099  0.37250  0.62035  1.0000
  H   H411      1.0  0.32307  0.46123  0.51633  1.0000
  H   H412      1.0  0.34710  0.51645  0.52112  1.0000
  C   C277      1.0  0.37212  0.48936  0.63086  1.0000
  C   C278      1.0  0.36392  0.48272  0.65066  1.0000
  C   C279      1.0  0.34791  0.47059  0.65387  1.0000
  C   C280      1.0  0.33999  0.46535  0.63727  1.0000
  C   C281      1.0  0.34801  0.47231  0.61755  1.0000
  C   C282      1.0  0.36418  0.48404  0.61436  1.0000
  H   H413      1.0  0.36997  0.48684  0.66348  1.0000
  H   H414      1.0  0.34173  0.46531  0.66918  1.0000
  H   H415      1.0  0.34182  0.46873  0.60464  1.0000
  H   H416      1.0  0.37058  0.48895  0.59905  1.0000
  H   H417      1.0  0.44070  0.64890  0.59558  1.0000
  H   H418      1.0  0.12578  0.53869  0.68808  1.0000
  H   H419      1.0  0.18099  0.64733  0.49994  1.0000
  H   H420      1.0  0.09404  0.58555  0.66857  1.0000
  C   C283      1.0  0.22161  0.65694  0.52065  1.0000
  H   H421      1.0  0.12533  0.53625  0.66193  1.0000
  S   S134      1.0  0.10554  0.63743  0.51021  1.0000
  C   C284      1.0  0.40209  0.61112  0.59426  1.0000
  C   C285      1.0  0.40200  0.59030  0.60095  1.0000
  C   C286      1.0  0.40502  0.58251  0.62102  1.0000
  C   C287      1.0  0.40798  0.59552  0.63470  1.0000
  C   C288      1.0  0.40805  0.61638  0.62807  1.0000
  C   C289      1.0  0.40506  0.62419  0.60792  1.0000
  H   H422      1.0  0.39954  0.58013  0.59056  1.0000
  H   H423      1.0  0.40480  0.56644  0.62598  1.0000
  H   H424      1.0  0.41006  0.62657  0.63865  1.0000
  H   H425      1.0  0.40440  0.64035  0.60315  1.0000
  N   N24       1.0  0.05973  0.59568  0.49664  1.0000
  N   N25       1.0  0.47771  0.36730  0.63549  1.0000
  S   S135      1.0  0.46915  0.49838  0.68418  1.0000
  H   H426      1.0  0.43505  0.63641  0.57532  1.0000
  S   S136      1.0  0.00075  0.36877  0.63532  1.0000
  H   H427      1.0  0.44725  0.60331  0.59443  1.0000
  H   H428      1.0  0.19410  0.64627  0.55232  1.0000
  H   H429      1.0  0.35371  0.41814  0.65795  1.0000
  H   H430      1.0  0.44983  0.35495  0.63447  1.0000
  H   H431      1.0  0.24051  0.51986  0.51814  1.0000
  H   H432      1.0  0.23740  0.49401  0.52833  1.0000
  H   H433      1.0  0.09630  0.55582  0.70784  1.0000
  C   C290      1.0  0.28121  0.51581  0.51641  1.0000
  H   H434      1.0  0.47599  0.64390  0.60475  1.0000
  H   H435      1.0  0.07355  0.56538  0.69631  1.0000
  H   H436      1.0  0.45113  0.65627  0.56995  1.0000
  H   H437      1.0  0.22863  0.65143  0.53481  1.0000
  S   S137      1.0  0.42474  0.34580  0.58398  1.0000
  H   H438      1.0  0.27444  0.53202  0.51536  1.0000
  H   H439      1.0  0.29099  0.47907  0.53768  1.0000
  C   C291      1.0  0.46747  0.38795  0.63820  1.0000
  H   H440      1.0  0.39477  0.37888  0.63921  1.0000
  H   H441      1.0  0.47260  0.59908  0.60139  1.0000
  H   H442      1.0  0.29580  0.51468  0.52292  1.0000
  H   H443      1.0  0.11021  0.52154  0.68110  1.0000
  C   C292      1.0  0.11572  0.53667  0.67681  1.0000
  C   C293      1.0  0.06156  0.61450  0.50515  1.0000
  C   C294      1.0  0.36366  0.40337  0.65705  1.0000
  H   H444      1.0  0.33861  0.38263  0.64161  1.0000
  N   N26       1.0  0.20328  0.64708  0.52011  1.0000
  H   H445      1.0  0.07045  0.61121  0.51834  1.0000
  N   N27       1.0  0.14326  0.41289  0.60537  1.0000
  C   C295      1.0  0.16026  0.42522  0.59885  1.0000
  C   C296      1.0  0.12448  0.42389  0.59791  1.0000
  C   C297      1.0  0.14016  0.40917  0.62779  1.0000
  C   C298      1.0  0.14815  0.39323  0.59700  1.0000
  H   H446      1.0  0.16313  0.42839  0.58203  1.0000
  H   H447      1.0  0.17462  0.41747  0.60443  1.0000
  H   H448      1.0  0.15708  0.44010  0.60501  1.0000
  H   H449      1.0  0.11157  0.41461  0.60173  1.0000
  H   H450      1.0  0.11962  0.43831  0.60476  1.0000
  H   H451      1.0  0.12652  0.42786  0.58114  1.0000
  H   H452      1.0  0.12783  0.39944  0.63331  1.0000
  H   H453      1.0  0.13599  0.42367  0.63459  1.0000
  H   H454      1.0  0.15425  0.40155  0.63401  1.0000
  H   H455      1.0  0.13561  0.38355  0.60171  1.0000
  H   H456      1.0  0.16222  0.38453  0.60236  1.0000
  H   H457      1.0  0.15054  0.39547  0.58010  1.0000
  H   H458      1.0  0.46109  0.61220  0.55872  1.0000
  H   H459      1.0  0.48586  0.65040  0.57865  1.0000
  H   H460      1.0  0.45782  0.35261  0.65943  1.0000
  N   N28       1.0  0.25510  0.46958  0.64762  1.0000
  C   C299      1.0  0.26249  0.45022  0.63926  1.0000
  C   C300      1.0  0.26832  0.48514  0.63809  1.0000
  C   C301      1.0  0.25572  0.46656  0.66980  1.0000
  C   C302      1.0  0.23399  0.47629  0.64324  1.0000
  H   H461      1.0  0.27821  0.44446  0.64265  1.0000
  H   H462      1.0  0.26271  0.45211  0.62247  1.0000
  H   H463      1.0  0.25265  0.43819  0.64571  1.0000
  H   H464      1.0  0.26334  0.49995  0.64412  1.0000
  H   H465      1.0  0.28443  0.48039  0.64091  1.0000
  H   H466      1.0  0.26820  0.48775  0.62133  1.0000
  H   H467      1.0  0.25026  0.48087  0.67667  1.0000
  H   H468      1.0  0.22772  0.49072  0.64957  1.0000
  H   H469      1.0  0.22367  0.46467  0.64980  1.0000
  H   H470      1.0  0.23311  0.47891  0.62659  1.0000
  N   N29       1.0  0.37609  0.53825  0.56689  1.0000
  C   C303      1.0  0.37775  0.55741  0.55315  1.0000
  C   C304      1.0  0.36576  0.52449  0.55741  1.0000
  C   C305      1.0  0.36424  0.54271  0.58645  1.0000
  C   C306      1.0  0.39663  0.52838  0.57058  1.0000
  H   H471      1.0  0.36253  0.56522  0.54991  1.0000
  H   H472      1.0  0.38657  0.55463  0.53819  1.0000
  H   H473      1.0  0.38541  0.56828  0.55974  1.0000
  H   H474      1.0  0.36404  0.50988  0.56732  1.0000
  H   H475      1.0  0.35028  0.53150  0.55424  1.0000
  H   H476      1.0  0.37440  0.52066  0.54270  1.0000
  H   H477      1.0  0.36284  0.52858  0.59724  1.0000
  H   H478      1.0  0.34863  0.55014  0.58434  1.0000
  H   H479      1.0  0.37169  0.55300  0.59403  1.0000
  H   H480      1.0  0.39590  0.51383  0.58085  1.0000
  H   H481      1.0  0.40473  0.53823  0.57802  1.0000
  H   H482      1.0  0.40612  0.52489  0.55618  1.0000
  C   C307      1.0  0.37926  0.37765  0.63569  1.0000
  H   H483      1.0  0.00658  0.45096  0.71801  1.0000
  N   N30       1.0  0.36596  0.39719  0.63642  1.0000
  H   H484      1.0  0.37859  0.40537  0.66154  1.0000
  H   H485      1.0  0.47174  0.36830  0.60458  1.0000
  H   H486      1.0  0.19558  0.61696  0.51955  1.0000
  C   C308      1.0  0.24830  0.50398  0.51933  1.0000
  N   N31       1.0  0.26724  0.50229  0.52877  1.0000
  C   C309      1.0  0.34576  0.39478  0.63117  1.0000
  H   H487      1.0  0.28155  0.47611  0.51456  1.0000
  S   S138      1.0  0.35636  0.57840  0.50258  1.0000
  H   H488      1.0  0.38232  0.59471  0.52517  1.0000
  H   H489      1.0  0.03310  0.45348  0.71050  1.0000
  H   H490      1.0  0.47678  0.63243  0.55187  1.0000
  C   C310      1.0  0.37507  0.41302  0.62172  1.0000
  C   C311      1.0  0.39847  0.35383  0.58327  1.0000
  H   H491      1.0  0.27151  0.46147  0.67350  1.0000
  H   H492      1.0  0.24599  0.45481  0.67743  1.0000
  C   C312      1.0  0.44722  0.64300  0.58102  1.0000
  H   H493      1.0  0.45184  0.47161  0.66268  1.0000
  H   H494      1.0  0.47065  0.33670  0.64119  1.0000
  H   H495      1.0  0.40682  0.57618  0.70740  1.0000
  H   H496      1.0  0.46257  0.43569  0.65675  1.0000
  C   C313      1.0  0.48783  0.43190  0.67423  1.0000
  H   H497      1.0  0.25195  0.49832  0.55921  1.0000
  H   H498      1.0  0.13979  0.52585  0.73341  1.0000
  C   C314      1.0  0.46478  0.46316  0.66931  1.0000
  C   C315      1.0  0.47090  0.44284  0.66594  1.0000
  C   C316      1.0  0.45944  0.61088  0.59901  1.0000
  S   S139      1.0  0.37079  0.51447  0.72698  1.0000
  H   H499      1.0  0.27643  0.50705  0.55705  1.0000
  C   C317      1.0  0.38721  0.59834  0.50917  1.0000
  H   H500      1.0  0.07833  0.53512  0.66616  1.0000
  C   C318      1.0  0.37749  0.59153  0.49470  1.0000
  H   H501      1.0  0.46218  0.38942  0.65452  1.0000
  H   H502      1.0  0.39031  0.41528  0.62524  1.0000
  C   C319      1.0  0.20884  0.62482  0.52105  1.0000
  H   H503      1.0  0.03362  0.58880  0.51778  1.0000
  H   H504      1.0  0.03846  0.32788  0.72568  1.0000
  Fe  Fe71      1.0  0.13638  0.64653  0.51085  1.0000
  Fe  Fe72      1.0  0.42130  0.65320  0.50247  1.0000
  C   C320      1.0  0.48127  0.63757  0.59013  1.0000
  H   H505      1.0  0.36539  0.42796  0.62189  1.0000
  C   C321      1.0  0.10141  0.50070  0.72480  1.0000
  S   S140      1.0  0.12913  0.59546  0.49291  1.0000
  H   H506      1.0  0.22095  0.62080  0.50858  1.0000
  H   H507      1.0  0.08074  0.53845  0.70162  1.0000
  H   H508      1.0  0.06945  0.62537  0.49364  1.0000
  N   N32       1.0  0.09856  0.55306  0.67592  1.0000
  C   C322      1.0  0.48474  0.36605  0.61372  1.0000
  H   H509      1.0  0.09415  0.54796  0.64589  1.0000
  H   H510      1.0  0.37701  0.40891  0.60595  1.0000
  C   C323      1.0  0.08537  0.54939  0.66118  1.0000
  S   S141      1.0  0.18802  0.58676  0.49167  1.0000
  C   C324      1.0  0.47277  0.61992  0.56399  1.0000
  C   C325      1.0  0.10655  0.57275  0.66936  1.0000
  C   C326      1.0  0.08674  0.55328  0.69629  1.0000
  H   H511      1.0  0.07280  0.56198  0.65933  1.0000
  C   C327      1.0  0.46328  0.35234  0.64298  1.0000
  H   H512      1.0  0.28501  0.51184  0.50059  1.0000
  H   H513      1.0  0.04642  0.62244  0.51042  1.0000
  H   H514      1.0  0.45345  0.61630  0.61394  1.0000
  C   C328      1.0  0.12520  0.52011  0.73580  1.0000
  H   H515      1.0  0.05766  0.57776  0.52586  1.0000
  C   C329      1.0  0.04914  0.58177  0.51238  1.0000
  N   N33       1.0  0.46519  0.62781  0.58356  1.0000
  C   C330      1.0  0.18811  0.65178  0.53763  1.0000
  S   S142      1.0  0.02889  0.32686  0.65253  1.0000
  H   H516      1.0  0.01611  0.47455  0.71933  1.0000
  H   H517      1.0  0.37294  0.36537  0.64667  1.0000
  Fe  Fe73      1.0  0.40861  0.64716  0.54830  1.0000
  H   H518      1.0  0.37148  0.64047  0.49342  1.0000
  H   H519      1.0  0.34683  0.39062  0.61553  1.0000
  H   H520      1.0  0.21457  0.61825  0.53564  1.0000
  H   H521      1.0  0.45406  0.39181  0.62967  1.0000
  C   C331      1.0  0.27704  0.48103  0.52993  1.0000
  C   C332      1.0  0.33550  0.51517  0.49312  1.0000
  H   H522      1.0  0.01295  0.33104  0.71927  1.0000
  H   H523      1.0  0.37834  0.55581  0.70851  1.0000
  H   H524      1.0  0.38949  0.59890  0.70531  1.0000
  H   H525      1.0  0.25143  0.49945  0.50370  1.0000
  H   H526      1.0  0.49068  0.36342  0.66362  1.0000
  H   H527      1.0  0.05536  0.45602  0.73633  1.0000
  H   H528      1.0  0.04221  0.42313  0.73458  1.0000
  C   C333      1.0  0.19454  0.65484  0.50106  1.0000
  H   H529      1.0  0.48660  0.60872  0.56519  1.0000
  C   C334      1.0  0.39624  0.58686  0.71647  1.0000
  H   H530      1.0  0.36107  0.57872  0.70628  1.0000
  H   H531      1.0  0.34636  0.64994  0.50346  1.0000
  H   H532      1.0  0.22817  0.56563  0.49043  1.0000
  C   C335      1.0  0.36849  0.56712  0.71735  1.0000
  H   H533      1.0  0.40558  0.59403  0.72531  1.0000
  H   H534      1.0  0.40043  0.54870  0.73573  1.0000
  N   N34       1.0  0.38043  0.57630  0.72985  1.0000
  H   H535      1.0  0.35651  0.55883  0.72691  1.0000
  H   H536      1.0  0.35917  0.60339  0.73134  1.0000
  S   S143      1.0  0.39146  0.65853  0.52169  1.0000
  H   H537      1.0  0.49336  0.35091  0.61129  1.0000
  C   C336      1.0  0.32194  0.48416  0.49019  1.0000
  C   C337      1.0  0.08021  0.58567  0.49005  1.0000
  C   C338      1.0  0.30615  0.56244  0.96765  1.0000
  Fe  Fe74      1.0  0.38495  0.59984  0.96331  1.0000
  H   H538      1.0  0.40247  0.47367  0.94522  1.0000
  S   S144      1.0  0.38639  0.58852  0.93256  1.0000
  H   H539      1.0  0.41743  0.50531  0.77924  1.0000
  Fe  Fe75      1.0  0.36827  0.48698  0.89238  1.0000
  S   S145      1.0  0.35042  0.50222  0.86728  1.0000
  S   S146      1.0  0.37341  0.49834  0.92159  1.0000
  Fe  Fe76      1.0  0.37591  0.44615  0.87477  1.0000
  S   S147      1.0  0.35830  0.45803  0.84845  1.0000
  S   S148      1.0  0.38890  0.41300  0.88080  1.0000
  Fe  Fe77      1.0  0.37451  0.48572  0.84620  1.0000
  S   S149      1.0  0.39294  0.49952  0.81770  1.0000
  Fe  Fe78      1.0  0.33557  0.47330  0.87150  1.0000
  S   S150      1.0  0.30114  0.47548  0.87290  1.0000
  S   S151      1.0  0.39362  0.47268  0.87125  1.0000
  S   S152      1.0  0.35181  0.45921  0.89790  1.0000
  H   H540      1.0  0.13712  0.62157  0.96550  1.0000
  H   H541      1.0  0.43994  0.47153  0.91381  1.0000
  C   C339      1.0  0.13921  0.39230  0.97592  1.0000
  H   H542      1.0  0.26508  0.42900  0.95386  1.0000
  Fe  Fe79      1.0  0.21552  0.40981  0.92253  1.0000
  S   S153      1.0  0.19643  0.43921  0.91453  1.0000
  S   S154      1.0  0.24937  0.40856  0.92376  1.0000
  Fe  Fe80      1.0  0.17827  0.38533  0.93005  1.0000
  S   S155      1.0  0.15682  0.41321  0.92210  1.0000
  S   S156      1.0  0.16748  0.35567  0.94595  1.0000
  Fe  Fe81      1.0  0.18145  0.42074  0.89681  1.0000
  S   S157      1.0  0.17611  0.43388  0.86509  1.0000
  Fe  Fe82      1.0  0.17408  0.42875  0.94063  1.0000
  S   S158      1.0  0.15750  0.44987  0.96262  1.0000
  S   S159      1.0  0.20192  0.39161  0.90317  1.0000
  S   S160      1.0  0.19427  0.40057  0.95020  1.0000
  Fe  Fe83      1.0  0.09473  0.52396  0.84550  1.0000
  S   S161      1.0  0.10848  0.55045  0.82738  1.0000
  S   S162      1.0  0.10633  0.50689  0.87354  1.0000
  Fe  Fe84      1.0  0.05764  0.53043  0.82326  1.0000
  S   S163      1.0  0.06763  0.55830  0.80378  1.0000
  S   S164      1.0  0.02779  0.51841  0.82274  1.0000
  Fe  Fe85      1.0  0.09815  0.53952  0.80055  1.0000
  S   S165      1.0  0.11787  0.53971  0.77015  1.0000
  Fe  Fe86      1.0  0.07702  0.56702  0.83222  1.0000
  S   S166      1.0  0.07137  0.59951  0.84037  1.0000
  S   S167      1.0  0.08768  0.51114  0.81844  1.0000
  S   S168      1.0  0.06381  0.54106  0.85190  1.0000
  H   H543      1.0  0.34130  0.57590  0.92801  1.0000
  C   C340      1.0  0.17843  0.51735  0.96545  1.0000
  S   S169      1.0  0.11469  0.62718  0.90930  1.0000
  S   S170      1.0  0.08848  0.64188  0.96017  1.0000
  H   H544      1.0  0.08211  0.51968  0.76938  1.0000
  C   C341      1.0  0.08278  0.60685  0.86017  1.0000
  C   C342      1.0  0.07906  0.62715  0.86438  1.0000
  C   C343      1.0  0.08848  0.63363  0.87953  1.0000
  C   C344      1.0  0.10168  0.61981  0.89066  1.0000
  C   C345      1.0  0.10542  0.59955  0.88636  1.0000
  C   C346      1.0  0.09594  0.59305  0.87131  1.0000
  H   H545      1.0  0.06909  0.63800  0.85568  1.0000
  H   H546      1.0  0.11576  0.58879  0.89472  1.0000
  H   H547      1.0  0.09897  0.57737  0.86823  1.0000
  H   H548      1.0  0.30972  0.60175  0.96913  1.0000
  H   H549      1.0  0.99669  0.49195  0.82752  1.0000
  C   C347      1.0  0.02825  0.49368  0.81619  1.0000
  C   C348      1.0  0.04610  0.48330  0.80721  1.0000
  H   H550      1.0  0.00573  0.35507  0.88260  1.0000
  H   H551      1.0  0.05959  0.49083  0.80308  1.0000
  C   C349      1.0  0.25844  0.46908  0.98139  1.0000
  H   H552      1.0  0.11824  0.63774  0.80668  1.0000
  N   N35       1.0  0.04124  0.63128  0.92755  1.0000
  C   C350      1.0  0.02736  0.34560  0.82003  1.0000
  C   C351      1.0  0.04499  0.33976  0.82950  1.0000
  H   H553      1.0  0.02479  0.36072  0.81201  1.0000
  C   C352      1.0  0.15742  0.45491  0.86682  1.0000
  C   C353      1.0  0.14958  0.46071  0.88590  1.0000
  C   C354      1.0  0.13412  0.47692  0.88766  1.0000
  C   C355      1.0  0.12657  0.48761  0.87033  1.0000
  C   C356      1.0  0.13470  0.48226  0.85111  1.0000
  C   C357      1.0  0.15009  0.46578  0.84937  1.0000
  H   H554      1.0  0.15533  0.45269  0.89940  1.0000
  H   H555      1.0  0.12790  0.48108  0.90253  1.0000
  H   H556      1.0  0.12902  0.49065  0.83765  1.0000
  H   H557      1.0  0.15621  0.46140  0.83456  1.0000
  C   C358      1.0  0.01979  0.64052  0.92868  1.0000
  H   H558      1.0  0.10294  0.63559  0.78717  1.0000
  H   H559      1.0  0.37531  0.59819  0.75124  1.0000
  C   C359      1.0  0.14955  0.33911  0.94329  1.0000
  H   H560      1.0  0.35470  0.58346  0.75179  1.0000
  H   H561      1.0  0.13778  0.60718  0.82270  1.0000
  H   H562      1.0  0.10202  0.60185  0.77590  1.0000
  C   C360      1.0  0.28716  0.45678  0.88738  1.0000
  C   C361      1.0  0.29668  0.43893  0.89722  1.0000
  C   C362      1.0  0.28493  0.42430  0.90840  1.0000
  C   C363      1.0  0.26362  0.42734  0.90975  1.0000
  C   C364      1.0  0.25411  0.44528  0.90007  1.0000
  C   C365      1.0  0.26584  0.45991  0.88896  1.0000
  H   H563      1.0  0.31311  0.43631  0.89603  1.0000
  H   H564      1.0  0.29243  0.41045  0.91582  1.0000
  H   H565      1.0  0.23775  0.44793  0.90117  1.0000
  H   H566      1.0  0.25839  0.47376  0.88149  1.0000
  C   C366      1.0  0.41529  0.40529  0.88024  1.0000
  C   C367      1.0  0.42933  0.41942  0.87622  1.0000
  C   C368      1.0  0.45010  0.41293  0.87727  1.0000
  C   C369      1.0  0.45705  0.39223  0.88178  1.0000
  C   C370      1.0  0.44312  0.37801  0.88517  1.0000
  C   C371      1.0  0.42228  0.38457  0.88455  1.0000
  H   H567      1.0  0.42417  0.43533  0.87241  1.0000
  H   H568      1.0  0.46085  0.42399  0.87445  1.0000
  H   H569      1.0  0.44831  0.36203  0.88869  1.0000
  H   H570      1.0  0.41148  0.37355  0.88762  1.0000
  C   C372      1.0  0.38391  0.56313  0.92951  1.0000
  C   C373      1.0  0.38118  0.55846  0.91031  1.0000
  C   C374      1.0  0.37801  0.53868  0.90756  1.0000
  C   C375      1.0  0.37764  0.52337  0.92402  1.0000
  C   C376      1.0  0.38056  0.52799  0.94317  1.0000
  C   C377      1.0  0.38374  0.54774  0.94590  1.0000
  H   H571      1.0  0.38139  0.57025  0.89751  1.0000
  H   H572      1.0  0.37586  0.53529  0.89272  1.0000
  H   H573      1.0  0.38040  0.51621  0.95597  1.0000
  H   H574      1.0  0.38612  0.55105  0.96069  1.0000
  C   C378      1.0  0.37750  0.50854  0.75199  1.0000
  C   C379      1.0  0.36218  0.50523  0.76830  1.0000
  C   C380      1.0  0.36675  0.50173  0.78850  1.0000
  C   C381      1.0  0.38666  0.50193  0.79257  1.0000
  C   C382      1.0  0.40198  0.50518  0.77623  1.0000
  C   C383      1.0  0.39750  0.50817  0.75603  1.0000
  H   H575      1.0  0.34667  0.50546  0.76533  1.0000
  H   H576      1.0  0.35482  0.49933  0.80095  1.0000
  H   H577      1.0  0.38769  0.45634  0.92161  1.0000
  H   H578      1.0  0.40277  0.43674  0.90863  1.0000
  C   C384      1.0  0.16813  0.58387  0.98935  1.0000
  H   H579      1.0  0.48883  0.36616  0.79385  1.0000
  C   C385      1.0  0.02868  0.42817  0.74516  1.0000
  N   N36       1.0  0.07076  0.46048  0.86118  1.0000
  C   C386      1.0  0.08061  0.45380  0.87980  1.0000
  C   C387      1.0  0.06028  0.48136  0.86205  1.0000
  C   C388      1.0  0.05578  0.44663  0.85959  1.0000
  C   C389      1.0  0.08641  0.46016  0.84329  1.0000
  H   H580      1.0  0.06930  0.45384  0.89365  1.0000
  H   H581      1.0  0.09193  0.46406  0.88140  1.0000
  H   H582      1.0  0.08885  0.43817  0.87961  1.0000
  H   H583      1.0  0.07107  0.49219  0.86347  1.0000
  H   H584      1.0  0.05295  0.48708  0.84812  1.0000
  H   H585      1.0  0.04818  0.48217  0.87520  1.0000
  H   H586      1.0  0.06318  0.43079  0.85845  1.0000
  H   H587      1.0  0.04785  0.45152  0.84586  1.0000
  H   H588      1.0  0.04386  0.44627  0.87295  1.0000
  H   H589      1.0  0.07958  0.46506  0.82893  1.0000
  H   H590      1.0  0.09474  0.44466  0.84224  1.0000
  H   H591      1.0  0.09785  0.47054  0.84399  1.0000
  N   N37       1.0  0.32249  0.57407  0.95681  1.0000
  C   C390      1.0  0.32933  0.56701  0.93672  1.0000
  H   H592      1.0  0.11378  0.32975  0.91475  1.0000
  C   C391      1.0  0.31485  0.59597  0.95417  1.0000
  C   C392      1.0  0.33980  0.57093  0.96877  1.0000
  H   H593      1.0  0.28058  0.45841  0.93448  1.0000
  H   H594      1.0  0.31158  0.54591  0.97036  1.0000
  H   H595      1.0  0.04183  0.62208  0.89788  1.0000
  H   H596      1.0  0.29286  0.46071  0.95607  1.0000
  Fe  Fe87      1.0  0.11092  0.65547  0.97423  1.0000
  H   H597      1.0  0.35255  0.57905  0.96074  1.0000
  C   C393      1.0  0.04572  0.62195  0.94800  1.0000
  C   C394      1.0  0.12325  0.32768  0.92688  1.0000
  C   C395      1.0  0.17226  0.45537  0.98044  1.0000
  H   H598      1.0  0.17540  0.37180  0.98348  1.0000
  H   H599      1.0  0.47710  0.35283  0.82864  1.0000
  H   H600      1.0  0.14751  0.59636  0.77874  1.0000
  C   C396      1.0  0.25216  0.42908  0.83044  1.0000
  H   H601      1.0  0.13739  0.58276  0.81444  1.0000
  C   C397      1.0  0.02894  0.45326  0.80831  1.0000
  C   C398      1.0  0.04649  0.46309  0.80347  1.0000
  H   H602      1.0  0.05598  0.35037  0.82877  1.0000
  H   H603      1.0  0.06046  0.45506  0.79681  1.0000
  H   H604      1.0  0.39934  0.56640  0.75378  1.0000
  H   H605      1.0  0.14961  0.54922  0.96743  1.0000
  C   C399      1.0  0.46676  0.40433  0.82126  1.0000
  H   H606      1.0  0.09560  0.62555  0.81295  1.0000
  H   H607      1.0  0.24366  0.40741  0.87937  1.0000
  H   H608      1.0  0.21772  0.44987  0.84741  1.0000
  H   H609      1.0  0.46804  0.36973  0.84742  1.0000
  H   H610      1.0  0.16143  0.52578  0.91914  1.0000
  C   C400      1.0  0.19141  0.44453  0.98252  1.0000
  C   C401      1.0  0.26315  0.43691  0.96773  1.0000
  H   H611      1.0  0.19738  0.43269  0.97313  1.0000
  H   H612      1.0  0.24970  0.43162  0.97772  1.0000
  H   H613      1.0  0.13855  0.51431  0.97271  1.0000
  H   H614      1.0  0.23241  0.39592  0.83940  1.0000
  H   H615      1.0  0.13793  0.35495  0.91621  1.0000
  H   H616      1.0  0.18583  0.52935  0.92548  1.0000
  H   H617      1.0  0.01667  0.65242  0.93926  1.0000
  S   S171      1.0  0.36016  0.62531  0.96976  1.0000
  H   H618      1.0  0.02866  0.35420  0.74953  1.0000
  C   C402      1.0  0.13837  0.61107  0.78193  1.0000
  C   C403      1.0  0.04149  0.45976  0.74711  1.0000
  H   H619      1.0  0.25632  0.48597  0.97816  1.0000
  H   H620      1.0  0.26348  0.43899  0.83289  1.0000
  H   H621      1.0  0.17194  0.51968  0.98133  1.0000
  C   C404      1.0  0.39014  0.56017  0.74403  1.0000
  H   H622      1.0  0.39446  0.43189  0.93524  1.0000
  H   H623      1.0  0.31660  0.56860  0.92736  1.0000
  N   N38       1.0  0.47872  0.38448  0.81810  1.0000
  H   H624      1.0  0.13208  0.37949  0.97198  1.0000
  H   H625      1.0  0.18685  0.65610  0.97143  1.0000
  H   H626      1.0  0.03519  0.60319  0.91868  1.0000
  C   C405      1.0  0.14568  0.51245  0.95693  1.0000
  Fe  Fe88      1.0  0.38343  0.63987  0.98198  1.0000
  H   H627      1.0  0.40950  0.51046  0.74363  1.0000
  N   N39       1.0  0.16322  0.52415  0.95113  1.0000
  H   H628      1.0  0.00920  0.62896  0.93430  1.0000
  H   H629      1.0  0.47377  0.41706  0.81158  1.0000
  N   N40       1.0  0.12082  0.60778  0.79752  1.0000
  S   S172      1.0  0.48322  0.38490  0.88317  1.0000
  H   H630      1.0  0.41426  0.47904  0.90849  1.0000
  C   C406      1.0  0.11150  0.52434  0.75303  1.0000
  H   H631      1.0  0.26078  0.41559  0.82380  1.0000
  H   H632      1.0  0.13336  0.61878  0.76735  1.0000
  C   C407      1.0  0.00024  0.34545  0.87274  1.0000
  H   H633      1.0  0.15033  0.49589  0.95614  1.0000
  H   H634      1.0  0.00347  0.35749  0.74230  1.0000
  C   C408      1.0  0.09280  0.51655  0.75617  1.0000
  H   H635      1.0  0.13376  0.51742  0.94664  1.0000
  C   C409      1.0  0.12820  0.59767  0.81662  1.0000
  H   H636      1.0  0.00714  0.35183  0.76855  1.0000
  H   H637      1.0  0.24271  0.43769  0.81894  1.0000
  H   H638      1.0  0.11532  0.59472  0.82863  1.0000
  C   C410      1.0  0.10778  0.59481  0.79036  1.0000
  H   H639      1.0  0.19175  0.52609  0.96170  1.0000
  C   C411      1.0  0.01323  0.33186  0.82093  1.0000
  H   H640      1.0  0.16158  0.59139  0.95842  1.0000
  C   C412      1.0  0.40014  0.44358  0.92312  1.0000
  C   C413      1.0  0.01090  0.46381  0.81668  1.0000
  H   H641      1.0  0.34566  0.55454  0.97177  1.0000
  H   H642      1.0  0.37864  0.55176  0.75423  1.0000
  C   C414      1.0  0.43471  0.43311  0.93005  1.0000
  H   H643      1.0  0.15173  0.39522  0.96361  1.0000
  H   H644      1.0  0.32696  0.60513  0.94621  1.0000
  H   H645      1.0  0.24312  0.45790  0.93837  1.0000
  S   S173      1.0  0.48560  0.32789  0.86935  1.0000
  H   H646      1.0  0.26079  0.39741  0.85903  1.0000
  H   H647      1.0  0.26436  0.42091  0.86727  1.0000
  H   H648      1.0  0.21902  0.43734  0.87257  1.0000
  N   N41       1.0  0.23947  0.42300  0.84962  1.0000
  C   C415      1.0  0.25263  0.41169  0.86444  1.0000
  H   H649      1.0  0.21490  0.40506  0.85994  1.0000
  C   C416      1.0  0.17251  0.52077  0.93033  1.0000
  H   H650      1.0  0.11614  0.57962  0.78765  1.0000
  H   H651      1.0  0.06109  0.60846  0.91228  1.0000
  H   H652      1.0  0.04350  0.63354  0.95886  1.0000
  C   C417      1.0  0.22469  0.40991  0.84575  1.0000
  C   C418      1.0  0.22838  0.44136  0.85786  1.0000
  H   H653      1.0  0.21423  0.41809  0.83493  1.0000
  H   H654      1.0  0.23899  0.45191  0.86044  1.0000
  C   C419      1.0  0.15627  0.54605  0.95181  1.0000
  S   S174      1.0  0.03027  0.42771  0.80403  1.0000
  H   H655      1.0  0.42290  0.64929  0.98843  1.0000
  C   C420      1.0  0.42601  0.46568  0.91082  1.0000
  C   C421      1.0  0.04494  0.61555  0.91351  1.0000
  H   H656      1.0  0.40858  0.44948  0.95966  1.0000
  C   C422      1.0  0.08777  0.50488  0.74207  1.0000
  C   C423      1.0  0.41432  0.46026  0.94665  1.0000
  C   C424      1.0  0.01059  0.48396  0.82066  1.0000
  H   H657      1.0  0.09426  0.59221  0.80166  1.0000
  C   C425      1.0  0.01357  0.34847  0.75297  1.0000
  H   H658      1.0  0.24018  0.48226  0.94764  1.0000
  S   S175      1.0  0.40889  0.61608  0.97277  1.0000
  H   H659      1.0  0.44916  0.43788  0.93313  1.0000
  C   C426      1.0  0.27864  0.46543  0.94890  1.0000
  H   H660      1.0  0.43818  0.42533  0.91610  1.0000
  C   C427      1.0  0.14465  0.61274  0.97766  1.0000
  H   H661      1.0  0.42986  0.42156  0.94276  1.0000
  H   H662      1.0  0.42966  0.45896  0.89625  1.0000
  C   C428      1.0  0.00585  0.45647  0.75701  1.0000
  C   C429      1.0  0.15843  0.59555  0.97368  1.0000
  H   H663      1.0  0.14866  0.62065  0.78689  1.0000
  N   N42       1.0  0.41880  0.45065  0.92766  1.0000
  H   H664      1.0  0.42807  0.46574  0.95059  1.0000
  C   C430      1.0  0.13695  0.34198  0.92772  1.0000
  C   C431      1.0  0.05459  0.64723  0.92001  1.0000
  C   C432      1.0  0.48012  0.38117  0.79657  1.0000
  H   H665      1.0  0.00841  0.45117  0.77302  1.0000
  H   H666      1.0  0.03565  0.61012  0.95437  1.0000
  C   C433      1.0  0.10892  0.62756  0.80119  1.0000
  H   H667      1.0  0.08601  0.64942  0.88218  1.0000
  H   H668      1.0  0.29288  0.56424  0.95898  1.0000
  H   H669      1.0  0.33602  0.55073  0.93821  1.0000
  H   H670      1.0  0.01567  0.42073  0.74215  1.0000
  H   H671      1.0  0.07091  0.64102  0.91980  1.0000
  C   C434      1.0  0.36679  0.59103  0.74157  1.0000
  H   H672      1.0  0.06174  0.61462  0.94767  1.0000
  H   H673      1.0  0.46479  0.38146  0.79181  1.0000
  H   H674      1.0  0.30178  0.59903  0.94514  1.0000
  H   H675      1.0  0.04531  0.45420  0.76273  1.0000
  Fe  Fe89      1.0  0.10583  0.65211  0.93018  1.0000
  H   H676      1.0  0.30053  0.56761  0.98275  1.0000
  H   H677      1.0  0.00186  0.47326  0.75577  1.0000
  H   H678      1.0  0.01592  0.64791  0.91356  1.0000
  H   H679      1.0  0.18414  0.50093  0.96531  1.0000
  C   C435      1.0  0.46871  0.36807  0.83104  1.0000
  H   H680      1.0  0.05212  0.65418  0.90435  1.0000
  S   S176      1.0  0.18531  0.56242  0.98407  1.0000
  Fe  Fe90      1.0  0.00097  0.41409  0.80502  1.0000
  H   H681      1.0  0.17780  0.50436  0.92929  1.0000
  S   S177      1.0  0.00134  0.39322  0.78154  1.0000
  N   N43       1.0  0.26063  0.45925  0.96259  1.0000
  H   H682      1.0  0.03831  0.47663  0.74599  1.0000
  H   H683      1.0  0.48800  0.39302  0.78635  1.0000
  H   H684      1.0  0.22832  0.46155  0.96227  1.0000
  H   H685      1.0  0.27675  0.43160  0.97575  1.0000
  C   C436      1.0  0.24225  0.46555  0.95225  1.0000
  H   H686      1.0  0.27737  0.48220  0.94473  1.0000
  H   H687      1.0  0.16913  0.55533  0.94732  1.0000
  H   H688      1.0  0.99728  0.45634  0.82051  1.0000
  H   H689      1.0  0.45284  0.36810  0.82780  1.0000
  H   H690      1.0  0.00113  0.35365  0.85709  1.0000
  H   H691      1.0  0.03199  0.42227  0.76088  1.0000
  H   H692      1.0  0.01118  0.33131  0.87226  1.0000
  H   H693      1.0  0.46572  0.40732  0.83733  1.0000
  H   H694      1.0  0.45494  0.62671  0.98042  1.0000
  N   N44       1.0  0.02396  0.45055  0.74274  1.0000
  H   H695      1.0  0.14457  0.55176  0.94144  1.0000
  H   H696      1.0  0.33552  0.57691  0.98361  1.0000
  H   H697      1.0  0.12789  0.40616  0.97545  1.0000
  H   H698      1.0  0.07318  0.49911  0.74456  1.0000
  H   H699      1.0  0.45092  0.40495  0.81765  1.0000
  H   H700      1.0  0.16934  0.40824  0.98855  1.0000
  H   H701      1.0  0.15995  0.65567  0.97276  1.0000
  N   N45       1.0  0.01522  0.32648  0.75135  1.0000
  H   H702      1.0  0.27206  0.46476  0.98960  1.0000
  Fe  Fe91      1.0  0.03378  0.82863  0.12414  1.0000
  S   S178      1.0  0.02671  0.80953  0.15410  1.0000
  S   S179      1.0  0.06763  0.82469  0.11333  1.0000
  Fe  Fe92      1.0  0.00702  0.83743  0.16356  1.0000
  H   H703      1.0  0.40205  0.82665  0.05822  1.0000
  S   S180      1.0  0.01562  0.85710  0.13445  1.0000
  Fe  Fe93      1.0  0.14248  0.84417  0.01455  1.0000
  S   S181      1.0  0.15922  0.81557  0.02872  1.0000
  S   S182      1.0  0.11179  0.85927  0.02782  1.0000
  C   C437      1.0  0.36489  0.84356  0.99956  1.0000
  Fe  Fe94      1.0  0.18789  0.82947  0.01600  1.0000
  S   S183      1.0  0.21547  0.82426  0.03361  1.0000
  H   H704      1.0  0.11496  0.81636  0.03122  1.0000
  H   H705      1.0  0.27393  0.81336  0.00568  1.0000
  Fe  Fe95      1.0  0.49158  0.91947  0.16105  1.0000
  S   S184      1.0  0.45850  0.92917  0.17066  1.0000
  C   C438      1.0  0.03454  0.69590  0.03917  1.0000
  H   H706      1.0  0.30360  0.97327  0.00823  1.0000
  S   S185      1.0  0.45295  0.88053  0.18199  1.0000
  C   C439      1.0  0.32879  0.94947  0.01054  1.0000
  Fe  Fe96      1.0  0.45222  0.90372  0.15414  1.0000
  S   S186      1.0  0.43388  0.90697  0.12715  1.0000
  Fe  Fe97      1.0  0.46245  0.90496  0.19752  1.0000
  C   C440      1.0  0.46938  0.84173  0.22139  1.0000
  H   H707      1.0  0.32770  0.67679  0.00662  1.0000
  Fe  Fe98      1.0  0.30370  0.88369  0.05422  1.0000
  S   S187      1.0  0.32529  0.87824  0.02623  1.0000
  S   S188      1.0  0.27040  0.89019  0.04896  1.0000
  Fe  Fe99      1.0  0.33895  0.88156  0.08024  1.0000
  S   S189      1.0  0.36267  0.87516  0.05416  1.0000
  S   S190      1.0  0.34816  0.88456  0.11114  1.0000
  Fe  Fe100     1.0  0.34392  0.89956  0.03605  1.0000
  C   C441      1.0  0.28846  0.81676  0.99623  1.0000
  Fe  Fe101     1.0  0.34189  0.85449  0.04683  1.0000
  S   S191      1.0  0.35360  0.82373  0.03724  1.0000
  S   S192      1.0  0.32114  0.90742  0.06250  1.0000
  S   S193      1.0  0.31929  0.85844  0.07452  1.0000
  C   C442      1.0  0.36388  0.82485  0.01166  1.0000
  H   H708      1.0  0.44547  0.85029  0.02715  1.0000
  H   H709      1.0  0.40821  0.85008  0.00479  1.0000
  N   N46       1.0  0.09262  0.79970  0.02349  1.0000
  H   H710      1.0  0.34281  0.68250  0.04617  1.0000
  C   C443      1.0  0.37162  0.80684  0.00341  1.0000
  H   H711      1.0  0.35948  0.85755  0.00591  1.0000
  H   H712      1.0  0.44542  0.83673  0.00571  1.0000
  H   H713      1.0  0.37088  0.79233  0.01271  1.0000
  H   H714      1.0  0.32108  0.94066  0.02332  1.0000
  S   S194      1.0  0.45210  0.90775  0.23096  1.0000
  C   C444      1.0  0.40687  0.84869  0.02167  1.0000
  H   H715      1.0  0.32783  0.82363  0.99131  1.0000
  C   C445      1.0  0.41059  0.89874  0.12358  1.0000
  C   C446      1.0  0.40703  0.89706  0.10370  1.0000
  C   C447      1.0  0.38832  0.89193  0.09978  1.0000
  C   C448      1.0  0.37267  0.88899  0.11567  1.0000
  C   C449      1.0  0.37626  0.89047  0.13559  1.0000
  C   C450      1.0  0.39517  0.89514  0.13957  1.0000
  H   H716      1.0  0.41888  0.89975  0.09124  1.0000
  H   H717      1.0  0.38591  0.89052  0.08447  1.0000
  H   H718      1.0  0.36426  0.88822  0.14800  1.0000
  H   H719      1.0  0.39758  0.89656  0.15492  1.0000
  H   H720      1.0  0.44957  0.68039  0.99101  1.0000
  H   H721      1.0  0.03648  0.67910  0.04344  1.0000
  H   H722      1.0  0.10127  0.76805  0.02054  1.0000
  H   H723      1.0  0.43007  0.85153  0.21593  1.0000
  H   H724      1.0  0.42861  0.79959  0.02817  1.0000
  H   H725      1.0  0.32285  0.84975  0.99587  1.0000
  C   C451      1.0  0.01720  0.86636  0.22389  1.0000
  H   H726      1.0  0.29915  0.80244  0.99671  1.0000
  H   H727      1.0  0.36580  0.97636  0.07933  1.0000
  H   H728      1.0  0.08399  0.77317  0.04285  1.0000
  C   C452      1.0  0.22990  0.84308  0.03843  1.0000
  C   C453      1.0  0.22583  0.86357  0.03079  1.0000
  C   C454      1.0  0.23818  0.87785  0.03442  1.0000
  C   C455      1.0  0.25488  0.87179  0.04542  1.0000
  C   C456      1.0  0.25883  0.85134  0.05322  1.0000
  C   C457      1.0  0.24635  0.83710  0.04979  1.0000
  H   H729      1.0  0.21317  0.86841  0.02212  1.0000
  H   H730      1.0  0.23486  0.89367  0.02851  1.0000
  H   H731      1.0  0.27135  0.84656  0.06209  1.0000
  H   H732      1.0  0.00241  0.70720  0.08120  1.0000
  C   C458      1.0  0.02047  0.85165  0.21033  1.0000
  C   C459      1.0  0.03722  0.83667  0.21148  1.0000
  H   H733      1.0  0.47820  0.83538  0.11272  1.0000
  C   C460      1.0  0.48863  0.83853  0.14101  1.0000
  C   C461      1.0  0.00851  0.66849  0.99664  1.0000
  H   H734      1.0  0.03951  0.82492  0.20152  1.0000
  H   H735      1.0  0.07050  0.80954  0.04787  1.0000
  C   C462      1.0  0.07950  0.83488  0.08961  1.0000
  C   C463      1.0  0.06880  0.84852  0.07596  1.0000
  C   C464      1.0  0.07902  0.85637  0.05731  1.0000
  C   C465      1.0  0.09987  0.85039  0.05206  1.0000
  C   C466      1.0  0.11054  0.83688  0.06582  1.0000
  C   C467      1.0  0.10039  0.82920  0.08452  1.0000
  H   H736      1.0  0.05273  0.85311  0.07981  1.0000
  H   H737      1.0  0.07070  0.86693  0.04678  1.0000
  H   H738      1.0  0.12664  0.83236  0.06206  1.0000
  H   H739      1.0  0.10880  0.81875  0.09505  1.0000
  H   H740      1.0  0.45348  0.82344  0.02880  1.0000
  H   H741      1.0  0.41930  0.81374  0.00599  1.0000
  H   H742      1.0  0.01259  0.73164  0.02792  1.0000
  C   C468      1.0  0.03068  0.86642  0.23823  1.0000
  H   H743      1.0  0.47675  0.85066  0.14465  1.0000
  H   H744      1.0  0.11221  0.79674  0.99544  1.0000
  H   H745      1.0  0.18510  0.67461  0.01117  1.0000
  H   H746      1.0  0.07782  0.82944  0.02863  1.0000
  H   H747      1.0  0.02668  0.73453  0.04816  1.0000
  H   H748      1.0  0.39183  0.92595  0.06809  1.0000
  H   H749      1.0  0.29540  0.67154  0.02884  1.0000
  S   S195      1.0  0.15046  0.77213  0.00131  1.0000
  N   N47       1.0  0.08136  0.85034  0.16183  1.0000
  C   C469      1.0  0.09613  0.85545  0.14387  1.0000
  C   C470      1.0  0.08284  0.82800  0.16685  1.0000
  C   C471      1.0  0.06058  0.85831  0.15723  1.0000
  C   C472      1.0  0.08585  0.85956  0.17929  1.0000
  H   H750      1.0  0.09527  0.87218  0.13943  1.0000
  H   H751      1.0  0.09320  0.84858  0.13047  1.0000
  H   H752      1.0  0.11201  0.84974  0.14676  1.0000
  H   H753      1.0  0.07204  0.82357  0.18040  1.0000
  H   H754      1.0  0.07922  0.82062  0.15407  1.0000
  H   H755      1.0  0.09841  0.82139  0.17009  1.0000
  H   H756      1.0  0.04890  0.85436  0.17021  1.0000
  H   H757      1.0  0.05697  0.85190  0.14389  1.0000
  H   H758      1.0  0.05874  0.87515  0.15364  1.0000
  H   H759      1.0  0.10127  0.85363  0.18347  1.0000
  H   H760      1.0  0.07472  0.85633  0.19296  1.0000
  H   H761      1.0  0.08511  0.87640  0.17591  1.0000
  N   N48       1.0  0.42118  0.83171  0.02985  1.0000
  C   C473      1.0  0.44228  0.83580  0.02258  1.0000
  C   C474      1.0  0.10980  0.80107  0.03467  1.0000
  C   C475      1.0  0.41790  0.82972  0.05229  1.0000
  C   C476      1.0  0.41758  0.81261  0.02289  1.0000
  H   H762      1.0  0.42842  0.81702  0.05901  1.0000
  Fe  Fe102     1.0  0.00002  0.80227  0.14038  1.0000
  H   H763      1.0  0.00423  0.87795  0.22318  1.0000
  H   H764      1.0  0.49133  0.88243  0.22820  1.0000
  H   H765      1.0  0.02945  0.70760  0.07702  1.0000
  H   H766      1.0  0.04828  0.70180  0.04254  1.0000
  Fe  Fe103     1.0  0.48630  0.87459  0.17194  1.0000
  H   H767      1.0  0.99950  0.73519  0.05275  1.0000
  C   C477      1.0  0.08793  0.77848  0.02646  1.0000
  C   C478      1.0  0.35529  0.93854  0.08846  1.0000
  H   H768      1.0  0.40952  0.86348  0.02602  1.0000
  Fe  Fe104     1.0  0.16028  0.80403  0.99846  1.0000
  C   C479      1.0  0.33514  0.66349  0.01590  1.0000
  H   H769      1.0  0.48762  0.66370  0.22979  1.0000
  H   H770      1.0  0.12877  0.73767  0.00529  1.0000
  S   S196      1.0  0.00833  0.81956  0.10991  1.0000
  C   C480      1.0  0.14853  0.68407  0.99804  1.0000
  H   H771      1.0  0.35586  0.96287  0.04029  1.0000
  H   H772      1.0  0.34402  0.94977  0.09611  1.0000
  C   C481      1.0  0.09818  0.80604  0.00162  1.0000
  N   N49       1.0  0.29707  0.83314  0.00366  1.0000
  H   H773      1.0  0.42040  0.84389  0.05809  1.0000
  H   H774      1.0  0.46014  0.80508  0.23872  1.0000
  C   C482      1.0  0.18465  0.68476  0.99656  1.0000
  C   C483      1.0  0.05070  0.83668  0.22590  1.0000
  H   H775      1.0  0.44937  0.66484  0.02769  1.0000
  H   H776      1.0  0.49090  0.73130  0.02585  1.0000
  C   C484      1.0  0.34913  0.95593  0.05538  1.0000
  C   C485      1.0  0.49380  0.79866  0.00059  1.0000
  H   H777      1.0  0.34059  0.94379  0.05236  1.0000
  H   H778      1.0  0.24945  0.82133  0.05598  1.0000
  C   C486      1.0  0.30126  0.82673  0.02484  1.0000
  N   N50       1.0  0.36492  0.94766  0.06870  1.0000
  H   H779      1.0  0.03416  0.69858  0.02242  1.0000
  C   C487      1.0  0.01673  0.70097  0.07235  1.0000
  H   H780      1.0  0.31891  0.69364  0.03797  1.0000
  N   N51       1.0  0.32537  0.66135  0.03716  1.0000
  C   C488      1.0  0.01360  0.72773  0.04447  1.0000
  H   H781      1.0  0.46095  0.66077  0.23399  1.0000
  C   C489      1.0  0.99807  0.69726  0.04502  1.0000
  H   H782      1.0  0.10566  0.79817  0.05140  1.0000
  H   H783      1.0  0.10115  0.82224  0.99886  1.0000
  S   S197      1.0  0.00292  0.85241  0.19265  1.0000
  C   C490      1.0  0.32669  0.67990  0.04637  1.0000
  S   S198      1.0  0.48541  0.89560  0.14309  1.0000
  H   H784      1.0  0.14561  0.69973  0.00245  1.0000
  H   H785      1.0  0.49256  0.77081  0.12055  1.0000
  H   H786      1.0  0.01901  0.68428  0.07713  1.0000
  H   H787      1.0  0.99844  0.68080  0.05048  1.0000
  H   H788      1.0  0.18231  0.70077  0.00015  1.0000
  C   C491      1.0  0.07470  0.81329  0.03122  1.0000
  N   N52       1.0  0.01577  0.70548  0.05025  1.0000
  H   H789      1.0  0.48826  0.80123  0.03267  1.0000
  H   H790      1.0  0.47903  0.74895  0.12469  1.0000
  C   C492      1.0  0.31889  0.96790  0.00196  1.0000
  H   H791      1.0  0.06125  0.81237  0.02349  1.0000
  C   C493      1.0  0.49366  0.75431  0.12632  1.0000
  H   H792      1.0  0.07497  0.77683  0.01833  1.0000
  C   C494      1.0  0.48944  0.82989  0.12297  1.0000
  H   H793      1.0  0.08587  0.80452  0.99257  1.0000
  H   H794      1.0  0.99750  0.69927  0.02834  1.0000
  H   H795      1.0  0.33789  0.96772  0.06225  1.0000
  H   H796      1.0  0.06360  0.82503  0.22674  1.0000
  C   C495      1.0  0.34870  0.94273  0.00271  1.0000
  S   S199      1.0  0.46864  0.79445  0.99947  1.0000
  H   H797      1.0  0.48344  0.83175  0.22512  1.0000
  C   C496      1.0  0.44701  0.81658  0.23518  1.0000
  S   S200      1.0  0.36223  0.92073  0.01420  1.0000
  H   H798      1.0  0.38817  0.95844  0.08206  1.0000
  H   H799      1.0  0.12314  0.78995  0.03049  1.0000
  H   H800      1.0  0.28741  0.82245  0.03481  1.0000
  H   H801      1.0  0.39087  0.84640  0.02761  1.0000
  C   C497      1.0  0.37615  0.96421  0.07201  1.0000
  S   S201      1.0  0.17100  0.85925  0.00415  1.0000
  H   H802      1.0  0.38598  0.93799  0.04351  1.0000
  H   H803      1.0  0.36675  0.93247  0.09903  1.0000
  H   H804      1.0  0.43687  0.86811  0.23205  1.0000
  H   H805      1.0  0.31319  0.81338  0.02590  1.0000
  H   H806      1.0  0.26724  0.84883  0.01101  1.0000
  C   C498      1.0  0.37919  0.93194  0.05892  1.0000
  H   H807      1.0  0.40199  0.80873  0.02865  1.0000
  H   H808      1.0  0.35144  0.66565  0.01503  1.0000
  H   H809      1.0  0.30676  0.83907  0.03139  1.0000
  H   H810      1.0  0.47244  0.85771  0.22075  1.0000
  C   C499      1.0  0.28235  0.85180  0.00278  1.0000
  H   H811      1.0  0.31955  0.67882  0.06246  1.0000
  H   H812      1.0  0.28748  0.86408  0.00980  1.0000
  H   H813      1.0  0.34713  0.92559  0.08667  1.0000
  H   H814      1.0  0.14770  0.67319  0.01221  1.0000
  N   N53       1.0  0.45155  0.83737  0.23627  1.0000
  H   H815      1.0  0.38370  0.97134  0.05741  1.0000
  H   H816      1.0  0.42018  0.66399  0.00918  1.0000
  H   H817      1.0  0.46703  0.83952  0.20575  1.0000
  H   H818      1.0  0.44365  0.81487  0.21972  1.0000
  H   H819      1.0  0.37133  0.91885  0.05695  1.0000
  C   C500      1.0  0.43384  0.85222  0.23147  1.0000
  H   H820      1.0  0.49460  0.73901  0.09087  1.0000
  C   C501      1.0  0.04756  0.85163  0.23925  1.0000
  C   C502      1.0  0.00170  0.65943  0.01615  1.0000
  C   C503      1.0  0.31621  0.83726  0.99077  1.0000
  H   H821      1.0  0.13583  0.68189  0.98977  1.0000
  H   H822      1.0  0.20714  0.92918  0.48726  1.0000
  C   C504      1.0  0.09615  0.84871  0.39807  1.0000
  H   H823      1.0  0.48482  0.81645  0.46085  1.0000
  C   C505      1.0  0.24472  0.94786  0.45325  1.0000
  Fe  Fe105     1.0  0.37159  0.85525  0.46588  1.0000
  S   S202      1.0  0.38715  0.84680  0.43549  1.0000
  H   H824      1.0  0.22042  0.91846  0.46526  1.0000
  S   S203      1.0  0.46236  0.88976  0.39025  1.0000
  Fe  Fe106     1.0  0.20466  0.89866  0.43191  1.0000
  S   S204      1.0  0.19058  0.88122  0.45993  1.0000
  S   S205      1.0  0.23878  0.90030  0.42786  1.0000
  Fe  Fe107     1.0  0.16328  0.91029  0.41524  1.0000
  S   S206      1.0  0.14665  0.89396  0.44276  1.0000
  S   S207      1.0  0.14371  0.92605  0.39121  1.0000
  Fe  Fe108     1.0  0.16615  0.90763  0.46066  1.0000
  C   C506      1.0  0.00369  0.81566  0.38286  1.0000
  Fe  Fe109     1.0  0.17294  0.86969  0.43898  1.0000
  S   S208      1.0  0.16819  0.83710  0.44097  1.0000
  S   S209      1.0  0.18106  0.92605  0.43350  1.0000
  S   S210      1.0  0.18864  0.88500  0.41054  1.0000
  Fe  Fe110     1.0  0.07735  0.88446  0.31846  1.0000
  S   S211      1.0  0.04784  0.90256  0.32941  1.0000
  S   S212      1.0  0.10444  0.87491  0.33642  1.0000
  Fe  Fe111     1.0  0.05967  0.87241  0.28172  1.0000
  S   S213      1.0  0.02933  0.88971  0.29015  1.0000
  S   S214      1.0  0.06496  0.85123  0.25700  1.0000
  Fe  Fe112     1.0  0.04675  0.91400  0.29634  1.0000
  S   S215      1.0  0.03429  0.94556  0.28381  1.0000
  Fe  Fe113     1.0  0.03314  0.87681  0.32210  1.0000
  H   H825      1.0  0.25822  0.95569  0.45382  1.0000
  S   S216      1.0  0.07742  0.89770  0.28548  1.0000
  S   S217      1.0  0.06236  0.85770  0.31358  1.0000
  C   C507      1.0  0.18159  0.82979  0.47825  1.0000
  C   C508      1.0  0.01282  0.84449  0.35880  1.0000
  C   C509      1.0  0.03311  0.83958  0.36240  1.0000
  S   S218      1.0  0.00616  0.75391  0.44813  1.0000
  C   C510      1.0  0.46583  0.85031  0.44176  1.0000
  H   H826      1.0  0.08066  0.88364  0.41353  1.0000
  H   H827      1.0  0.44323  0.83471  0.26870  1.0000
  H   H828      1.0  0.04449  0.84893  0.35480  1.0000
  H   H829      1.0  0.20538  0.94275  0.46242  1.0000
  H   H830      1.0  0.02112  0.83386  0.27636  1.0000
  C   C511      1.0  0.45594  0.83893  0.25699  1.0000
  C   C512      1.0  0.01431  0.95778  0.29939  1.0000
  H   H831      1.0  0.32428  0.67288  0.48115  1.0000
  C   C513      1.0  0.99807  0.83267  0.36921  1.0000
  H   H832      1.0  0.02489  0.94375  0.32748  1.0000
  C   C514      1.0  0.03190  0.81022  0.32259  1.0000
  C   C515      1.0  0.02190  0.83220  0.29301  1.0000
  C   C516      1.0  0.33426  0.66728  0.46782  1.0000
  C   C517      1.0  0.16527  0.95649  0.47697  1.0000
  H   H833      1.0  0.04101  0.82153  0.32642  1.0000
  H   H834      1.0  0.45052  0.84569  0.44138  1.0000
  C   C518      1.0  0.22705  0.96199  0.48306  1.0000
  C   C519      1.0  0.13315  0.91196  0.37560  1.0000
  C   C520      1.0  0.14126  0.89199  0.37279  1.0000
  C   C521      1.0  0.13246  0.88106  0.36046  1.0000
  C   C522      1.0  0.11536  0.88987  0.35093  1.0000
  C   C523      1.0  0.10725  0.90986  0.35370  1.0000
  C   C524      1.0  0.11621  0.92089  0.36587  1.0000
  H   H835      1.0  0.15448  0.88506  0.37992  1.0000
  H   H836      1.0  0.13897  0.86568  0.35823  1.0000
  H   H837      1.0  0.09415  0.91686  0.34640  1.0000
  H   H838      1.0  0.10992  0.93638  0.36784  1.0000
  H   H839      1.0  0.47892  0.84891  0.40222  1.0000
  H   H840      1.0  0.48895  0.69527  0.44899  1.0000
  H   H841      1.0  0.42010  0.84955  0.24244  1.0000
  H   H842      1.0  0.16141  0.95347  0.46264  1.0000
  Fe  Fe114     1.0  0.48694  0.87364  0.36932  1.0000
  C   C525      1.0  0.09733  0.87919  0.41323  1.0000
  C   C526      1.0  0.24632  0.87762  0.46456  1.0000
  C   C527      1.0  0.25435  0.88861  0.44664  1.0000
  C   C528      1.0  0.27534  0.89001  0.44334  1.0000
  C   C529      1.0  0.28817  0.88039  0.45773  1.0000
  S   S219      1.0  0.03131  0.78864  0.40234  1.0000
  H   H843      1.0  0.23029  0.87644  0.46753  1.0000
  H   H844      1.0  0.28178  0.89845  0.42954  1.0000
  H   H845      1.0  0.30434  0.88148  0.45497  1.0000
  C   C530      1.0  0.40775  0.85916  0.42287  1.0000
  C   C531      1.0  0.41286  0.87652  0.42944  1.0000
  C   C532      1.0  0.42930  0.88612  0.41890  1.0000
  C   C533      1.0  0.44095  0.87817  0.40203  1.0000
  C   C534      1.0  0.43585  0.86080  0.39548  1.0000
  C   C535      1.0  0.41923  0.85137  0.40585  1.0000
  H   H846      1.0  0.40398  0.88268  0.44247  1.0000
  H   H847      1.0  0.43314  0.89963  0.42396  1.0000
  H   H848      1.0  0.44460  0.85473  0.38235  1.0000
  H   H849      1.0  0.41520  0.83802  0.40064  1.0000
  C   C536      1.0  0.28007  0.86926  0.47554  1.0000
  H   H850      1.0  0.03078  0.84420  0.29567  1.0000
  H   H851      1.0  0.09651  0.85356  0.44794  1.0000
  H   H852      1.0  0.09996  0.83190  0.39903  1.0000
  H   H853      1.0  0.24009  0.97005  0.48469  1.0000
  H   H854      1.0  0.47690  0.73309  0.47077  1.0000
  C   C537      1.0  0.17168  0.97526  0.47856  1.0000
  H   H855      1.0  0.19527  0.83589  0.47099  1.0000
  H   H856      1.0  0.21114  0.84200  0.43101  1.0000
  H   H857      1.0  0.03878  0.79493  0.32885  1.0000
  C   C538      1.0  0.02409  0.81034  0.38595  1.0000
  H   H858      1.0  0.25306  0.91489  0.47981  1.0000
  H   H859      1.0  0.01887  0.79700  0.27937  1.0000
  H   H860      1.0  0.05454  0.81835  0.37829  1.0000
  H   H861      1.0  0.06011  0.79303  0.29520  1.0000
  H   H862      1.0  0.47455  0.65955  0.28617  1.0000
  H   H863      1.0  0.07515  0.85128  0.43518  1.0000
  C   C539      1.0  0.48553  0.88277  0.24391  1.0000
  H   H864      1.0  0.25017  0.93386  0.44583  1.0000
  C   C540      1.0  0.12473  0.85174  0.41540  1.0000
  H   H865      1.0  0.13630  0.81905  0.46748  1.0000
  C   C541      1.0  0.47109  0.88286  0.28519  1.0000
  H   H866      1.0  0.13327  0.85802  0.40101  1.0000
  H   H867      1.0  0.45760  0.67178  0.26843  1.0000
  C   C542      1.0  0.47332  0.66416  0.26969  1.0000
  H   H868      1.0  0.48406  0.67559  0.26418  1.0000
  C   C543      1.0  0.47882  0.83400  0.41183  1.0000
  H   H869      1.0  0.07947  0.85228  0.39754  1.0000
  H   H870      1.0  0.12928  0.83501  0.41740  1.0000
  H   H871      1.0  0.05560  0.73885  0.48262  1.0000
  H   H872      1.0  0.44602  0.90392  0.27485  1.0000
  C   C544      1.0  0.46018  0.89483  0.27028  1.0000
  C   C545      1.0  0.36355  0.67922  0.47772  1.0000
  C   C546      1.0  0.16611  0.82801  0.46680  1.0000
  S   S220      1.0  0.00588  0.86447  0.34036  1.0000
  C   C547      1.0  0.48893  0.87037  0.27933  1.0000
  H   H873      1.0  0.46529  0.88272  0.30112  1.0000
  C   C548      1.0  0.09196  0.84777  0.43462  1.0000
  H   H874      1.0  0.99627  0.96084  0.34911  1.0000
  N   N54       1.0  0.10253  0.85685  0.41532  1.0000
  N   N55       1.0  0.24150  0.83990  0.41515  1.0000
  C   C549      1.0  0.26208  0.84316  0.41865  1.0000
  C   C550      1.0  0.23554  0.85354  0.39709  1.0000
  C   C551      1.0  0.22683  0.84443  0.43306  1.0000
  C   C552      1.0  0.24144  0.81852  0.41183  1.0000
  H   H875      1.0  0.26673  0.83395  0.43277  1.0000
  H   H876      1.0  0.26278  0.85938  0.42029  1.0000
  H   H877      1.0  0.27369  0.83916  0.40577  1.0000
  H   H878      1.0  0.21675  0.97276  0.47375  1.0000
  H   H879      1.0  0.23526  0.86983  0.39922  1.0000
  H   H880      1.0  0.24635  0.85072  0.38328  1.0000
  H   H881      1.0  0.45815  0.85470  0.25870  1.0000
  H   H882      1.0  0.22627  0.86048  0.43581  1.0000
  H   H883      1.0  0.23092  0.83468  0.44709  1.0000
  H   H884      1.0  0.22601  0.81559  0.40939  1.0000
  H   H885      1.0  0.24598  0.80786  0.42517  1.0000
  H   H886      1.0  0.25216  0.81457  0.39828  1.0000
  N   N56       1.0  0.03143  0.81175  0.30043  1.0000
  Fe  Fe115     1.0  0.00373  0.77800  0.42147  1.0000
  H   H887      1.0  0.23468  0.95792  0.44313  1.0000
  H   H888      1.0  0.01818  0.79576  0.46571  1.0000
  S   S221      1.0  0.34798  0.88171  0.47267  1.0000
  N   N57       1.0  0.48224  0.83584  0.43276  1.0000
  C   C553      1.0  0.01314  0.95397  0.32054  1.0000
  H   H889      1.0  0.36300  0.69213  0.46535  1.0000
  H   H890      1.0  0.06189  0.81977  0.29316  1.0000
  C   C554      1.0  0.02224  0.79678  0.48058  1.0000
  C   C555      1.0  0.46719  0.89456  0.24951  1.0000
  H   H891      1.0  0.05268  0.80974  0.27330  1.0000
  H   H892      1.0  0.05047  0.80861  0.46877  1.0000
  H   H893      1.0  0.13009  0.85799  0.42799  1.0000
  H   H894      1.0  0.00021  0.97455  0.27415  1.0000
  H   H895      1.0  0.02812  0.87807  0.24831  1.0000
  C   C556      1.0  0.05242  0.80834  0.29010  1.0000
  C   C557      1.0  0.01949  0.79624  0.29599  1.0000
  H   H896      1.0  0.10253  0.88599  0.42557  1.0000
  C   C558      1.0  0.49331  0.72754  0.46716  1.0000
  N   N58       1.0  0.35542  0.66144  0.47234  1.0000
  H   H897      1.0  0.00626  0.83561  0.30088  1.0000
  C   C559      1.0  0.03879  0.82235  0.37577  1.0000
  H   H898      1.0  0.09560  0.83092  0.43673  1.0000
  H   H899      1.0  0.46968  0.71574  0.44270  1.0000
  H   H900      1.0  0.10465  0.88645  0.39860  1.0000
  H   H901      1.0  0.22009  0.85149  0.39395  1.0000
  C   C560      1.0  0.25909  0.86799  0.47888  1.0000
  H   H902      1.0  0.10376  0.85535  0.38324  1.0000
  N   N59       1.0  0.23382  0.94301  0.47374  1.0000
  H   H903      1.0  0.46743  0.85158  0.45782  1.0000
  H   H904      1.0  0.02625  0.78061  0.30140  1.0000
  H   H905      1.0  0.33336  0.67957  0.45485  1.0000
  H   H906      1.0  0.46390  0.82861  0.41142  1.0000
  S   S222      1.0  0.48917  0.84301  0.35824  1.0000
  H   H907      1.0  0.37973  0.67541  0.48057  1.0000
  H   H908      1.0  0.08893  0.75252  0.47559  1.0000
  H   H909      1.0  0.01637  0.81311  0.33091  1.0000
  C   C561      1.0  0.48623  0.71043  0.43994  1.0000
  C   C562      1.0  0.99928  0.97149  0.29052  1.0000
  C   C563      1.0  0.99699  0.96376  0.33275  1.0000
  C   C564      1.0  0.21593  0.93289  0.47213  1.0000
  H   H910      1.0  0.36762  0.66580  0.44079  1.0000
  C   C565      1.0  0.24754  0.92930  0.48650  1.0000
  H   H911      1.0  0.47838  0.75143  0.43580  1.0000
  C   C566      1.0  0.48225  0.81568  0.44494  1.0000
  S   S223      1.0  0.35162  0.83195  0.48144  1.0000
  C   C567      1.0  0.14841  0.82017  0.47626  1.0000
  C   C568      1.0  0.04054  0.80406  0.48233  1.0000
  H   H912      1.0  0.49313  0.91479  0.29345  1.0000
  H   H913      1.0  0.26117  0.93648  0.48812  1.0000
  H   H914      1.0  0.46745  0.80967  0.44546  1.0000
  H   H915      1.0  0.17299  0.98651  0.46535  1.0000
  H   H916      1.0  0.43358  0.81275  0.24614  1.0000
  H   H917      1.0  0.49086  0.82318  0.40451  1.0000
  H   H918      1.0  0.48988  0.70822  0.42356  1.0000
  H   H919      1.0  0.47002  0.82899  0.26076  1.0000
  H   H920      1.0  0.46598  0.86583  0.43326  1.0000
  H   H921      1.0  0.00357  0.79842  0.30358  1.0000
  C   C569      1.0  0.49456  0.74484  0.43288  1.0000
  H   H922      1.0  0.49449  0.80452  0.43836  1.0000
  C   C570      1.0  0.45686  0.98959  0.66442  1.0000
  H   H923      1.0  0.36562  0.78934  0.49647  1.0000
  H   H924      1.0  0.15200  0.89244  0.56118  1.0000
  H   H925      1.0  0.07617  0.71185  0.51752  1.0000
  Fe  Fe116     1.0  0.40014  0.68943  0.52326  1.0000
  S   S224      1.0  0.37647  0.71545  0.51395  1.0000
  C   C571      1.0  0.08464  0.72260  0.50641  1.0000
  H   H926      1.0  0.00479  0.78773  0.53074  1.0000
  S   S225      1.0  0.42904  0.68477  0.50198  1.0000
  S   S226      1.0  0.15709  0.91766  0.49184  1.0000
  Fe  Fe117     1.0  0.37625  0.97411  0.65125  1.0000
  S   S227      1.0  0.40131  0.96416  0.62749  1.0000
  S   S228      1.0  0.37770  0.97424  0.68487  1.0000
  C   C572      1.0  0.42445  0.93584  0.72278  1.0000
  Fe  Fe118     1.0  0.37693  0.95461  0.61210  1.0000
  S   S229      1.0  0.38040  0.92386  0.60048  1.0000
  C   C573      1.0  0.17941  0.82357  0.49920  1.0000
  S   S230      1.0  0.35246  0.96166  0.63759  1.0000
  Fe  Fe119     1.0  0.36626  0.83407  0.50893  1.0000
  H   H927      1.0  0.01791  0.90260  0.68181  1.0000
  S   S231      1.0  0.37593  0.80666  0.53105  1.0000
  Fe  Fe120     1.0  0.36268  0.88060  0.50131  1.0000
  S   S232      1.0  0.36610  0.91097  0.51149  1.0000
  S   S233      1.0  0.34256  0.85889  0.51963  1.0000
  Fe  Fe121     1.0  0.12644  0.80284  0.54529  1.0000
  S   S234      1.0  0.11592  0.79272  0.57789  1.0000
  S   S235      1.0  0.15846  0.80933  0.53505  1.0000
  Fe  Fe122     1.0  0.08404  0.80664  0.53207  1.0000
  S   S236      1.0  0.06994  0.79766  0.56385  1.0000
  H   H928      1.0  0.18941  0.67147  0.50016  1.0000
  Fe  Fe123     1.0  0.09025  0.81797  0.57394  1.0000
  S   S237      1.0  0.08126  0.84549  0.59168  1.0000
  Fe  Fe124     1.0  0.09707  0.77336  0.56467  1.0000
  S   S238      1.0  0.09270  0.73998  0.57313  1.0000
  S   S239      1.0  0.10190  0.82871  0.54172  1.0000
  S   S240      1.0  0.11000  0.78165  0.53245  1.0000
  Fe  Fe125     1.0  0.10788  0.89910  0.68185  1.0000
  S   S241      1.0  0.09260  0.92719  0.66516  1.0000
  S   S242      1.0  0.11642  0.86929  0.66791  1.0000
  Fe  Fe126     1.0  0.10556  0.91908  0.72154  1.0000
  S   S243      1.0  0.08964  0.94821  0.70749  1.0000
  Fe  Fe127     1.0  0.07151  0.92902  0.69408  1.0000
  S   S244      1.0  0.03775  0.93634  0.69363  1.0000
  Fe  Fe128     1.0  0.11226  0.94377  0.68011  1.0000
  S   S245      1.0  0.12589  0.97201  0.66590  1.0000
  S   S246      1.0  0.08533  0.89992  0.71020  1.0000
  S   S247      1.0  0.12967  0.91564  0.69471  1.0000
  H   H929      1.0  0.18329  0.66845  0.53722  1.0000
  H   H930      1.0  0.41985  0.93177  0.57241  1.0000
  H   H931      1.0  0.01638  0.87574  0.68500  1.0000
  C   C574      1.0  0.11883  0.88022  0.55027  1.0000
  Fe  Fe129     1.0  0.44298  0.67191  0.53024  1.0000
  C   C575      1.0  0.08608  0.75729  0.49110  1.0000
  H   H932      1.0  0.06270  0.96790  0.67662  1.0000
  C   C576      1.0  0.10723  0.72217  0.55786  1.0000
  C   C577      1.0  0.12512  0.72684  0.54569  1.0000
  C   C578      1.0  0.13638  0.71262  0.53355  1.0000
  C   C579      1.0  0.12983  0.69363  0.53324  1.0000
  C   C580      1.0  0.11184  0.68893  0.54525  1.0000
  C   C581      1.0  0.10066  0.70313  0.55762  1.0000
  H   H933      1.0  0.13056  0.74127  0.54596  1.0000
  H   H934      1.0  0.15030  0.71639  0.52438  1.0000
  H   H935      1.0  0.04527  0.75922  0.49728  1.0000
  H   H936      1.0  0.08686  0.69936  0.56702  1.0000
  C   C582      1.0  0.09334  0.85206  0.61147  1.0000
  C   C583      1.0  0.10419  0.83742  0.62417  1.0000
  C   C584      1.0  0.11153  0.84301  0.64111  1.0000
  C   C585      1.0  0.10828  0.86327  0.64549  1.0000
  C   C586      1.0  0.09822  0.87805  0.63226  1.0000
  C   C587      1.0  0.09065  0.87244  0.61546  1.0000
  H   H937      1.0  0.10635  0.82168  0.62134  1.0000
  H   H938      1.0  0.11946  0.83147  0.65113  1.0000
  H   H939      1.0  0.09619  0.89377  0.63508  1.0000
  H   H940      1.0  0.08243  0.88391  0.60565  1.0000
  C   C588      1.0  0.03326  0.79922  0.51895  1.0000
  H   H941      1.0  0.35491  0.68477  0.49176  1.0000
  S   S248      1.0  0.44231  0.92067  0.73725  1.0000
  H   H942      1.0  0.16690  0.93490  0.52580  1.0000
  H   H943      1.0  0.03743  0.80017  0.53379  1.0000
  H   H944      1.0  0.43699  0.98869  0.54228  1.0000
  C   C589      1.0  0.16156  0.81599  0.50873  1.0000
  H   H945      1.0  0.21850  0.95898  0.49845  1.0000
  H   H946      1.0  0.19139  0.82490  0.50805  1.0000
  C   C590      1.0  0.16368  0.94180  0.49392  1.0000
  S   S249      1.0  0.21788  0.98398  0.54272  1.0000
  H   H947      1.0  0.05403  0.89527  0.68619  1.0000
  S   S250      1.0  0.41458  0.67878  0.55201  1.0000
  C   C591      1.0  0.14442  0.96686  0.64556  1.0000
  C   C592      1.0  0.14802  0.94754  0.63910  1.0000
  H   H948      1.0  0.42188  0.96565  0.52355  1.0000
  C   C593      1.0  0.17289  0.95961  0.61172  1.0000
  C   C594      1.0  0.01975  0.88894  0.67356  1.0000
  H   H949      1.0  0.13969  0.93544  0.64697  1.0000
  H   H950      1.0  0.04420  0.73340  0.50842  1.0000
  H   H951      1.0  0.17837  0.96801  0.52855  1.0000
  C   C595      1.0  0.37629  0.92053  0.57572  1.0000
  C   C596      1.0  0.37208  0.93712  0.56117  1.0000
  C   C597      1.0  0.36906  0.93391  0.54155  1.0000
  C   C598      1.0  0.36989  0.91412  0.53638  1.0000
  C   C599      1.0  0.37385  0.89753  0.55100  1.0000
  C   C600      1.0  0.37715  0.90075  0.57056  1.0000
  H   H952      1.0  0.37116  0.95241  0.56500  1.0000
  H   H953      1.0  0.36594  0.94681  0.53029  1.0000
  H   H954      1.0  0.37460  0.88223  0.54716  1.0000
  H   H955      1.0  0.38039  0.88781  0.58173  1.0000
  H   H956      1.0  0.13924  0.87934  0.51265  1.0000
  C   C601      1.0  0.42371  0.93204  0.70279  1.0000
  C   C602      1.0  0.40943  0.94363  0.69095  1.0000
  C   C603      1.0  0.39561  0.95892  0.69917  1.0000
  C   C604      1.0  0.39630  0.96264  0.71918  1.0000
  C   C605      1.0  0.02504  0.98363  0.73685  1.0000
  H   H957      1.0  0.43422  0.92007  0.69645  1.0000
  H   H958      1.0  0.40897  0.94060  0.67558  1.0000
  H   H959      1.0  0.40583  0.95515  0.57909  1.0000
  C   C606      1.0  0.37865  0.74068  0.51771  1.0000
  C   C607      1.0  0.38648  0.74499  0.53472  1.0000
  C   C608      1.0  0.38599  0.76531  0.53838  1.0000
  C   C609      1.0  0.37822  0.78147  0.52479  1.0000
  C   C610      1.0  0.37119  0.77712  0.50734  1.0000
  C   C611      1.0  0.37101  0.75683  0.50406  1.0000
  H   H960      1.0  0.39228  0.73267  0.54542  1.0000
  H   H961      1.0  0.39150  0.76851  0.55189  1.0000
  C   C612      1.0  0.05386  0.74370  0.49807  1.0000
  C   C613      1.0  0.49212  0.67002  0.49838  1.0000
  H   H962      1.0  0.06294  0.76615  0.52542  1.0000
  C   C614      1.0  0.16934  0.97888  0.61831  1.0000
  N   N60       1.0  0.04047  0.88553  0.66260  1.0000
  N   N61       1.0  0.14028  0.87197  0.54486  1.0000
  H   H963      1.0  0.05799  0.86406  0.64388  1.0000
  H   H964      1.0  0.16983  0.88208  0.54141  1.0000
  H   H965      1.0  0.25268  0.85948  0.49264  1.0000
  C   C615      1.0  0.16240  0.94388  0.62225  1.0000
  H   H966      1.0  0.05340  0.86834  0.68833  1.0000
  H   H967      1.0  0.17236  0.98206  0.70811  1.0000
  S   S251      1.0  0.29542  0.85657  0.49399  1.0000
  C   C616      1.0  0.41584  0.95823  0.53868  1.0000
  H   H968      1.0  0.40048  0.96636  0.54291  1.0000
  S   S252      1.0  0.47356  0.67760  0.53689  1.0000
  C   C617      1.0  0.43093  0.98001  0.55671  1.0000
  C   C618      1.0  0.01116  0.97075  0.68628  1.0000
  H   H969      1.0  0.21788  0.67376  0.51991  1.0000
  H   H970      1.0  0.14389  0.85784  0.57525  1.0000
  Fe  Fe130     1.0  0.32942  0.85835  0.49064  1.0000
  N   N62       1.0  0.31128  0.94316  0.58690  1.0000
  C   C619      1.0  0.30552  0.93021  0.60599  1.0000
  C   C620      1.0  0.31997  0.93018  0.57088  1.0000
  C   C621      1.0  0.32655  0.95591  0.59030  1.0000
  C   C622      1.0  0.29311  0.95636  0.58052  1.0000
  H   H971      1.0  0.11699  0.98648  0.70449  1.0000
  H   H972      1.0  0.31898  0.92015  0.61124  1.0000
  H   H973      1.0  0.29400  0.92034  0.60408  1.0000
  H   H974      1.0  0.30873  0.92064  0.56761  1.0000
  H   H975      1.0  0.32498  0.93944  0.55637  1.0000
  H   H976      1.0  0.33345  0.91970  0.57537  1.0000
  H   H977      1.0  0.33134  0.96593  0.57626  1.0000
  H   H978      1.0  0.34039  0.94644  0.59528  1.0000
  H   H979      1.0  0.32050  0.96586  0.60235  1.0000
  H   H980      1.0  0.29694  0.96645  0.56621  1.0000
  H   H981      1.0  0.28618  0.96634  0.59228  1.0000
  H   H982      1.0  0.28120  0.94731  0.57781  1.0000
  C   C623      1.0  0.04618  0.80518  0.50150  1.0000
  H   H983      1.0  0.06135  0.74038  0.53690  1.0000
  H   H984      1.0  0.14976  0.90153  0.53496  1.0000
  C   C624      1.0  0.49416  0.67531  0.51751  1.0000
  S   S253      1.0  0.06960  0.81377  0.50292  1.0000
  C   C625      1.0  0.04694  0.97444  0.67784  1.0000
  C   C626      1.0  0.01478  0.79223  0.51720  1.0000
  C   C627      1.0  0.17462  0.96491  0.51418  1.0000
  C   C628      1.0  0.16811  0.94615  0.51260  1.0000
  H   H985      1.0  0.11618  0.88473  0.56590  1.0000
  H   H986      1.0  0.08534  0.75004  0.53160  1.0000
  H   H987      1.0  0.38565  0.97447  0.72561  1.0000
  C   C629      1.0  0.05545  0.88216  0.67733  1.0000
  H   H988      1.0  0.00801  0.89142  0.66295  1.0000
  H   H989      1.0  0.10667  0.67431  0.54521  1.0000
  H   H990      1.0  0.15915  0.85982  0.51953  1.0000
  H   H991      1.0  0.29897  0.93959  0.61841  1.0000
  H   H992      1.0  0.17752  0.99100  0.61034  1.0000
  H   H993      1.0  0.36503  0.75362  0.49080  1.0000
  H   H994      1.0  0.13351  0.85416  0.52278  1.0000
  H   H995      1.0  0.44928  0.93236  0.54537  1.0000
  Fe  Fe131     1.0  0.19615  0.98449  0.57126  1.0000
  H   H996      1.0  0.15968  0.94803  0.72035  1.0000
  C   C630      1.0  0.14602  0.81443  0.49728  1.0000
  C   C631      1.0  0.00928  0.79091  0.49802  1.0000
  N   N63       1.0  0.14212  0.97742  0.72188  1.0000
  C   C632      1.0  0.17651  0.97946  0.49711  1.0000
  H   H997      1.0  0.44109  0.98096  0.56829  1.0000
  S   S254      1.0  0.37091  0.98463  0.59306  1.0000
  C   C633      1.0  0.04231  0.86748  0.65166  1.0000
  H   H998      1.0  0.10109  0.75772  0.49632  1.0000
  H   H999      1.0  0.41379  0.94235  0.53684  1.0000
  H   H1000     1.0  0.03892  0.85367  0.66221  1.0000
  H   H1001     1.0  0.03316  0.90685  0.63678  1.0000
  C   C634      1.0  0.14449  0.95613  0.71746  1.0000
  C   C635      1.0  0.41078  0.95127  0.73090  1.0000
  C   C636      1.0  0.15355  0.88769  0.54569  1.0000
  H   H1002     1.0  0.45604  0.97290  0.66755  1.0000
  C   C637      1.0  0.14312  0.86610  0.52406  1.0000
  H   H1003     1.0  0.11940  0.98849  0.61284  1.0000
  H   H1004     1.0  0.05975  0.90159  0.63928  1.0000
  H   H1005     1.0  0.46054  0.94848  0.55887  1.0000
  H   H1006     1.0  0.14288  0.95525  0.70133  1.0000
  H   H1007     1.0  0.07132  0.88020  0.66964  1.0000
  N   N64       1.0  0.31277  0.80161  0.53973  1.0000
  C   C638      1.0  0.32372  0.78381  0.55096  1.0000
  C   C639      1.0  0.31498  0.82024  0.54837  1.0000
  C   C640      1.0  0.29100  0.79910  0.54124  1.0000
  C   C641      1.0  0.32152  0.80339  0.51817  1.0000
  H   H1008     1.0  0.32298  0.76952  0.54445  1.0000
  H   H1009     1.0  0.31741  0.78178  0.56727  1.0000
  H   H1010     1.0  0.34015  0.78552  0.55029  1.0000
  H   H1011     1.0  0.28247  0.81238  0.53282  1.0000
  H   H1012     1.0  0.30749  0.83405  0.53976  1.0000
  H   H1013     1.0  0.30818  0.81972  0.56453  1.0000
  H   H1014     1.0  0.04343  0.91745  0.65581  1.0000
  H   H1015     1.0  0.02620  0.98132  0.72059  1.0000
  H   H1016     1.0  0.43101  0.94809  0.58580  1.0000
  H   H1017     1.0  0.31336  0.81635  0.50904  1.0000
  H   H1018     1.0  0.32102  0.78934  0.51120  1.0000
  H   H1019     1.0  0.33766  0.80613  0.51660  1.0000
  C   C642      1.0  0.03155  0.96215  0.68506  1.0000
  C   C643      1.0  0.04436  0.90364  0.64796  1.0000
  C   C644      1.0  0.44990  0.94848  0.54750  1.0000
  H   H1020     1.0  0.33133  0.82228  0.54780  1.0000
  H   H1021     1.0  0.10835  0.86876  0.54993  1.0000
  H   H1022     1.0  0.03179  0.86972  0.63985  1.0000
  C   C645      1.0  0.07063  0.75030  0.52567  1.0000
  N   N65       1.0  0.42948  0.95867  0.55413  1.0000
  H   H1023     1.0  0.13208  0.80894  0.50456  1.0000
  H   H1024     1.0  0.11422  0.89379  0.53955  1.0000
  C   C646      1.0  0.14566  0.85396  0.55941  1.0000
  H   H1025     1.0  0.16161  0.84703  0.55556  1.0000
  C   C647      1.0  0.15532  0.98242  0.63540  1.0000
  H   H1026     1.0  0.28383  0.79775  0.55731  1.0000
  S   S255      1.0  0.14489  0.67639  0.51775  1.0000
  H   H1027     1.0  0.13577  0.84190  0.55933  1.0000
  H   H1028     1.0  0.23969  0.92519  0.50201  1.0000
  C   C648      1.0  0.42124  0.94794  0.57369  1.0000
  H   H1029     1.0  0.28884  0.78525  0.53470  1.0000
  H   H1030     1.0  0.16517  0.92895  0.61719  1.0000
  N   N66       1.0  0.07378  0.74346  0.50530  1.0000
  S   S256      1.0  0.19010  0.95521  0.59015  1.0000
  H   H1031     1.0  0.45663  0.95622  0.53281  1.0000
  C   C649      1.0  0.12098  0.98671  0.72004  1.0000
  H   H1032     1.0  0.41580  0.98811  0.56194  1.0000
  H   H1033     1.0  0.47745  0.66716  0.49514  1.0000
  H   H1034     1.0  0.10990  0.97831  0.73084  1.0000
  H   H1035     1.0  0.13274  0.94749  0.72687  1.0000
  C   C650      1.0  0.15631  0.98886  0.70722  1.0000
  H   H1036     1.0  0.08693  0.71669  0.49141  1.0000
  S   S257      1.0  0.38780  0.85586  0.49297  1.0000
  H   H1037     1.0  0.09993  0.72207  0.51136  1.0000
  H   H1038     1.0  0.41975  0.97963  0.66190  1.0000
  H   H1039     1.0  0.15316  0.98878  0.69131  1.0000
  H   H1040     1.0  0.11327  0.99175  0.58721  1.0000
  H   H1041     1.0  0.43062  0.97941  0.69633  1.0000
  C   C651      1.0  0.00622  0.99172  0.68081  1.0000
  H   H1042     1.0  0.99920  0.96128  0.69170  1.0000
  H   H1043     1.0  0.07831  0.77315  0.48983  1.0000
  H   H1044     1.0  0.04006  0.98742  0.73946  1.0000
  H   H1045     1.0  0.41870  0.89912  0.76961  1.0000
  H   H1046     1.0  0.18269  0.69199  0.95598  1.0000
  S   S258      1.0  0.18355  0.86017  0.94470  1.0000
  H   H1047     1.0  0.47397  0.66554  0.98618  1.0000
  H   H1048     1.0  0.43542  0.89972  0.91153  1.0000
  H   H1049     1.0  0.11312  0.89055  0.83864  1.0000
  H   H1050     1.0  0.45350  0.88144  0.76170  1.0000
  Fe  Fe132     1.0  0.16820  0.96335  0.82923  1.0000
  S   S259      1.0  0.13752  0.97254  0.84587  1.0000
  S   S260      1.0  0.17383  0.94786  0.80033  1.0000
  H   H1051     1.0  0.42271  0.84826  0.90702  1.0000
  Fe  Fe133     1.0  0.15125  0.95759  0.87391  1.0000
  S   S261      1.0  0.13476  0.93664  0.89823  1.0000
  H   H1052     1.0  0.45843  0.85443  0.76784  1.0000
  S   S262      1.0  0.18095  0.94658  0.85696  1.0000
  H   H1053     1.0  0.42478  0.85036  0.80318  1.0000
  C   C652      1.0  0.02927  0.66629  0.98930  1.0000
  S   S263      1.0  0.08767  0.68312  0.92671  1.0000
  Fe  Fe134     1.0  0.07179  0.67334  0.95772  1.0000
  H   H1054     1.0  0.13014  0.86997  0.84937  1.0000
  Fe  Fe135     1.0  0.11015  0.69350  0.94424  1.0000
  S   S264      1.0  0.12449  0.72296  0.93597  1.0000
  H   H1055     1.0  0.14049  0.90058  0.81152  1.0000
  S   S265      1.0  0.09262  0.68611  0.97477  1.0000
  Fe  Fe136     1.0  0.44289  0.95581  0.80162  1.0000
  S   S266      1.0  0.42709  0.93017  0.79569  1.0000
  C   C653      1.0  0.44882  0.86831  0.77263  1.0000
  Fe  Fe137     1.0  0.48449  0.93556  0.78873  1.0000
  S   S267      1.0  0.47273  0.90772  0.78200  1.0000
  Fe  Fe138     1.0  0.44889  0.92933  0.76709  1.0000
  Fe  Fe139     1.0  0.45174  0.90996  0.81106  1.0000
  S   S268      1.0  0.43959  0.88225  0.83007  1.0000
  S   S269      1.0  0.46237  0.95700  0.77153  1.0000
  S   S270      1.0  0.46581  0.93600  0.81936  1.0000
  Fe  Fe140     1.0  0.44733  0.76448  0.94169  1.0000
  S   S271      1.0  0.43057  0.77879  0.96862  1.0000
  S   S272      1.0  0.44889  0.73075  0.93868  1.0000
  Fe  Fe141     1.0  0.46455  0.80399  0.92255  1.0000
  S   S273      1.0  0.44966  0.82063  0.94856  1.0000
  S   S274      1.0  0.48314  0.82311  0.89815  1.0000
  Fe  Fe142     1.0  0.45927  0.79258  0.96876  1.0000
  Fe  Fe143     1.0  0.42258  0.80558  0.94580  1.0000
  S   S275      1.0  0.39387  0.82737  0.94625  1.0000
  S   S276      1.0  0.47682  0.77678  0.94320  1.0000
  S   S277      1.0  0.43677  0.79035  0.91857  1.0000
  H   H1056     1.0  0.40490  0.89964  0.88170  1.0000
  H   H1057     1.0  0.20298  0.92001  0.92079  1.0000
  C   C654      1.0  0.47124  0.83917  0.87884  1.0000
  C   C655      1.0  0.42262  0.86450  0.75262  1.0000
  H   H1058     1.0  0.43040  0.83460  0.78297  1.0000
  C   C656      1.0  0.45259  0.86558  0.84820  1.0000
  C   C657      1.0  0.44327  0.84889  0.85854  1.0000
  C   C658      1.0  0.45246  0.83583  0.87387  1.0000
  H   H1059     1.0  0.42879  0.84608  0.85476  1.0000
  H   H1060     1.0  0.44515  0.82302  0.88170  1.0000
  C   C659      1.0  0.12577  0.73164  0.97508  1.0000
  C   C660      1.0  0.40718  0.96098  0.84237  1.0000
  C   C661      1.0  0.16823  0.69453  0.96622  1.0000
  H   H1061     1.0  0.16229  0.97060  0.74499  1.0000
  H   H1062     1.0  0.42656  0.87789  0.74159  1.0000
  H   H1063     1.0  0.41536  0.94821  0.83523  1.0000
  H   H1064     1.0  0.41119  0.95428  0.74629  1.0000
  S   S278      1.0  0.38245  0.67398  0.98223  1.0000
  C   C662      1.0  0.14664  0.97795  0.74277  1.0000
  C   C663      1.0  0.29607  0.97293  0.84879  1.0000
  H   H1065     1.0  0.42631  0.85712  0.93005  1.0000
  H   H1066     1.0  0.41028  0.87309  0.87869  1.0000
  C   C664      1.0  0.31157  0.95990  0.87919  1.0000
  H   H1067     1.0  0.41813  0.66688  0.95205  1.0000
  C   C665      1.0  0.40095  0.68951  0.96965  1.0000
  H   H1068     1.0  0.45392  0.66386  0.97157  1.0000
  C   C666      1.0  0.41394  0.72255  0.96445  1.0000
  C   C667      1.0  0.43004  0.71532  0.95059  1.0000
  C   C668      1.0  0.43150  0.69512  0.94631  1.0000
  C   C669      1.0  0.41701  0.68227  0.95575  1.0000
  H   H1069     1.0  0.18950  0.97615  0.91264  1.0000
  H   H1070     1.0  0.41260  0.73805  0.96783  1.0000
  C   C670      1.0  0.15491  0.94070  0.78765  1.0000
  C   C671      1.0  0.16095  0.92989  0.77081  1.0000
  C   C672      1.0  0.39310  0.95763  0.85970  1.0000
  C   C673      1.0  0.12569  0.92775  0.76709  1.0000
  C   C674      1.0  0.11965  0.93842  0.78405  1.0000
  C   C675      1.0  0.13416  0.94514  0.79410  1.0000
  H   H1071     1.0  0.17698  0.92625  0.76581  1.0000
  H   H1072     1.0  0.44379  0.68948  0.93545  1.0000
  H   H1073     1.0  0.29864  0.96745  0.88886  1.0000
  H   H1074     1.0  0.12929  0.95373  0.80684  1.0000
  H   H1075     1.0  0.34624  0.95926  0.85377  1.0000
  H   H1076     1.0  0.41856  0.89365  0.93425  1.0000
  C   C676      1.0  0.14591  0.76613  0.96194  1.0000
  C   C677      1.0  0.14012  0.75492  0.94777  1.0000
  C   C678      1.0  0.13021  0.73750  0.95425  1.0000
  H   H1077     1.0  0.43067  0.88768  0.87933  1.0000
  C   C679      1.0  0.38257  0.97409  0.86915  1.0000
  H   H1078     1.0  0.15379  0.77932  0.95673  1.0000
  H   H1079     1.0  0.14357  0.75963  0.93168  1.0000
  H   H1080     1.0  0.39068  0.87313  0.93343  1.0000
  C   C680      1.0  0.16953  0.88133  0.93221  1.0000
  C   C681      1.0  0.17870  0.89118  0.91410  1.0000
  C   C682      1.0  0.16827  0.90826  0.90374  1.0000
  C   C683      1.0  0.14835  0.91538  0.91114  1.0000
  C   C684      1.0  0.13904  0.90539  0.92914  1.0000
  C   C685      1.0  0.14967  0.88852  0.93978  1.0000
  H   H1081     1.0  0.19402  0.88560  0.90813  1.0000
  H   H1082     1.0  0.17561  0.91570  0.88992  1.0000
  H   H1083     1.0  0.12363  0.91080  0.93499  1.0000
  H   H1084     1.0  0.14245  0.88099  0.95373  1.0000
  H   H1085     1.0  0.38708  0.71548  0.98457  1.0000
  C   C686      1.0  0.34827  0.97220  0.97697  1.0000
  C   C687      1.0  0.38166  0.82627  0.97113  1.0000
  H   H1086     1.0  0.19682  0.94124  0.90221  1.0000
  H   H1087     1.0  0.25295  0.96965  0.90059  1.0000
  H   H1088     1.0  0.00523  0.98882  0.77391  1.0000
  S   S279      1.0  0.19042  0.81543  0.98692  1.0000
  H   H1089     1.0  0.10363  0.94164  0.78933  1.0000
  C   C688      1.0  0.17170  0.94601  0.93620  1.0000
  S   S280      1.0  0.22089  0.97158  0.87612  1.0000
  Fe  Fe144     1.0  0.17204  0.84467  0.97565  1.0000
  C   C689      1.0  0.42153  0.84893  0.78757  1.0000
  H   H1090     1.0  0.38733  0.86418  0.91036  1.0000
  H   H1091     1.0  0.40952  0.91152  0.91392  1.0000
  H   H1092     1.0  0.19533  0.94968  0.96448  1.0000
  C   C690      1.0  0.19611  0.97017  0.92694  1.0000
  H   H1093     1.0  0.38143  0.89088  0.91308  1.0000
  H   H1094     1.0  0.38678  0.79362  0.97690  1.0000
  H   H1095     1.0  0.37380  0.94897  0.97983  1.0000
  H   H1096     1.0  0.31377  0.84185  0.97461  1.0000
  C   C691      1.0  0.13390  0.92057  0.84427  1.0000
  H   H1097     1.0  0.16338  0.95486  0.94833  1.0000
  C   C692      1.0  0.15143  0.89582  0.82289  1.0000
  H   H1098     1.0  0.15741  0.87960  0.82174  1.0000
  C   C693      1.0  0.33201  0.96074  0.84648  1.0000
  C   C694      1.0  0.38072  0.80757  0.98321  1.0000
  H   H1099     1.0  0.13592  0.96976  0.75415  1.0000
  C   C695      1.0  0.37349  0.84425  0.97922  1.0000
  C   C696      1.0  0.39225  0.87705  0.91662  1.0000
  C   C697      1.0  0.41483  0.88540  0.88607  1.0000
  H   H1100     1.0  0.30828  0.94419  0.87845  1.0000
  Fe  Fe145     1.0  0.19111  0.97603  0.86203  1.0000
  H   H1101     1.0  0.15131  0.91479  0.74787  1.0000
  H   H1102     1.0  0.32526  0.95870  0.88723  1.0000
  S   S281      1.0  0.18127  0.99189  0.83246  1.0000
  H   H1103     1.0  0.47282  0.98728  0.79867  1.0000
  H   H1104     1.0  0.18854  0.97969  0.93886  1.0000
  H   H1105     1.0  0.12743  0.92376  0.85993  1.0000
  C   C698      1.0  0.20385  0.93656  0.91652  1.0000
  N   N67       1.0  0.42694  0.86674  0.77319  1.0000
  H   H1106     1.0  0.16440  0.90495  0.81819  1.0000
  S   S282      1.0  0.16172  0.98617  0.88067  1.0000
  C   C699      1.0  0.41486  0.88534  0.77999  1.0000
  H   H1107     1.0  0.39827  0.88478  0.78047  1.0000
  C   C700      1.0  0.12474  0.88647  0.84938  1.0000
  H   H1108     1.0  0.14622  0.93036  0.83901  1.0000
  C   C701      1.0  0.41949  0.89703  0.91742  1.0000
  C   C702      1.0  0.42703  0.86138  0.91335  1.0000
  C   C703      1.0  0.48073  0.85568  0.86828  1.0000
  N   N68       1.0  0.14174  0.89889  0.84365  1.0000
  C   C704      1.0  0.39949  0.70970  0.97392  1.0000
  H   H1109     1.0  0.16607  0.71077  0.96902  1.0000
  S   S283      1.0  0.36466  0.96946  0.89047  1.0000
  C   C705      1.0  0.47138  0.86894  0.85311  1.0000
  H   H1110     1.0  0.15563  0.69245  0.95773  1.0000
  H   H1111     1.0  0.32912  0.94516  0.84464  1.0000
  S   S284      1.0  0.10695  0.91888  0.75545  1.0000
  H   H1112     1.0  0.16927  0.92978  0.94077  1.0000
  C   C706      1.0  0.14644  0.92348  0.76055  1.0000
  H   H1113     1.0  0.16434  0.95127  0.92215  1.0000
  C   C707      1.0  0.15687  0.89284  0.85813  1.0000
  H   H1114     1.0  0.12172  0.92550  0.83431  1.0000
  H   H1115     1.0  0.11697  0.88876  0.86488  1.0000
  H   H1116     1.0  0.16967  0.90230  0.85456  1.0000
  H   H1117     1.0  0.16343  0.87665  0.85794  1.0000
  H   H1118     1.0  0.14989  0.89474  0.87397  1.0000
  N   N69       1.0  0.41340  0.88022  0.90835  1.0000
  C   C708      1.0  0.32858  0.97927  0.98511  1.0000
  S   S285      1.0  0.03768  0.67783  0.96497  1.0000
  C   C709      1.0  0.23644  0.99013  0.87913  1.0000
  H   H1119     1.0  0.20099  0.92468  0.95668  1.0000
  H   H1120     1.0  0.47873  0.88173  0.84525  1.0000
  H   H1121     1.0  0.43162  0.85073  0.74688  1.0000
  H   H1122     1.0  0.44317  0.86297  0.90724  1.0000
  H   H1123     1.0  0.33508  0.96917  0.83106  1.0000
  H   H1124     1.0  0.39042  0.94228  0.86580  1.0000
  N   N70       1.0  0.19359  0.94846  0.93287  1.0000
  H   H1125     1.0  0.45257  0.87038  0.78785  1.0000
  H   H1126     1.0  0.37435  0.85877  0.96997  1.0000
  N   N71       1.0  0.31470  0.97137  0.85873  1.0000
  H   H1127     1.0  0.22020  0.93878  0.91291  1.0000
  C   C710      1.0  0.41061  0.98082  0.83434  1.0000
  H   H1128     1.0  0.21924  0.94257  0.94979  1.0000
  C   C711      1.0  0.25155  0.98468  0.89218  1.0000
  H   H1129     1.0  0.21246  0.97256  0.92408  1.0000
  H   H1130     1.0  0.40509  0.84729  0.78853  1.0000
  C   C712      1.0  0.20270  0.94104  0.95179  1.0000
  H   H1131     1.0  0.28287  0.98132  0.85747  1.0000
  H   H1132     1.0  0.35587  0.98089  0.96403  1.0000
  H   H1133     1.0  0.05173  0.65972  0.92977  1.0000
  H   H1134     1.0  0.41773  0.88753  0.79546  1.0000
  C   C713      1.0  0.35841  0.95413  0.98594  1.0000
  H   H1135     1.0  0.29184  0.95767  0.84757  1.0000
  H   H1136     1.0  0.40624  0.86329  0.75241  1.0000
  C   C714      1.0  0.13187  0.74261  0.98922  1.0000
  H   H1137     1.0  0.02251  0.96879  0.74599  1.0000
  H   H1138     1.0  0.28503  0.82109  0.98032  1.0000
  H   H1139     1.0  0.27989  0.85787  0.98690  1.0000
  C   C715      1.0  0.31927  0.99197  0.86053  1.0000
  H   H1140     1.0  0.33359  0.99128  0.86737  1.0000
  N   N72       1.0  0.16837  0.68067  0.98542  1.0000
  C   C716      1.0  0.14208  0.75982  0.98274  1.0000
  H   H1141     1.0  0.11789  0.71849  0.98028  1.0000
  S   S286      1.0  0.14220  0.83212  0.98482  1.0000
  H   H1142     1.0  0.47159  0.98674  0.82559  1.0000
  S   S287      1.0  0.42795  0.98520  0.81250  1.0000
  C   C717      1.0  0.45728  0.66533  0.98708  1.0000
  S   S288      1.0  0.12991  0.66343  0.94470  1.0000
  C   C718      1.0  0.48053  0.99160  0.81084  1.0000
  H   H1143     1.0  0.99769  0.67727  0.98728  1.0000
  H   H1144     1.0  0.29800  0.98126  0.83321  1.0000
  H   H1145     1.0  0.19985  0.68232  0.98749  1.0000
  C   C719      1.0  0.17206  0.65933  0.98097  1.0000
  Fe  Fe146     1.0  0.85498  0.10032  0.02073  1.0000
  S   S289      1.0  0.83608  0.13038  0.01392  1.0000
  S   S290      1.0  0.84549  0.08090  0.05016  1.0000
  C   C720      1.0  0.93873  0.19520  0.00505  1.0000
  H   H1146     1.0  0.92515  0.02953  0.00592  1.0000
  H   H1147     1.0  0.51544  0.99276  0.16502  1.0000
  H   H1148     1.0  0.89494  0.00822  0.19059  1.0000
  Fe  Fe147     1.0  0.57486  0.00368  0.20238  1.0000
  S   S291      1.0  0.89487  0.00868  0.10197  1.0000
  H   H1149     1.0  0.94461  0.18089  0.01405  1.0000
  S   S292      1.0  0.66504  0.04102  0.99655  1.0000
  S   S293      1.0  0.64133  0.29222  0.03404  1.0000
  Fe  Fe148     1.0  0.90428  0.25685  0.05556  1.0000
  S   S294      1.0  0.91553  0.27296  0.02524  1.0000
  S   S295      1.0  0.88922  0.22763  0.06089  1.0000
  Fe  Fe149     1.0  0.92185  0.28593  0.07944  1.0000
  H   H1150     1.0  0.50445  0.00625  0.14341  1.0000
  S   S296      1.0  0.92121  0.29460  0.11138  1.0000
  C   C721      1.0  0.50974  0.04388  0.15133  1.0000
  H   H1151     1.0  0.85187  0.01903  0.09821  1.0000
  Fe  Fe150     1.0  0.94423  0.27307  0.03902  1.0000
  S   S297      1.0  0.88444  0.11234  0.00719  1.0000
  S   S298      1.0  0.89140  0.28575  0.06895  1.0000
  S   S299      1.0  0.93363  0.25545  0.06877  1.0000
  Fe  Fe151     1.0  0.57512  0.04753  0.18158  1.0000
  S   S300      1.0  0.58712  0.01706  0.17122  1.0000
  S   S301      1.0  0.55749  0.06882  0.15880  1.0000
  Fe  Fe152     1.0  0.59073  0.03475  0.22341  1.0000
  H   H1152     1.0  0.55284  0.18695  0.12908  1.0000
  Fe  Fe153     1.0  0.61471  0.02043  0.18554  1.0000
  H   H1153     1.0  0.82748  0.17600  0.01444  1.0000
  H   H1154     1.0  0.72372  0.00800  0.01927  1.0000
  C   C722      1.0  0.97042  0.20904  0.00394  1.0000
  S   S302      1.0  0.60352  0.05167  0.19398  1.0000
  S   S303      1.0  0.56084  0.03386  0.21202  1.0000
  Fe  Fe154     1.0  0.58064  0.19984  0.04584  1.0000
  S   S304      1.0  0.59081  0.18315  0.01874  1.0000
  S   S305      1.0  0.57261  0.23404  0.04005  1.0000
  Fe  Fe155     1.0  0.58494  0.16098  0.07588  1.0000
  S   S306      1.0  0.59579  0.14128  0.05114  1.0000
  S   S307      1.0  0.58603  0.15064  0.10956  1.0000
  Fe  Fe156     1.0  0.61447  0.16592  0.03701  1.0000
  S   S308      1.0  0.64712  0.15900  0.02416  1.0000
  Fe  Fe157     1.0  0.57108  0.15983  0.03463  1.0000
  H   H1155     1.0  0.87682  0.30128  0.00769  1.0000
  S   S309      1.0  0.60602  0.18439  0.06298  1.0000
  S   S310      1.0  0.55848  0.17795  0.06056  1.0000
  C   C723      1.0  0.94321  0.21553  0.03082  1.0000
  C   C724      1.0  0.72542  0.04143  0.99225  1.0000
  H   H1156     1.0  0.63226  0.06115  0.02488  1.0000
  H   H1157     1.0  0.60681  0.07057  0.03478  1.0000
  H   H1158     1.0  0.67341  0.00421  0.13488  1.0000
  H   H1159     1.0  0.64218  0.10868  0.99156  1.0000
  H   H1160     1.0  0.57971  0.23654  0.09285  1.0000
  C   C725      1.0  0.66397  0.23138  0.99229  1.0000
  H   H1161     1.0  0.53810  0.20431  0.11206  1.0000
  C   C726      1.0  0.73842  0.00907  0.00929  1.0000
  C   C727      1.0  0.97425  0.29440  0.99297  1.0000
  C   C728      1.0  0.57944  0.12681  0.12194  1.0000
  C   C729      1.0  0.56577  0.11636  0.11467  1.0000
  C   C730      1.0  0.55943  0.09845  0.12596  1.0000
  C   C731      1.0  0.56709  0.09050  0.14432  1.0000
  C   C732      1.0  0.58123  0.10062  0.15126  1.0000
  C   C733      1.0  0.58714  0.11882  0.14026  1.0000
  H   H1162     1.0  0.55958  0.12241  0.10069  1.0000
  H   H1163     1.0  0.54840  0.09081  0.12052  1.0000
  H   H1164     1.0  0.58710  0.09478  0.16544  1.0000
  H   H1165     1.0  0.59763  0.12684  0.14606  1.0000
  C   C734      1.0  0.64822  0.99497  0.15624  1.0000
  H   H1166     1.0  0.83311  0.04731  0.07783  1.0000
  C   C735      1.0  0.61840  0.07153  0.02116  1.0000
  H   H1167     1.0  0.55890  0.21673  0.14533  1.0000
  H   H1168     1.0  0.89833  0.06913  0.99979  1.0000
  H   H1169     1.0  0.53492  0.03718  0.17959  1.0000
  H   H1170     1.0  0.59771  0.10096  0.99758  1.0000
  H   H1171     1.0  0.62868  0.05312  0.22614  1.0000
  C   C736      1.0  0.62149  0.27684  0.03630  1.0000
  C   C737      1.0  0.62372  0.25747  0.04747  1.0000
  C   C738      1.0  0.60887  0.24422  0.04871  1.0000
  C   C739      1.0  0.59144  0.25040  0.03904  1.0000
  C   C740      1.0  0.58893  0.26997  0.02828  1.0000
  C   C741      1.0  0.60398  0.28310  0.02675  1.0000
  H   H1172     1.0  0.63713  0.25265  0.05507  1.0000
  H   H1173     1.0  0.61087  0.22932  0.05725  1.0000
  H   H1174     1.0  0.57539  0.27495  0.02095  1.0000
  H   H1175     1.0  0.60205  0.29806  0.01823  1.0000
  H   H1176     1.0  0.55404  0.23293  0.09055  1.0000
  H   H1177     1.0  0.68083  0.06755  0.22373  1.0000
  S   S311      1.0  0.64688  0.01523  0.17052  1.0000
  H   H1178     1.0  0.55893  0.18707  0.10231  1.0000
  C   C742      1.0  0.90504  0.01562  0.21776  1.0000
  C   C743      1.0  0.89136  0.00868  0.20679  1.0000
  H   H1179     1.0  0.59913  0.21310  0.11769  1.0000
  H   H1180     1.0  0.67290  0.01847  0.20692  1.0000
  H   H1181     1.0  0.91912  0.02046  0.20986  1.0000
  C   C744      1.0  0.53231  0.15118  0.00798  1.0000
  C   C745      1.0  0.87637  0.18893  0.01333  1.0000
  C   C746      1.0  0.50786  0.00775  0.15888  1.0000
  C   C747      1.0  0.88422  0.22125  0.02183  1.0000
  C   C748      1.0  0.88431  0.21314  0.04221  1.0000
  C   C749      1.0  0.88028  0.19293  0.04806  1.0000
  C   C750      1.0  0.87641  0.18084  0.03370  1.0000
  H   H1182     1.0  0.88704  0.00862  0.02358  1.0000
  H   H1183     1.0  0.88693  0.23688  0.01720  1.0000
  C   C751      1.0  0.51966  0.16673  0.01712  1.0000
  H   H1184     1.0  0.94859  0.20172  0.04081  1.0000
  C   C752      1.0  0.85983  0.06114  0.06435  1.0000
  C   C753      1.0  0.88096  0.05994  0.06365  1.0000
  C   C754      1.0  0.89165  0.04375  0.07515  1.0000
  C   C755      1.0  0.88122  0.02893  0.08772  1.0000
  C   C756      1.0  0.86010  0.03031  0.08859  1.0000
  C   C757      1.0  0.84948  0.04635  0.07697  1.0000
  H   H1185     1.0  0.88896  0.07177  0.05472  1.0000
  H   H1186     1.0  0.90795  0.04297  0.07468  1.0000
  H   H1187     1.0  0.54985  0.03214  0.14417  1.0000
  H   H1188     1.0  0.53662  0.01960  0.12893  1.0000
  N   N73       1.0  0.64593  0.22075  0.99976  1.0000
  C   C758      1.0  0.94011  0.23131  0.99658  1.0000
  C   C759      1.0  0.67301  0.00814  0.02494  1.0000
  C   C760      1.0  0.52575  0.02462  0.17922  1.0000
  H   H1189     1.0  0.54854  0.00537  0.14969  1.0000
  S   S312      1.0  0.60388  0.00380  0.21561  1.0000
  H   H1190     1.0  0.97791  0.22204  0.00688  1.0000
  H   H1191     1.0  0.68222  0.14020  0.00103  1.0000
  H   H1192     1.0  0.67830  0.22085  0.99342  1.0000
  C   C761      1.0  0.92902  0.31709  0.11755  1.0000
  H   H1193     1.0  0.53473  0.01020  0.18490  1.0000
  S   S313      1.0  0.97418  0.26107  0.02219  1.0000
  H   H1194     1.0  0.64284  0.07274  0.23016  1.0000
  C   C762      1.0  0.87001  0.31614  0.00179  1.0000
  C   C763      1.0  0.67997  0.05100  0.22406  1.0000
  H   H1195     1.0  0.94694  0.24484  0.99926  1.0000
  S   S314      1.0  0.93519  0.30330  0.05082  1.0000
  C   C764      1.0  0.81982  0.19068  0.00758  1.0000
  H   H1196     1.0  0.75060  0.00028  0.01775  1.0000
  H   H1197     1.0  0.64558  0.09044  0.03533  1.0000
  H   H1198     1.0  0.60722  0.12197  0.00554  1.0000
  H   H1199     1.0  0.69356  0.04460  0.21431  1.0000
  H   H1200     1.0  0.77451  0.02256  0.99723  1.0000
  C   C765      1.0  0.76343  0.32340  0.99563  1.0000
  C   C766      1.0  0.88018  0.20921  0.00750  1.0000
  H   H1201     1.0  0.88022  0.18656  0.06381  1.0000
  H   H1202     1.0  0.64776  0.22424  0.03087  1.0000
  H   H1203     1.0  0.75850  0.32251  0.01227  1.0000
  H   H1204     1.0  0.80915  0.19744  0.01982  1.0000
  C   C767      1.0  0.65044  0.15087  0.99999  1.0000
  H   H1205     1.0  0.72855  0.03995  0.03193  1.0000
  H   H1206     1.0  0.66457  0.24410  0.00128  1.0000
  Fe  Fe158     1.0  0.86493  0.14153  0.99782  1.0000
  H   H1207     1.0  0.63483  0.11590  0.02741  1.0000
  H   H1208     1.0  0.66272  0.01662  0.03558  1.0000
  H   H1209     1.0  0.90609  0.05799  0.02370  1.0000
  H   H1210     1.0  0.63213  0.19584  0.99281  1.0000
  N   N74       1.0  0.56777  0.21244  0.11398  1.0000
  H   H1211     1.0  0.87953  0.06510  0.02122  1.0000
  C   C768      1.0  0.56008  0.22569  0.13000  1.0000
  S   S315      1.0  0.55668  0.14229  0.01517  1.0000
  C   C769      1.0  0.53975  0.02011  0.14470  1.0000
  C   C770      1.0  0.74303  0.04025  0.02150  1.0000
  H   H1212     1.0  0.51921  0.05647  0.15077  1.0000
  H   H1213     1.0  0.65979  0.07402  0.19494  1.0000
  H   H1214     1.0  0.61250  0.06540  0.00879  1.0000
  S   S316      1.0  0.87147  0.17455  0.99457  1.0000
  C   C771      1.0  0.55373  0.19710  0.11442  1.0000
  H   H1215     1.0  0.57032  0.23746  0.13008  1.0000
  N   N75       1.0  0.80924  0.18777  0.99041  1.0000
  C   C772      1.0  0.64682  0.21223  0.02122  1.0000
  N   N76       1.0  0.62306  0.09262  0.01491  1.0000
  Fe  Fe159     1.0  0.90535  0.30164  0.03977  1.0000
  H   H1216     1.0  0.92655  0.21890  0.03513  1.0000
  N   N77       1.0  0.52076  0.02407  0.15852  1.0000
  H   H1217     1.0  0.57475  0.21530  0.08152  1.0000
  N   N78       1.0  0.94812  0.21276  0.00909  1.0000
  C   C773      1.0  0.56912  0.22487  0.09392  1.0000
  H   H1218     1.0  0.75554  0.03242  0.03012  1.0000
  H   H1219     1.0  0.87343  0.16529  0.03842  1.0000
  H   H1220     1.0  0.54471  0.23376  0.12774  1.0000
  Fe  Fe160     1.0  0.64032  0.32365  0.01590  1.0000
  C   C774      1.0  0.87632  0.03934  0.99531  1.0000
  H   H1221     1.0  0.97702  0.19521  0.01314  1.0000
  H   H1222     1.0  0.52488  0.17375  0.02873  1.0000
  C   C775      1.0  0.50000  0.17286  0.01153  1.0000
  H   H1223     1.0  0.58764  0.19198  0.13230  1.0000
  S   S317      1.0  0.84619  0.00027  0.14392  1.0000
  H   H1224     1.0  0.78185  0.18056  0.00947  1.0000
  H   H1225     1.0  0.92333  0.23467  0.00015  1.0000
  H   H1226     1.0  0.83193  0.20081  0.00257  1.0000
  H   H1227     1.0  0.74573  0.05646  0.01739  1.0000
  H   H1228     1.0  0.61935  0.15981  0.99438  1.0000
  H   H1229     1.0  0.90041  0.02294  0.03708  1.0000
  C   C776      1.0  0.65996  0.05726  0.19601  1.0000
  C   C777      1.0  0.89425  0.05843  0.01348  1.0000
  H   H1230     1.0  0.63315  0.20460  0.02754  1.0000
  C   C778      1.0  0.58816  0.20205  0.11759  1.0000
  C   C779      1.0  0.98181  0.27410  0.99829  1.0000
  H   H1231     1.0  0.59454  0.19215  0.10561  1.0000
  H   H1232     1.0  0.91662  0.06615  0.23115  1.0000
  H   H1233     1.0  0.71043  0.04131  0.00185  1.0000
  H   H1234     1.0  0.94833  0.32316  0.08952  1.0000
  N   N79       1.0  0.89282  0.03804  0.00814  1.0000
  H   H1235     1.0  0.51183  0.02698  0.19025  1.0000
  H   H1236     1.0  0.91189  0.01503  0.99247  1.0000
  H   H1237     1.0  0.66029  0.20060  0.02295  1.0000
  C   C780      1.0  0.92170  0.32381  0.13652  1.0000
  C   C781      1.0  0.63128  0.09995  0.03156  1.0000
  H   H1238     1.0  0.67309  0.05123  0.18547  1.0000
  S   S318      1.0  0.84939  0.08865  0.99239  1.0000
  N   N80       1.0  0.66092  0.04741  0.21707  1.0000
  H   H1239     1.0  0.96289  0.30215  0.00334  1.0000
  C   C782      1.0  0.60430  0.10590  0.01019  1.0000
  H   H1240     1.0  0.59234  0.10593  0.02355  1.0000
  H   H1241     1.0  0.61338  0.22805  0.00461  1.0000
  H   H1242     1.0  0.62025  0.09961  0.04564  1.0000
  H   H1243     1.0  0.87377  0.02975  0.03584  1.0000
  H   H1244     1.0  0.95032  0.22842  0.03452  1.0000
  H   H1245     1.0  0.64606  0.05435  0.19006  1.0000
  C   C783      1.0  0.90062  0.01637  0.23883  1.0000
  C   C784      1.0  0.62730  0.23527  0.99809  1.0000
  H   H1246     1.0  0.62751  0.24855  0.00636  1.0000
  C   C785      1.0  0.64335  0.05601  0.23055  1.0000
  C   C786      1.0  0.88835  0.02417  0.02694  1.0000
  H   H1247     1.0  0.92195  0.19735  0.00918  1.0000
  C   C787      1.0  0.79343  0.17415  0.99770  1.0000
  H   H1248     1.0  0.77331  0.30905  0.99262  1.0000
  N   N81       1.0  0.74212  0.03047  0.00322  1.0000
  H   H1249     1.0  0.50565  0.04400  0.13578  1.0000
  C   C788      1.0  0.87302  0.00253  0.21679  1.0000
  H   H1250     1.0  0.80013  0.15900  0.00449  1.0000
  H   H1251     1.0  0.90164  0.08807  0.22004  1.0000
  H   H1252     1.0  0.86132  0.04470  0.00356  1.0000
  H   H1253     1.0  0.88005  0.21566  0.99179  1.0000
  C   C789      1.0  0.67663  0.01645  0.00455  1.0000
  C   C790      1.0  0.86856  0.00342  0.23783  1.0000
  C   C791      1.0  0.91232  0.03042  0.99679  1.0000
  C   C792      1.0  0.52534  0.14210  0.99302  1.0000
  H   H1254     1.0  0.73772  0.00123  0.99583  1.0000
  H   H1255     1.0  0.92634  0.09026  0.22669  1.0000
  H   H1256     1.0  0.91150  0.31512  0.14716  1.0000
  C   C793      1.0  0.91229  0.08280  0.23157  1.0000
  C   C794      1.0  0.66045  0.02531  0.21766  1.0000
  H   H1257     1.0  0.64592  0.02207  0.21318  1.0000
  C   C795      1.0  0.66963  0.14211  0.99212  1.0000
  C   C796      1.0  0.68985  0.00532  0.99091  1.0000
  H   H1258     1.0  0.49550  0.04756  0.16156  1.0000
  C   C797      1.0  0.76157  0.03120  0.98977  1.0000
  C   C798      1.0  0.63835  0.09306  0.99672  1.0000
  H   H1259     1.0  0.65277  0.08341  0.99982  1.0000
  H   H1260     1.0  0.78847  0.21507  0.99294  1.0000
  H   H1261     1.0  0.87511  0.02432  0.99053  1.0000
  H   H1262     1.0  0.66196  0.01722  0.23313  1.0000
  C   C799      1.0  0.66302  0.99291  0.13940  1.0000
  S   S319      1.0  0.85546  0.99307  0.20396  1.0000
  H   H1263     1.0  0.64125  0.32222  0.45888  1.0000
  S   S320      1.0  0.63417  0.25893  0.46326  1.0000
  C   C800      1.0  0.65168  0.32191  0.47043  1.0000
  Fe  Fe161     1.0  0.57668  0.27713  0.47338  1.0000
  S   S321      1.0  0.59107  0.26737  0.44332  1.0000
  H   H1264     1.0  0.87698  0.07987  0.27329  1.0000
  Fe  Fe162     1.0  0.60777  0.24178  0.46243  1.0000
  S   S322      1.0  0.60997  0.20933  0.45564  1.0000
  Fe  Fe163     1.0  0.61611  0.28540  0.44669  1.0000
  C   C801      1.0  0.89521  0.23227  0.48238  1.0000
  H   H1265     1.0  0.87863  0.01074  0.26501  1.0000
  S   S323      1.0  0.60029  0.29720  0.47525  1.0000
  H   H1266     1.0  0.97599  0.05443  0.38802  1.0000
  H   H1267     1.0  0.91106  0.08291  0.28252  1.0000
  C   C802      1.0  0.87770  0.99820  0.43059  1.0000
  S   S324      1.0  0.65467  0.07255  0.45042  1.0000
  C   C803      1.0  0.63206  0.15509  0.48418  1.0000
  H   H1268     1.0  0.97349  0.04515  0.32652  1.0000
  N   N82       1.0  0.87239  0.99417  0.41095  1.0000
  C   C804      1.0  0.64223  0.12463  0.44300  1.0000
  H   H1269     1.0  0.61053  0.16610  0.46276  1.0000
  S   S325      1.0  0.59272  0.04307  0.25474  1.0000
  H   H1270     1.0  0.95216  0.05176  0.37995  1.0000
  C   C805      1.0  0.97764  0.19789  0.44004  1.0000
  H   H1271     1.0  0.64536  0.11572  0.45777  1.0000
  Fe  Fe164     1.0  0.95944  0.14545  0.45672  1.0000
  S   S326      1.0  0.95198  0.15545  0.42489  1.0000
  H   H1272     1.0  0.84637  0.99760  0.47723  1.0000
  Fe  Fe165     1.0  0.91512  0.14456  0.47354  1.0000
  S   S327      1.0  0.90384  0.15492  0.44343  1.0000
  C   C806      1.0  0.89733  0.10944  0.25200  1.0000
  Fe  Fe166     1.0  0.92954  0.13231  0.43130  1.0000
  S   S328      1.0  0.92485  0.10539  0.41525  1.0000
  Fe  Fe167     1.0  0.92709  0.17695  0.43992  1.0000
  S   S329      1.0  0.92355  0.21100  0.43016  1.0000
  S   S330      1.0  0.93924  0.12074  0.46226  1.0000
  S   S331      1.0  0.93612  0.16807  0.47107  1.0000
  Fe  Fe168     1.0  0.91550  0.02503  0.28633  1.0000
  C   C807      1.0  0.62478  0.01365  0.26241  1.0000
  Fe  Fe169     1.0  0.91718  0.05174  0.32022  1.0000
  S   S332      1.0  0.91410  0.02563  0.34466  1.0000
  S   S333      1.0  0.92217  0.08341  0.32574  1.0000
  H   H1273     1.0  0.96548  0.01925  0.36679  1.0000
  H   H1274     1.0  0.68309  0.15097  0.43695  1.0000
  Fe  Fe170     1.0  0.89089  0.01721  0.32734  1.0000
  S   S334      1.0  0.86108  0.00922  0.34412  1.0000
  S   S335      1.0  0.94126  0.03429  0.30019  1.0000
  S   S336      1.0  0.89181  0.04493  0.30432  1.0000
  H   H1275     1.0  0.62638  0.01202  0.24648  1.0000
  H   H1276     1.0  0.87204  0.08798  0.46900  1.0000
  H   H1277     1.0  0.98857  0.01719  0.34979  1.0000
  C   C808      1.0  0.66859  0.14554  0.44444  1.0000
  H   H1278     1.0  0.92228  0.06330  0.26712  1.0000
  H   H1279     1.0  0.66994  0.01166  0.44747  1.0000
  H   H1280     1.0  0.87516  0.01473  0.43219  1.0000
  H   H1281     1.0  0.95986  0.22954  0.47590  1.0000
  C   C809      1.0  0.90325  0.21925  0.46764  1.0000
  C   C810      1.0  0.91207  0.22717  0.44853  1.0000
  C   C811      1.0  0.91270  0.24827  0.44431  1.0000
  C   C812      1.0  0.90476  0.26131  0.45912  1.0000
  S   S337      1.0  0.91428  0.31874  0.47746  1.0000
  S   S338      1.0  0.62378  0.99972  0.41649  1.0000
  H   H1282     1.0  0.91944  0.25455  0.42955  1.0000
  H   H1283     1.0  0.90532  0.27752  0.45569  1.0000
  C   C813      1.0  0.65566  0.14474  0.41270  1.0000
  C   C814      1.0  0.87061  0.09515  0.48275  1.0000
  H   H1284     1.0  0.66924  0.15103  0.40388  1.0000
  C   C815      1.0  0.92351  0.10041  0.39009  1.0000
  C   C816      1.0  0.92900  0.11382  0.37286  1.0000
  C   C817      1.0  0.92835  0.10855  0.35325  1.0000
  C   C818      1.0  0.92219  0.08988  0.35066  1.0000
  C   C819      1.0  0.91659  0.07658  0.36789  1.0000
  C   C820      1.0  0.91730  0.08180  0.38743  1.0000
  H   H1285     1.0  0.93381  0.12819  0.37465  1.0000
  H   H1286     1.0  0.93266  0.11902  0.34005  1.0000
  H   H1287     1.0  0.91157  0.06230  0.36623  1.0000
  H   H1288     1.0  0.91291  0.07138  0.40065  1.0000
  S   S339      1.0  0.91292  0.99676  0.30841  1.0000
  C   C821      1.0  0.64667  0.05162  0.44164  1.0000
  C   C822      1.0  0.63374  0.03907  0.45405  1.0000
  C   C823      1.0  0.62681  0.02322  0.44612  1.0000
  C   C824      1.0  0.63315  0.01950  0.42593  1.0000
  C   C825      1.0  0.64647  0.03176  0.41367  1.0000
  C   C826      1.0  0.65301  0.04792  0.42144  1.0000
  H   H1289     1.0  0.62864  0.04189  0.46958  1.0000
  H   H1290     1.0  0.55819  0.30399  0.44010  1.0000
  H   H1291     1.0  0.65123  0.02916  0.39803  1.0000
  H   H1292     1.0  0.66290  0.05766  0.41171  1.0000
  C   C827      1.0  0.60906  0.02728  0.27059  1.0000
  C   C828      1.0  0.60703  0.02907  0.29146  1.0000
  H   H1293     1.0  0.68802  0.01358  0.41229  1.0000
  C   C829      1.0  0.62063  0.01729  0.30403  1.0000
  Fe  Fe171     1.0  0.93646  0.00767  0.32376  1.0000
  N   N83       1.0  0.97921  0.20903  0.45724  1.0000
  H   H1294     1.0  0.59491  0.03962  0.29793  1.0000
  H   H1295     1.0  0.78586  0.10758  0.48154  1.0000
  S   S340      1.0  0.99168  0.14328  0.46399  1.0000
  H   H1296     1.0  0.69158  0.28962  0.45192  1.0000
  C   C830      1.0  0.62297  0.19083  0.47207  1.0000
  C   C831      1.0  0.88524  0.00477  0.39417  1.0000
  H   H1297     1.0  0.89060  0.11741  0.46967  1.0000
  H   H1298     1.0  0.99219  0.18847  0.43543  1.0000
  C   C832      1.0  0.70123  0.00409  0.41862  1.0000
  H   H1299     1.0  0.88187  0.00175  0.37915  1.0000
  C   C833      1.0  0.63677  0.00418  0.29559  1.0000
  C   C834      1.0  0.56556  0.31583  0.42941  1.0000
  C   C835      1.0  0.89597  0.25333  0.47824  1.0000
  H   H1300     1.0  0.97353  0.18364  0.47974  1.0000
  H   H1301     1.0  0.67074  0.10498  0.41832  1.0000
  C   C836      1.0  0.68359  0.00210  0.45271  1.0000
  H   H1302     1.0  0.95056  0.04805  0.34383  1.0000
  C   C837      1.0  0.67637  0.11539  0.42733  1.0000
  N   N84       1.0  0.66072  0.13258  0.43187  1.0000
  C   C838      1.0  0.85075  0.00166  0.40941  1.0000
  N   N85       1.0  0.90293  0.08726  0.25207  1.0000
  H   H1303     1.0  0.60277  0.30032  0.39979  1.0000
  H   H1304     1.0  0.68111  0.04381  0.23995  1.0000
  C   C839      1.0  0.67560  0.29469  0.45789  1.0000
  H   H1305     1.0  0.67150  0.13718  0.45954  1.0000
  H   H1306     1.0  0.96415  0.06945  0.33510  1.0000
  N   N86       1.0  0.97798  0.04748  0.35727  1.0000
  C   C840      1.0  0.91761  0.07994  0.26681  1.0000
  H   H1307     1.0  0.61891  0.01872  0.32009  1.0000
  H   H1308     1.0  0.90249  0.20308  0.47106  1.0000
  C   C841      1.0  0.96715  0.05738  0.37482  1.0000
  H   H1309     1.0  0.64966  0.13539  0.40289  1.0000
  C   C842      1.0  0.62085  0.17024  0.47213  1.0000
  S   S341      1.0  0.54342  0.28853  0.47947  1.0000
  H   H1310     1.0  0.84744  0.01820  0.41079  1.0000
  H   H1311     1.0  0.94729  0.21059  0.46791  1.0000
  C   C843      1.0  0.63591  0.19624  0.48455  1.0000
  H   H1312     1.0  0.63629  0.11422  0.43424  1.0000
  H   H1313     1.0  0.90169  0.99972  0.39497  1.0000
  C   C844      1.0  0.96608  0.05275  0.33990  1.0000
  C   C845      1.0  0.88102  0.11188  0.48309  1.0000
  H   H1314     1.0  0.96590  0.18735  0.44410  1.0000
  S   S342      1.0  0.66621  0.99479  0.36756  1.0000
  S   S343      1.0  0.63229  0.30864  0.42468  1.0000
  H   H1315     1.0  0.96415  0.07419  0.37097  1.0000
  H   H1316     1.0  0.65762  0.15926  0.44725  1.0000
  S   S344      1.0  0.91821  0.02549  0.25193  1.0000
  C   C846      1.0  0.98047  0.02517  0.36271  1.0000
  H   H1317     1.0  0.70273  0.31419  0.47198  1.0000
  Fe  Fe172     1.0  0.65556  0.07503  0.48371  1.0000
  H   H1318     1.0  0.91088  0.11777  0.24760  1.0000
  C   C847      1.0  0.62100  0.32306  0.40419  1.0000
  S   S345      1.0  0.68176  0.09183  0.48610  1.0000
  H   H1319     1.0  0.64383  0.15783  0.41563  1.0000
  H   H1320     1.0  0.58204  0.31333  0.43114  1.0000
  H   H1321     1.0  0.64662  0.31089  0.48343  1.0000
  C   C848      1.0  0.60673  0.31551  0.39482  1.0000
  H   H1322     1.0  0.68062  0.10602  0.44152  1.0000
  H   H1323     1.0  0.61641  0.01384  0.45564  1.0000
  H   H1324     1.0  0.69046  0.12069  0.41864  1.0000
  C   C849      1.0  0.88231  0.01018  0.24883  1.0000
  H   H1325     1.0  0.62985  0.13710  0.44617  1.0000
  H   H1326     1.0  0.95431  0.23168  0.45013  1.0000
  H   H1327     1.0  0.88817  0.06008  0.25817  1.0000
  C   C850      1.0  0.88449  0.07687  0.25790  1.0000
  H   H1328     1.0  0.93168  0.08752  0.26296  1.0000
  H   H1329     1.0  0.71136  0.01455  0.42231  1.0000
  N   N87       1.0  0.67307  0.31600  0.46239  1.0000
  H   H1330     1.0  0.88617  0.11551  0.24114  1.0000
  H   H1331     1.0  0.64376  0.04918  0.24664  1.0000
  H   H1332     1.0  0.56389  0.31301  0.41377  1.0000
  H   H1333     1.0  0.58678  0.32157  0.37146  1.0000
  H   H1334     1.0  0.97311  0.20838  0.42659  1.0000
  C   C851      1.0  0.63885  0.00258  0.27471  1.0000
  H   H1335     1.0  0.63040  0.13927  0.48413  1.0000
  H   H1336     1.0  0.63754  0.21209  0.48468  1.0000
  H   H1337     1.0  0.67129  0.28412  0.47173  1.0000
  C   C852      1.0  0.95936  0.22077  0.46308  1.0000
  H   H1338     1.0  0.84638  0.99931  0.39455  1.0000
  H   H1339     1.0  0.84059  0.99359  0.42158  1.0000
  H   H1340     1.0  0.89036  0.11326  0.26733  1.0000
  H   H1341     1.0  0.88263  0.02155  0.39438  1.0000
  H   H1342     1.0  0.66579  0.29275  0.44635  1.0000
  C   C853      1.0  0.98502  0.19442  0.47471  1.0000
  H   H1343     1.0  0.69333  0.01250  0.45724  1.0000
  H   H1344     1.0  0.98927  0.02054  0.37585  1.0000
  C   C854      1.0  0.68639  0.31786  0.47772  1.0000
  H   H1345     1.0  0.87314  0.08189  0.24702  1.0000
  H   H1346     1.0  0.98641  0.20220  0.48800  1.0000
  H   H1347     1.0  0.85438  0.99877  0.24571  1.0000
  H   H1348     1.0  0.70968  0.99554  0.40627  1.0000
  H   H1349     1.0  0.99078  0.23427  0.43790  1.0000
  H   H1350     1.0  0.69454  0.32556  0.43708  1.0000
  H   H1351     1.0  0.65133  0.99255  0.26805  1.0000
  H   H1352     1.0  0.89388  0.99265  0.43235  1.0000
  C   C855      1.0  0.77401  0.08996  0.53125  1.0000
  H   H1353     1.0  0.53677  0.25486  0.55609  1.0000
  S   S346      1.0  0.52312  0.06231  0.68211  1.0000
  Fe  Fe173     1.0  0.51739  0.09903  0.61062  1.0000
  S   S347      1.0  0.53446  0.10038  0.57894  1.0000
  S   S348      1.0  0.52815  0.11035  0.63687  1.0000
  Fe  Fe174     1.0  0.64392  0.07039  0.52959  1.0000
  S   S349      1.0  0.66981  0.08629  0.53499  1.0000
  S   S350      1.0  0.62503  0.05958  0.55888  1.0000
  Fe  Fe175     1.0  0.68863  0.06802  0.51197  1.0000
  S   S351      1.0  0.72115  0.05293  0.51009  1.0000
  S   S352      1.0  0.66361  0.05009  0.50838  1.0000
  Fe  Fe176     1.0  0.81469  0.03595  0.56766  1.0000
  S   S353      1.0  0.82469  0.02375  0.53805  1.0000
  S   S354      1.0  0.78074  0.04213  0.57775  1.0000
  Fe  Fe177     1.0  0.85886  0.04014  0.57396  1.0000
  S   S355      1.0  0.87141  0.02786  0.54440  1.0000
  S   S356      1.0  0.88254  0.05446  0.58705  1.0000
  Fe  Fe178     1.0  0.84536  0.04777  0.53178  1.0000
  H   H1354     1.0  0.76861  0.10478  0.53712  1.0000
  C   C856      1.0  0.80522  0.10210  0.51479  1.0000
  S   S357      1.0  0.83383  0.06159  0.56037  1.0000
  S   S358      1.0  0.83842  0.01539  0.58427  1.0000
  Fe  Fe179     1.0  0.96009  0.05348  0.72194  1.0000
  Fe  Fe180     1.0  0.98542  0.04424  0.68185  1.0000
  Fe  Fe181     1.0  0.93937  0.04963  0.68447  1.0000
  S   S359      1.0  0.96362  0.06366  0.66258  1.0000
  S   S360      1.0  0.91299  0.03671  0.67474  1.0000
  H   H1355     1.0  0.60649  0.05538  0.63167  1.0000
  S   S361      1.0  0.96398  0.11882  0.67569  1.0000
  Fe  Fe182     1.0  0.96175  0.08564  0.68538  1.0000
  H   H1356     1.0  0.96935  0.11702  0.57893  1.0000
  S   S362      1.0  0.96158  0.02839  0.70233  1.0000
  S   S363      1.0  0.93567  0.07342  0.70609  1.0000
  H   H1357     1.0  0.80267  0.06206  0.51633  1.0000
  C   C857      1.0  0.96079  0.29520  0.57542  1.0000
  N   N88       1.0  0.78744  0.09249  0.51182  1.0000
  C   C858      1.0  0.89091  0.04895  0.61146  1.0000
  C   C859      1.0  0.90659  0.05914  0.61572  1.0000
  C   C860      1.0  0.91363  0.05545  0.63493  1.0000
  C   C861      1.0  0.90498  0.04158  0.65014  1.0000
  C   C862      1.0  0.88935  0.03136  0.64584  1.0000
  C   C863      1.0  0.88237  0.03497  0.62660  1.0000
  H   H1358     1.0  0.91321  0.07005  0.60416  1.0000
  H   H1359     1.0  0.92557  0.06348  0.63807  1.0000
  H   H1360     1.0  0.88254  0.02064  0.65752  1.0000
  H   H1361     1.0  0.87029  0.02704  0.62356  1.0000
  H   H1362     1.0  0.85544  0.25551  0.53293  1.0000
  C   C864      1.0  0.82577  0.29864  0.54535  1.0000
  H   H1363     1.0  0.62285  0.32011  0.56196  1.0000
  C   C865      1.0  0.85750  0.09647  0.51812  1.0000
  H   H1364     1.0  0.61610  0.13519  0.52112  1.0000
  C   C866      1.0  0.99404  0.12098  0.60587  1.0000
  H   H1365     1.0  0.84877  0.09054  0.53178  1.0000
  H   H1366     1.0  0.66476  0.28697  0.53115  1.0000
  C   C867      1.0  0.73638  0.04900  0.53003  1.0000
  C   C868      1.0  0.75611  0.03907  0.52630  1.0000
  C   C869      1.0  0.76955  0.03682  0.54092  1.0000
  C   C870      1.0  0.76343  0.04410  0.55964  1.0000
  C   C871      1.0  0.74340  0.05349  0.56372  1.0000
  C   C872      1.0  0.72991  0.05608  0.54888  1.0000
  H   H1367     1.0  0.76116  0.03343  0.51182  1.0000
  H   H1368     1.0  0.78467  0.02953  0.53753  1.0000
  H   H1369     1.0  0.73844  0.05913  0.57821  1.0000
  H   H1370     1.0  0.71464  0.06370  0.55193  1.0000
  C   C873      1.0  0.55929  0.08815  0.57367  1.0000
  C   C874      1.0  0.57021  0.07801  0.58917  1.0000
  C   C875      1.0  0.59030  0.06901  0.58441  1.0000
  C   C876      1.0  0.59960  0.07033  0.56421  1.0000
  C   C877      1.0  0.58865  0.08044  0.54875  1.0000
  C   C878      1.0  0.56853  0.08929  0.55348  1.0000
  H   H1371     1.0  0.56311  0.07718  0.60472  1.0000
  H   H1372     1.0  0.59874  0.06109  0.59633  1.0000
  H   H1373     1.0  0.59555  0.08115  0.53312  1.0000
  H   H1374     1.0  0.56006  0.09700  0.54143  1.0000
  N   N89       1.0  0.91921  0.07770  0.53549  1.0000
  H   H1375     1.0  0.61375  0.05661  0.65626  1.0000
  C   C879      1.0  0.54298  0.08620  0.70176  1.0000
  C   C880      1.0  0.53375  0.06848  0.70295  1.0000
  S   S364      1.0  0.88566  0.26901  0.49738  1.0000
  C   C881      1.0  0.85928  0.08712  0.50044  1.0000
  H   H1376     1.0  0.60509  0.30737  0.51418  1.0000
  H   H1377     1.0  0.54223  0.09741  0.68853  1.0000
  N   N90       1.0  0.56710  0.30327  0.73060  1.0000
  C   C882      1.0  0.55126  0.29116  0.51805  1.0000
  C   C883      1.0  0.54557  0.29394  0.53852  1.0000
  H   H1378     1.0  0.83739  0.30940  0.54083  1.0000
  H   H1379     1.0  0.96287  0.14061  0.50065  1.0000
  H   H1380     1.0  0.55715  0.29297  0.54850  1.0000
  C   C884      1.0  0.65304  0.29924  0.52740  1.0000
  H   H1381     1.0  0.59069  0.14647  0.52855  1.0000
  C   C885      1.0  0.52512  0.30310  0.65186  1.0000
  H   H1382     1.0  0.58585  0.11889  0.56999  1.0000
  H   H1383     1.0  0.49608  0.25604  0.54049  1.0000
  C   C886      1.0  0.86725  0.11359  0.51827  1.0000
  H   H1384     1.0  0.91291  0.09280  0.50621  1.0000
  C   C887      1.0  0.53489  0.05410  0.72027  1.0000
  C   C888      1.0  0.97770  0.14167  0.50483  1.0000
  C   C889      1.0  0.49666  0.25240  0.55713  1.0000
  C   C890      1.0  0.53639  0.29220  0.50509  1.0000
  H   H1385     1.0  0.62588  0.31291  0.58825  1.0000
  H   H1386     1.0  0.52800  0.04024  0.72122  1.0000
  C   C891      1.0  0.81495  0.26680  0.54066  1.0000
  H   H1387     1.0  0.90097  0.10620  0.53995  1.0000
  H   H1388     1.0  0.81919  0.29448  0.50757  1.0000
  C   C892      1.0  0.50573  0.29867  0.64956  1.0000
  C   C893      1.0  0.53254  0.24105  0.55093  1.0000
  H   H1389     1.0  0.57571  0.02434  0.64675  1.0000
  C   C894      1.0  0.57069  0.04098  0.64531  1.0000
  C   C895      1.0  0.85059  0.26925  0.54096  1.0000
  S   S365      1.0  0.50449  0.07211  0.62942  1.0000
  H   H1390     1.0  0.54048  0.29879  0.71783  1.0000
  S   S366      1.0  0.63350  0.09394  0.50452  1.0000
  H   H1391     1.0  0.90585  0.09009  0.56301  1.0000
  H   H1392     1.0  0.86310  0.27902  0.53698  1.0000
  H   H1393     1.0  0.88839  0.22594  0.49707  1.0000
  S   S367      1.0  0.98570  0.06752  0.70277  1.0000
  H   H1394     1.0  0.90735  0.04959  0.54710  1.0000
  H   H1395     1.0  0.85409  0.00079  0.51153  1.0000
  S   S368      1.0  0.88806  0.31662  0.52260  1.0000
  H   H1396     1.0  0.96190  0.29370  0.61576  1.0000
  C   C896      1.0  0.83344  0.28600  0.51274  1.0000
  H   H1397     1.0  0.50373  0.29123  0.63678  1.0000
  C   C897      1.0  0.99328  0.14192  0.65641  1.0000
  H   H1398     1.0  0.82452  0.29493  0.56214  1.0000
  H   H1399     1.0  0.52563  0.21987  0.58822  1.0000
  C   C898      1.0  0.91396  0.07732  0.51485  1.0000
  H   H1400     1.0  0.78201  0.08001  0.54318  1.0000
  C   C899      1.0  0.55499  0.07474  0.73482  1.0000
  H   H1401     1.0  0.80012  0.27461  0.53621  1.0000
  N   N91       1.0  0.98231  0.10379  0.60603  1.0000
  H   H1402     1.0  0.84573  0.29586  0.50798  1.0000
  H   H1403     1.0  0.99048  0.99828  0.68172  1.0000
  S   S369      1.0  0.84798  0.06505  0.50063  1.0000
  H   H1404     1.0  0.81092  0.30699  0.54159  1.0000
  C   C900      1.0  0.98011  0.14193  0.52529  1.0000
  H   H1405     1.0  0.57213  0.04674  0.62884  1.0000
  H   H1406     1.0  0.95215  0.30882  0.58183  1.0000
  S   S370      1.0  0.66049  0.14194  0.51075  1.0000
  H   H1407     1.0  0.95913  0.26893  0.60958  1.0000
  H   H1408     1.0  0.95362  0.09424  0.61998  1.0000
  C   C901      1.0  0.64554  0.16049  0.49611  1.0000
  C   C902      1.0  0.61699  0.32369  0.57762  1.0000
  H   H1409     1.0  0.78957  0.00086  0.56614  1.0000
  C   C903      1.0  0.92160  0.05674  0.54600  1.0000
  H   H1410     1.0  0.94281  0.08726  0.54932  1.0000
  H   H1411     1.0  0.55861  0.07614  0.66046  1.0000
  H   H1412     1.0  0.95111  0.07783  0.52522  1.0000
  Fe  Fe183     1.0  0.51266  0.08519  0.65615  1.0000
  C   C904      1.0  0.96291  0.10693  0.61943  1.0000
  N   N92       1.0  0.58266  0.05166  0.65651  1.0000
  C   C905      1.0  0.52782  0.31307  0.66815  1.0000
  H   H1413     1.0  0.76033  0.08290  0.52952  1.0000
  H   H1414     1.0  0.81393  0.09262  0.52642  1.0000
  H   H1415     1.0  0.55419  0.04312  0.65120  1.0000
  N   N93       1.0  0.60864  0.13638  0.55314  1.0000
  H   H1416     1.0  0.58319  0.08207  0.66341  1.0000
  H   H1417     1.0  0.98556  0.13573  0.60025  1.0000
  C   C906      1.0  0.50805  0.21686  0.55538  1.0000
  H   H1418     1.0  0.56718  0.28820  0.51233  1.0000
  C   C907      1.0  0.54523  0.05732  0.73625  1.0000
  H   H1419     1.0  0.99250  0.10056  0.57462  1.0000
  N   N94       1.0  0.51284  0.23572  0.56183  1.0000
  C   C908      1.0  0.62541  0.12038  0.55803  1.0000
  H   H1420     1.0  0.92560  0.06747  0.50589  1.0000
  H   H1421     1.0  0.56132  0.10266  0.71629  1.0000
  N   N95       1.0  0.83117  0.28017  0.53495  1.0000
  H   H1422     1.0  0.98168  0.15485  0.65746  1.0000
  H   H1423     1.0  0.84946  0.26428  0.55757  1.0000
  H   H1424     1.0  0.78152  0.06488  0.50189  1.0000
  H   H1425     1.0  0.49909  0.26648  0.56300  1.0000
  C   C909      1.0  0.51114  0.31836  0.68232  1.0000
  H   H1426     1.0  0.96626  0.30011  0.55924  1.0000
  H   H1427     1.0  0.50703  0.21868  0.53877  1.0000
  H   H1428     1.0  0.78753  0.99584  0.52980  1.0000
  H   H1429     1.0  0.56436  0.04360  0.68473  1.0000
  H   H1430     1.0  0.98525  0.13810  0.70243  1.0000
  H   H1431     1.0  0.58733  0.02695  0.68030  1.0000
  Fe  Fe184     1.0  0.61622  0.26937  0.49160  1.0000
  C   C910      1.0  0.51009  0.29863  0.53326  1.0000
  H   H1432     1.0  0.62112  0.10491  0.55791  1.0000
  C   C911      1.0  0.97813  0.10267  0.58515  1.0000
  C   C912      1.0  0.90280  0.09011  0.54709  1.0000
  H   H1433     1.0  0.97803  0.13310  0.72916  1.0000
  C   C913      1.0  0.52499  0.29740  0.54625  1.0000
  C   C914      1.0  0.63469  0.29487  0.52225  1.0000
  H   H1434     1.0  0.95361  0.12135  0.61428  1.0000
  S   S371      1.0  0.63205  0.26995  0.51894  1.0000
  H   H1435     1.0  0.57556  0.28996  0.70267  1.0000
  H   H1436     1.0  0.59455  0.13618  0.58406  1.0000
  Fe  Fe185     1.0  0.66056  0.10854  0.50868  1.0000
  Fe  Fe186     1.0  0.88834  0.30279  0.49372  1.0000
  C   C915      1.0  0.55381  0.08915  0.71750  1.0000
  H   H1437     1.0  0.86597  0.12065  0.53207  1.0000
  C   C916      1.0  0.79445  0.07238  0.50484  1.0000
  H   H1438     1.0  0.61052  0.03255  0.64884  1.0000
  H   H1439     1.0  0.63920  0.12190  0.54681  1.0000
  H   H1440     1.0  0.62986  0.12107  0.57328  1.0000
  H   H1441     1.0  0.56273  0.27167  0.73614  1.0000
  H   H1442     1.0  0.60321  0.16906  0.54878  1.0000
  Fe  Fe187     1.0  0.84945  0.00488  0.55361  1.0000
  N   N96       1.0  0.97787  0.28649  0.58699  1.0000
  H   H1443     1.0  0.81863  0.25271  0.53306  1.0000
  H   H1444     1.0  0.53795  0.29903  0.64082  1.0000
  C   C917      1.0  0.87956  0.12086  0.50100  1.0000
  S   S372      1.0  0.55209  0.31887  0.67060  1.0000
  H   H1445     1.0  0.98404  0.31559  0.59312  1.0000
  C   C918      1.0  0.51581  0.29610  0.51268  1.0000
  H   H1446     1.0  0.93694  0.10258  0.52617  1.0000
  H   H1447     1.0  0.96707  0.14114  0.53677  1.0000
  Fe  Fe188     1.0  0.49720  0.12872  0.63959  1.0000
  H   H1448     1.0  0.59662  0.29551  0.71422  1.0000
  C   C919      1.0  0.57502  0.07357  0.65461  1.0000
  C   C920      1.0  0.59092  0.13421  0.56880  1.0000
  C   C921      1.0  0.60287  0.13429  0.53310  1.0000
  H   H1449     1.0  0.50426  0.29702  0.50267  1.0000
  S   S373      1.0  0.51851  0.29893  0.57239  1.0000
  H   H1450     1.0  0.59723  0.11944  0.53307  1.0000
  H   H1451     1.0  0.92496  0.05646  0.56186  1.0000
  H   H1452     1.0  0.62009  0.15868  0.56734  1.0000
  C   C922      1.0  0.61543  0.15659  0.55254  1.0000
  H   H1453     1.0  0.62876  0.15867  0.54078  1.0000
  H   H1454     1.0  0.57770  0.14556  0.56524  1.0000
  H   H1455     1.0  0.57667  0.08057  0.63850  1.0000
  C   C923      1.0  0.96993  0.28040  0.60837  1.0000
  H   H1456     1.0  0.53201  0.24439  0.53424  1.0000
  H   H1457     1.0  0.51983  0.20385  0.55881  1.0000
  C   C924      1.0  0.60431  0.04893  0.64794  1.0000
  H   H1458     1.0  0.58077  0.31560  0.70134  1.0000
  H   H1459     1.0  0.89905  0.07152  0.51532  1.0000
  C   C925      1.0  0.58059  0.04314  0.67817  1.0000
  H   H1460     1.0  0.96556  0.10784  0.63529  1.0000
  H   H1461     1.0  0.58805  0.05179  0.68750  1.0000
  H   H1462     1.0  0.65748  0.18538  0.50584  1.0000
  H   H1463     1.0  0.97884  0.25659  0.57816  1.0000
  C   C926      1.0  0.93841  0.08670  0.53402  1.0000
  C   C927      1.0  0.51399  0.23271  0.58394  1.0000
  S   S374      1.0  0.89507  0.13925  0.50286  1.0000
  H   H1464     1.0  0.96930  0.08989  0.58461  1.0000
  H   H1465     1.0  0.98853  0.15620  0.71878  1.0000
  C   C928      1.0  0.54607  0.30993  0.72602  1.0000
  H   H1466     1.0  0.81275  0.26215  0.55735  1.0000
  H   H1467     1.0  0.93399  0.04690  0.53791  1.0000
  H   H1468     1.0  0.88795  0.08407  0.54805  1.0000
  H   H1469     1.0  0.49917  0.22936  0.59266  1.0000
  H   H1470     1.0  0.54505  0.22857  0.55358  1.0000
  H   H1471     1.0  0.51797  0.24659  0.58922  1.0000
  C   C929      1.0  0.58066  0.30092  0.71143  1.0000
  C   C930      1.0  0.65684  0.31949  0.52627  1.0000
  H   H1472     1.0  0.94990  0.28402  0.57559  1.0000
  C   C931      1.0  0.61954  0.31072  0.51749  1.0000
  H   H1473     1.0  0.83771  0.27246  0.50434  1.0000
  C   C932      1.0  0.98853  0.12236  0.66404  1.0000
  C   C933      1.0  0.98965  0.13966  0.71751  1.0000
  H   H1474     1.0  0.80065  0.11737  0.51994  1.0000
  S   S375      1.0  0.98492  0.32403  0.63947  1.0000
  H   H1475     1.0  0.76258  0.09854  0.49387  1.0000
  C   C934      1.0  0.98895  0.26851  0.57800  1.0000
  H   H1476     1.0  0.98244  0.27354  0.61745  1.0000
  H   H1477     1.0  0.77063  0.12076  0.50114  1.0000
  S   S376      1.0  0.59122  0.25017  0.49216  1.0000
  H   H1478     1.0  0.68305  0.30732  0.49180  1.0000
  C   C935      1.0  0.99185  0.30191  0.58624  1.0000
  H   H1479     1.0  0.98584  0.07132  0.61408  1.0000
  H   H1480     1.0  0.67146  0.32273  0.52911  1.0000
  H   H1481     1.0  0.81592  0.10394  0.50052  1.0000
  C   C936      1.0  0.77612  0.10544  0.49639  1.0000
  H   H1482     1.0  0.60090  0.32043  0.58071  1.0000
  C   C937      1.0  0.98883  0.99384  0.73886  1.0000
  C   C938      1.0  0.64720  0.18109  0.49649  1.0000
  H   H1483     1.0  0.54516  0.32462  0.71603  1.0000
  H   H1484     1.0  0.80521  0.07364  0.49057  1.0000
  C   C939      1.0  0.99424  0.08466  0.61364  1.0000
  C   C940      1.0  0.99445  0.14274  0.48986  1.0000
  Fe  Fe189     1.0  0.98815  0.11992  0.87213  1.0000
  H   H1485     1.0  0.97600  0.00579  0.74260  1.0000
  S   S377      1.0  0.90193  0.08358  0.95907  1.0000
  H   H1486     1.0  0.99301  0.07265  0.80881  1.0000
  H   H1487     1.0  0.55323  0.99814  0.78646  1.0000
  S   S378      1.0  0.98964  0.11698  0.79789  1.0000
  H   H1488     1.0  0.52714  0.28830  0.98141  1.0000
  S   S379      1.0  0.95864  0.13158  0.89017  1.0000
  H   H1489     1.0  0.59448  0.01015  0.83714  1.0000
  H   H1490     1.0  0.55325  0.29067  0.98313  1.0000
  Fe  Fe190     1.0  0.53168  0.06562  0.82240  1.0000
  S   S380      1.0  0.55598  0.08537  0.81005  1.0000
  H   H1491     1.0  0.62017  0.01164  0.84103  1.0000
  Fe  Fe191     1.0  0.55994  0.02679  0.81704  1.0000
  S   S381      1.0  0.58690  0.04336  0.80403  1.0000
  S   S382      1.0  0.50387  0.11192  0.91688  1.0000
  Fe  Fe192     1.0  0.57658  0.06336  0.82894  1.0000
  S   S383      1.0  0.59231  0.07467  0.85271  1.0000
  Fe  Fe193     1.0  0.56396  0.06388  0.78621  1.0000
  S   S384      1.0  0.55129  0.04526  0.84290  1.0000
  S   S385      1.0  0.53797  0.04559  0.79750  1.0000
  Fe  Fe194     1.0  0.71642  0.06994  0.94206  1.0000
  S   S386      1.0  0.69387  0.08302  0.96631  1.0000
  S   S387      1.0  0.75027  0.06506  0.94533  1.0000
  Fe  Fe195     1.0  0.68225  0.05970  0.91943  1.0000
  S   S388      1.0  0.65775  0.07157  0.94271  1.0000
  S   S389      1.0  0.67510  0.04750  0.89136  1.0000
  Fe  Fe196     1.0  0.67644  0.09724  0.94070  1.0000
  S   S390      1.0  0.65946  0.12861  0.93777  1.0000
  Fe  Fe197     1.0  0.67771  0.05589  0.96588  1.0000
  S   S391      1.0  0.70012  0.08641  0.91613  1.0000
  S   S392      1.0  0.70106  0.04181  0.94283  1.0000
  S   S393      1.0  0.86025  0.13220  0.96783  1.0000
  H   H1492     1.0  0.54279  0.32075  0.93400  1.0000
  C   C941      1.0  0.61502  0.06540  0.86353  1.0000
  C   C942      1.0  0.61650  0.06967  0.88319  1.0000
  C   C943      1.0  0.63457  0.06370  0.89213  1.0000
  C   C944      1.0  0.65151  0.05360  0.88138  1.0000
  C   C945      1.0  0.64992  0.04892  0.86186  1.0000
  C   C946      1.0  0.63178  0.05482  0.85293  1.0000
  H   H1493     1.0  0.60357  0.07774  0.89155  1.0000
  H   H1494     1.0  0.63544  0.06711  0.90727  1.0000
  H   H1495     1.0  0.66298  0.04118  0.85339  1.0000
  H   H1496     1.0  0.63102  0.05175  0.83764  1.0000
  C   C947      1.0  0.98575  0.07659  0.79510  1.0000
  H   H1497     1.0  0.51077  0.18844  0.84700  1.0000
  S   S394      1.0  0.55965  0.99365  0.82877  1.0000
  C   C948      1.0  0.51957  0.08846  0.86388  1.0000
  H   H1498     1.0  0.49721  0.14684  0.88733  1.0000
  H   H1499     1.0  0.64512  0.20977  0.97116  1.0000
  H   H1500     1.0  0.53356  0.08334  0.85494  1.0000
  H   H1501     1.0  0.63284  0.08744  0.98384  1.0000
  H   H1502     1.0  0.57801  0.29337  0.95149  1.0000
  C   C949      1.0  0.65636  0.13808  0.96121  1.0000
  C   C950      1.0  0.63729  0.14728  0.96887  1.0000
  C   C951      1.0  0.53211  0.28338  0.94175  1.0000
  H   H1503     1.0  0.94352  0.22979  0.98008  1.0000
  H   H1504     1.0  0.62469  0.14909  0.95999  1.0000
  H   H1505     1.0  0.54647  0.26739  0.97690  1.0000
  S   S395      1.0  0.53081  0.30159  0.87103  1.0000
  S   S396      1.0  0.57008  0.07822  0.75351  1.0000
  H   H1506     1.0  0.56807  0.00538  0.86729  1.0000
  H   H1507     1.0  0.50063  0.14123  0.97574  1.0000
  H   H1508     1.0  0.55752  0.28489  0.75827  1.0000
  H   H1509     1.0  0.83640  0.18824  0.96893  1.0000
  H   H1510     1.0  0.62566  0.24132  0.98202  1.0000
  C   C952      1.0  0.97978  0.06125  0.78553  1.0000
  C   C953      1.0  0.54307  0.28425  0.97449  1.0000
  H   H1511     1.0  0.57137  0.26964  0.94602  1.0000
  Fe  Fe198     1.0  0.50198  0.30617  0.89222  1.0000
  H   H1512     1.0  0.53491  0.26649  0.94329  1.0000
  C   C954      1.0  0.78681  0.10993  0.96696  1.0000
  C   C955      1.0  0.57389  0.31864  0.74119  1.0000
  C   C956      1.0  0.75474  0.10205  0.95787  1.0000
  C   C957      1.0  0.76388  0.08270  0.95372  1.0000
  C   C958      1.0  0.78446  0.07700  0.95643  1.0000
  C   C959      1.0  0.79583  0.09046  0.96314  1.0000
  H   H1513     1.0  0.96950  0.11757  0.76306  1.0000
  H   H1514     1.0  0.73894  0.10666  0.95586  1.0000
  H   H1515     1.0  0.79171  0.06213  0.95314  1.0000
  H   H1516     1.0  0.81169  0.08591  0.96497  1.0000
  C   C960      1.0  0.91821  0.09692  0.94040  1.0000
  C   C961      1.0  0.91468  0.11805  0.93612  1.0000
  C   C962      1.0  0.92742  0.12838  0.92087  1.0000
  C   C963      1.0  0.94401  0.11776  0.90995  1.0000
  C   C964      1.0  0.94775  0.09661  0.91434  1.0000
  C   C965      1.0  0.93479  0.08622  0.92945  1.0000
  H   H1517     1.0  0.90205  0.12648  0.94446  1.0000
  H   H1518     1.0  0.92442  0.14473  0.91755  1.0000
  H   H1519     1.0  0.96050  0.08828  0.90601  1.0000
  H   H1520     1.0  0.93765  0.06986  0.93270  1.0000
  C   C966      1.0  0.50085  0.08786  0.85711  1.0000
  S   S397      1.0  0.99341  0.09246  0.85536  1.0000
  H   H1521     1.0  0.96001  0.09047  0.74562  1.0000
  H   H1522     1.0  0.52301  0.15158  0.84541  1.0000
  C   C967      1.0  0.54126  0.31449  0.95030  1.0000
  H   H1523     1.0  0.61221  0.00024  0.89686  1.0000
  H   H1524     1.0  0.76504  0.04713  0.98538  1.0000
  C   C968      1.0  0.97076  0.06613  0.76746  1.0000
  S   S398      1.0  0.80081  0.12776  0.97451  1.0000
  C   C969      1.0  0.50584  0.14842  0.98723  1.0000
  H   H1525     1.0  0.98936  0.31522  0.90117  1.0000
  H   H1526     1.0  0.79169  0.20594  0.96850  1.0000
  C   C970      1.0  0.56719  0.28641  0.94412  1.0000
  H   H1527     1.0  0.91591  0.04072  0.98251  1.0000
  H   H1528     1.0  0.58336  0.27816  0.74761  1.0000
  S   S399      1.0  0.57184  0.32263  0.89380  1.0000
  N   N97       1.0  0.54590  0.29211  0.95269  1.0000
  H   H1529     1.0  0.63045  0.00539  0.87496  1.0000
  H   H1530     1.0  0.81135  0.21818  0.97582  1.0000
  C   C971      1.0  0.98236  0.09696  0.78683  1.0000
  C   C972      1.0  0.49499  0.18457  0.84797  1.0000
  H   H1531     1.0  0.68734  0.12850  0.96692  1.0000
  H   H1532     1.0  0.55178  0.32179  0.95774  1.0000
  C   C973      1.0  0.63425  0.15331  0.98839  1.0000
  H   H1533     1.0  0.60033  0.03132  0.84799  1.0000
  Fe  Fe199     1.0  0.83240  0.11936  0.98459  1.0000
  H   H1534     1.0  0.53488  0.09589  0.88759  1.0000
  H   H1535     1.0  0.65933  0.19263  0.98864  1.0000
  H   H1536     1.0  0.69240  0.01131  0.97512  1.0000
  C   C974      1.0  0.82407  0.17856  0.97475  1.0000
  H   H1537     1.0  0.50285  0.14944  0.83096  1.0000
  Fe  Fe200     1.0  0.51551  0.32534  0.84910  1.0000
  C   C975      1.0  0.97281  0.10183  0.76912  1.0000
  N   N98       1.0  0.65310  0.12109  0.87820  1.0000
  C   C976      1.0  0.66868  0.13215  0.88393  1.0000
  C   C977      1.0  0.64084  0.13468  0.86395  1.0000
  C   C978      1.0  0.63967  0.11429  0.89661  1.0000
  C   C979      1.0  0.66316  0.10324  0.86834  1.0000
  H   H1538     1.0  0.67810  0.12229  0.89473  1.0000
  H   H1539     1.0  0.66162  0.14556  0.89171  1.0000
  H   H1540     1.0  0.67913  0.13757  0.87047  1.0000
  H   H1541     1.0  0.62896  0.12670  0.85933  1.0000
  H   H1542     1.0  0.63296  0.14825  0.87096  1.0000
  H   H1543     1.0  0.65049  0.14011  0.84986  1.0000
  H   H1544     1.0  0.62717  0.10669  0.89282  1.0000
  H   H1545     1.0  0.63260  0.12727  0.90501  1.0000
  H   H1546     1.0  0.64828  0.10335  0.90733  1.0000
  H   H1547     1.0  0.65187  0.09486  0.86331  1.0000
  H   H1548     1.0  0.67203  0.09228  0.87888  1.0000
  H   H1549     1.0  0.67388  0.10769  0.85472  1.0000
  H   H1550     1.0  0.66383  0.23801  0.97613  1.0000
  H   H1551     1.0  0.53536  0.31200  0.74008  1.0000
  S   S400      1.0  0.49994  0.07762  0.83460  1.0000
  H   H1552     1.0  0.61156  0.02526  0.88319  1.0000
  H   H1553     1.0  0.57558  0.00111  0.89239  1.0000
  H   H1554     1.0  0.53408  0.28885  0.92518  1.0000
  N   N99       1.0  0.93232  0.11210  0.84328  1.0000
  C   C980      1.0  0.93180  0.10167  0.86426  1.0000
  C   C981      1.0  0.91133  0.11895  0.83867  1.0000
  C   C982      1.0  0.94258  0.09797  0.82884  1.0000
  C   C983      1.0  0.94360  0.12988  0.84136  1.0000
  H   H1555     1.0  0.94742  0.09660  0.86837  1.0000
  H   H1556     1.0  0.92356  0.08805  0.86637  1.0000
  H   H1557     1.0  0.92420  0.11197  0.87554  1.0000
  H   H1558     1.0  0.90323  0.12967  0.84932  1.0000
  H   H1559     1.0  0.91120  0.12695  0.82297  1.0000
  H   H1560     1.0  0.90236  0.10590  0.84000  1.0000
  H   H1561     1.0  0.94336  0.10542  0.81287  1.0000
  H   H1562     1.0  0.93461  0.08427  0.82984  1.0000
  H   H1563     1.0  0.95854  0.09267  0.83178  1.0000
  H   H1564     1.0  0.94473  0.13801  0.82567  1.0000
  H   H1565     1.0  0.95936  0.12515  0.84499  1.0000
  H   H1566     1.0  0.93645  0.14090  0.85210  1.0000
  C   C984      1.0  0.56773  0.28360  0.74373  1.0000
  C   C985      1.0  0.67253  0.13547  0.97285  1.0000
  H   H1567     1.0  0.95717  0.32405  0.87204  1.0000
  C   C986      1.0  0.96731  0.08651  0.75930  1.0000
  C   C987      1.0  0.52032  0.09576  0.88233  1.0000
  Fe  Fe201     1.0  0.87771  0.10244  0.97823  1.0000
  H   H1568     1.0  0.97470  0.20701  0.98761  1.0000
  C   C988      1.0  0.79973  0.20764  0.98153  1.0000
  H   H1569     1.0  0.51506  0.16472  0.87867  1.0000
  H   H1570     1.0  0.60544  0.31399  0.91721  1.0000
  C   C989      1.0  0.50239  0.10299  0.89383  1.0000
  C   C990      1.0  0.76621  0.11562  0.96431  1.0000
  H   H1571     1.0  0.51585  0.28773  0.94742  1.0000
  H   H1572     1.0  0.75909  0.13064  0.96719  1.0000
  H   H1573     1.0  0.98822  0.32253  0.77235  1.0000
  H   H1574     1.0  0.97661  0.32085  0.97077  1.0000
  S   S401      1.0  0.96365  0.04663  0.75553  1.0000
  H   H1575     1.0  0.49847  0.23688  0.92959  1.0000
  C   C991      1.0  0.98201  0.30495  0.97452  1.0000
  H   H1576     1.0  0.56966  0.29168  0.92756  1.0000
  H   H1577     1.0  0.54625  0.04599  0.74936  1.0000
  C   C992      1.0  0.61424  0.00877  0.88139  1.0000
  H   H1578     1.0  0.52542  0.31945  0.95684  1.0000
  C   C993      1.0  0.60402  0.01463  0.84771  1.0000
  H   H1579     1.0  0.76106  0.02479  0.97537  1.0000
  H   H1580     1.0  0.81668  0.17574  0.96168  1.0000
  H   H1581     1.0  0.98320  0.31364  0.86569  1.0000
  H   H1582     1.0  0.50587  0.13300  0.85410  1.0000
  C   C994      1.0  0.49895  0.16213  0.87891  1.0000
  H   H1583     1.0  0.72430  0.03443  0.97838  1.0000
  H   H1584     1.0  0.57585  0.02584  0.87796  1.0000
  H   H1585     1.0  0.50889  0.01037  0.82335  1.0000
  H   H1586     1.0  0.78546  0.17124  0.98505  1.0000
  N   N100      1.0  0.60026  0.00348  0.86822  1.0000
  H   H1587     1.0  0.85392  0.30470  0.98079  1.0000
  H   H1588     1.0  0.58997  0.31455  0.74422  1.0000
  C   C995      1.0  0.64563  0.20407  0.98750  1.0000
  S   S402      1.0  0.51322  0.32290  0.81606  1.0000
  H   H1589     1.0  0.56446  0.32030  0.75608  1.0000
  H   H1590     1.0  0.98232  0.04554  0.79207  1.0000
  C   C996      1.0  0.57901  0.00918  0.87689  1.0000
  H   H1591     1.0  0.53503  0.13006  0.98591  1.0000
  C   C997      1.0  0.85704  0.31808  0.98664  1.0000
  H   H1592     1.0  0.87893  0.05019  0.98126  1.0000
  H   H1593     1.0  0.72788  0.05757  0.98723  1.0000
  H   H1594     1.0  0.83153  0.16368  0.98107  1.0000
  C   C998      1.0  0.50683  0.14884  0.84663  1.0000
  H   H1595     1.0  0.50891  0.01118  0.78644  1.0000
  H   H1596     1.0  0.74955  0.32399  0.98798  1.0000
  H   H1597     1.0  0.94173  0.19287  0.98871  1.0000
  H   H1598     1.0  0.49473  0.03602  0.78547  1.0000
  Fe  Fe202     1.0  0.65297  0.47054  0.16112  1.0000
  S   S403      1.0  0.62334  0.47521  0.14802  1.0000
  S   S404      1.0  0.65633  0.46833  0.19467  1.0000
  Fe  Fe203     1.0  0.67829  0.47584  0.11905  1.0000
  S   S405      1.0  0.65052  0.48097  0.10269  1.0000
  S   S406      1.0  0.70927  0.47399  0.10004  1.0000
  Fe  Fe204     1.0  0.63657  0.50064  0.12701  1.0000
  S   S407      1.0  0.62403  0.53399  0.12204  1.0000
  Fe  Fe205     1.0  0.63978  0.45504  0.12481  1.0000
  S   S408      1.0  0.62804  0.42684  0.11757  1.0000
  S   S409      1.0  0.66533  0.49728  0.14160  1.0000
  S   S410      1.0  0.66855  0.44858  0.13963  1.0000
  C   C999      1.0  0.96774  0.57054  0.16165  1.0000
  C   C1000     1.0  0.52098  0.55882  0.18666  1.0000
  H   H1599     1.0  0.91417  0.47547  0.20247  1.0000
  S   S411      1.0  0.50740  0.62281  0.07979  1.0000
  Fe  Fe206     1.0  0.52104  0.60035  0.10390  1.0000
  S   S412      1.0  0.53594  0.56860  0.09883  1.0000
  S   S413      1.0  0.53462  0.62390  0.11676  1.0000
  Fe  Fe207     1.0  0.64119  0.36911  0.01726  1.0000
  C   C1001     1.0  0.96432  0.58067  0.12616  1.0000
  S   S414      1.0  0.64337  0.39882  0.02940  1.0000
  H   H1600     1.0  0.79213  0.49859  0.11160  1.0000
  Fe  Fe208     1.0  0.92971  0.40464  0.20505  1.0000
  S   S415      1.0  0.94012  0.43540  0.19733  1.0000
  Fe  Fe209     1.0  0.94085  0.39395  0.16113  1.0000
  S   S416      1.0  0.95110  0.42483  0.15074  1.0000
  S   S417      1.0  0.94869  0.37558  0.13398  1.0000
  Fe  Fe210     1.0  0.96661  0.42010  0.17870  1.0000
  Fe  Fe211     1.0  0.92371  0.43724  0.17022  1.0000
  S   S418      1.0  0.90533  0.46718  0.16221  1.0000
  S   S419      1.0  0.95785  0.38864  0.18862  1.0000
  S   S420      1.0  0.91165  0.40718  0.17852  1.0000
  Fe  Fe212     1.0  0.80450  0.53049  0.07835  1.0000
  S   S421      1.0  0.81253  0.50227  0.06298  1.0000
  S   S422      1.0  0.77295  0.53724  0.09552  1.0000
  Fe  Fe213     1.0  0.84838  0.54207  0.06950  1.0000
  S   S423      1.0  0.85908  0.51444  0.05319  1.0000
  S   S424      1.0  0.87554  0.55780  0.07382  1.0000
  Fe  Fe214     1.0  0.83023  0.52167  0.03891  1.0000
  S   S425      1.0  0.82894  0.51960  0.00572  1.0000
  Fe  Fe215     1.0  0.84054  0.49758  0.07862  1.0000
  S   S426      1.0  0.85132  0.46602  0.09245  1.0000
  S   S427      1.0  0.82053  0.55077  0.05307  1.0000
  S   S428      1.0  0.83140  0.52440  0.09600  1.0000
  S   S429      1.0  0.95740  0.62955  0.08865  1.0000
  Fe  Fe216     1.0  0.51838  0.64677  0.09469  1.0000
  N   N101      1.0  0.53063  0.55836  0.16545  1.0000
  S   S430      1.0  0.96382  0.63279  0.14460  1.0000
  C   C1002     1.0  0.88212  0.58270  0.07367  1.0000
  C   C1003     1.0  0.90209  0.58478  0.07664  1.0000
  C   C1004     1.0  0.90843  0.60412  0.07604  1.0000
  C   C1005     1.0  0.89489  0.62170  0.07224  1.0000
  C   C1006     1.0  0.87489  0.61964  0.06924  1.0000
  C   C1007     1.0  0.86845  0.60026  0.07013  1.0000
  H   H1601     1.0  0.91277  0.57131  0.07944  1.0000
  H   H1602     1.0  0.92385  0.60543  0.07831  1.0000
  H   H1603     1.0  0.86428  0.63314  0.06640  1.0000
  H   H1604     1.0  0.85297  0.59895  0.06807  1.0000
  H   H1605     1.0  0.51486  0.53377  0.16073  1.0000
  C   C1008     1.0  0.84131  0.47857  0.01264  1.0000
  H   H1606     1.0  0.98429  0.37241  0.15405  1.0000
  N   N102      1.0  0.87528  0.56939  0.01073  1.0000
  H   H1607     1.0  0.84649  0.48180  0.02632  1.0000
  H   H1608     1.0  0.98600  0.61494  0.17779  1.0000
  H   H1609     1.0  0.87582  0.36596  0.05128  1.0000
  C   C1009     1.0  0.86256  0.58288  0.02448  1.0000
  H   H1610     1.0  0.92166  0.34670  0.15651  1.0000
  C   C1010     1.0  0.90919  0.47512  0.21909  1.0000
  C   C1011     1.0  0.67944  0.44158  0.07573  1.0000
  C   C1012     1.0  0.86699  0.46632  0.11130  1.0000
  C   C1013     1.0  0.87097  0.48475  0.11657  1.0000
  C   C1014     1.0  0.88267  0.48490  0.13230  1.0000
  C   C1015     1.0  0.89090  0.46660  0.14246  1.0000
  C   C1016     1.0  0.88734  0.44810  0.13691  1.0000
  C   C1017     1.0  0.87521  0.44797  0.12146  1.0000
  H   H1611     1.0  0.86524  0.49895  0.10844  1.0000
  H   H1612     1.0  0.88561  0.49923  0.13637  1.0000
  H   H1613     1.0  0.89378  0.43392  0.14461  1.0000
  H   H1614     1.0  0.87230  0.43367  0.11732  1.0000
  C   C1018     1.0  0.94076  0.35295  0.12832  1.0000
  H   H1615     1.0  0.53016  0.56602  0.19569  1.0000
  S   S431      1.0  0.66581  0.34249  0.01654  1.0000
  C   C1019     1.0  0.53316  0.57931  0.15611  1.0000
  H   H1616     1.0  0.87161  0.54480  0.99434  1.0000
  H   H1617     1.0  0.51718  0.61042  0.21065  1.0000
  C   C1020     1.0  0.83194  0.49431  0.99988  1.0000
  H   H1618     1.0  0.54950  0.53004  0.17175  1.0000
  S   S432      1.0  0.89055  0.33216  0.02762  1.0000
  H   H1619     1.0  0.91043  0.49036  0.22333  1.0000
  C   C1021     1.0  0.72641  0.49204  0.09900  1.0000
  C   C1022     1.0  0.72457  0.50545  0.11362  1.0000
  C   C1023     1.0  0.73880  0.51942  0.11233  1.0000
  C   C1024     1.0  0.75501  0.51994  0.09653  1.0000
  C   C1025     1.0  0.75668  0.50660  0.08190  1.0000
  C   C1026     1.0  0.74253  0.49265  0.08320  1.0000
  H   H1620     1.0  0.71243  0.50481  0.12609  1.0000
  H   H1621     1.0  0.73744  0.52967  0.12376  1.0000
  H   H1622     1.0  0.76872  0.50721  0.06936  1.0000
  H   H1623     1.0  0.74400  0.48242  0.07175  1.0000
  C   C1027     1.0  0.62972  0.41955  0.09291  1.0000
  C   C1028     1.0  0.63225  0.43361  0.07557  1.0000
  C   C1029     1.0  0.63564  0.42701  0.05620  1.0000
  C   C1030     1.0  0.63615  0.40637  0.05393  1.0000
  C   C1031     1.0  0.63264  0.39240  0.07121  1.0000
  C   C1032     1.0  0.62937  0.39901  0.09064  1.0000
  H   H1624     1.0  0.63190  0.44955  0.07710  1.0000
  H   H1625     1.0  0.63810  0.43794  0.04288  1.0000
  H   H1626     1.0  0.63296  0.37648  0.06964  1.0000
  H   H1627     1.0  0.62711  0.38808  0.10398  1.0000
  C   C1033     1.0  0.59935  0.54310  0.11590  1.0000
  C   C1034     1.0  0.58637  0.53019  0.11128  1.0000
  C   C1035     1.0  0.56702  0.53825  0.10588  1.0000
  C   C1036     1.0  0.56048  0.55919  0.10526  1.0000
  C   C1037     1.0  0.57340  0.57204  0.11010  1.0000
  C   C1038     1.0  0.59278  0.56402  0.11534  1.0000
  H   H1628     1.0  0.59131  0.51406  0.11160  1.0000
  H   H1629     1.0  0.55710  0.52823  0.10209  1.0000
  H   H1630     1.0  0.56860  0.58820  0.10951  1.0000
  H   H1631     1.0  0.60277  0.57410  0.11886  1.0000
  H   H1632     1.0  0.96943  0.46292  0.17537  1.0000
  H   H1633     1.0  0.51907  0.54327  0.19438  1.0000
  H   H1634     1.0  0.55844  0.54562  0.14921  1.0000
  C   C1039     1.0  0.63917  0.45631  0.21344  1.0000
  C   C1040     1.0  0.62701  0.44262  0.20878  1.0000
  C   C1041     1.0  0.61472  0.43211  0.22439  1.0000
  H   H1635     1.0  0.69551  0.39190  0.07041  1.0000
  C   C1042     1.0  0.87425  0.33354  0.00907  1.0000
  H   H1636     1.0  0.62744  0.43977  0.19319  1.0000
  H   H1637     1.0  0.84967  0.59187  0.01719  1.0000
  C   C1043     1.0  0.79251  0.33996  0.99875  1.0000
  N   N103      1.0  0.89306  0.36078  0.07668  1.0000
  C   C1044     1.0  0.91281  0.35981  0.06359  1.0000
  C   C1045     1.0  0.87724  0.37285  0.06519  1.0000
  H   H1638     1.0  0.80108  0.35321  0.99348  1.0000
  C   C1046     1.0  0.88757  0.33999  0.08305  1.0000
  S   S433      1.0  0.90247  0.64642  0.07043  1.0000
  H   H1639     1.0  0.85599  0.57403  0.03856  1.0000
  H   H1640     1.0  0.88000  0.37166  0.10499  1.0000
  H   H1641     1.0  0.67252  0.44513  0.06129  1.0000
  C   C1047     1.0  0.89168  0.55730  0.02142  1.0000
  H   H1642     1.0  0.94748  0.58131  0.12940  1.0000
  H   H1643     1.0  0.56106  0.55237  0.17359  1.0000
  H   H1644     1.0  0.87194  0.44452  0.22257  1.0000
  C   C1048     1.0  0.76058  0.36001  0.99247  1.0000
  H   H1645     1.0  0.90626  0.36148  0.10401  1.0000
  H   H1646     1.0  0.97059  0.58618  0.16336  1.0000
  H   H1647     1.0  0.89918  0.38604  0.09069  1.0000
  H   H1648     1.0  0.87160  0.59376  0.02929  1.0000
  H   H1649     1.0  0.91216  0.35257  0.04974  1.0000
  H   H1650     1.0  0.53981  0.57969  0.13992  1.0000
  H   H1651     1.0  0.71944  0.43988  0.06334  1.0000
  H   H1652     1.0  0.78855  0.33942  0.01547  1.0000
  C   C1049     1.0  0.96979  0.54505  0.13898  1.0000
  H   H1653     1.0  0.72342  0.41348  0.05939  1.0000
  H   H1654     1.0  0.88084  0.38866  0.06018  1.0000
  C   C1050     1.0  0.50222  0.60684  0.20911  1.0000
  H   H1655     1.0  0.70689  0.43124  0.04466  1.0000
  H   H1656     1.0  0.89944  0.33027  0.09122  1.0000
  H   H1657     1.0  0.91744  0.37521  0.05853  1.0000
  H   H1658     1.0  0.68653  0.45511  0.07776  1.0000
  S   S434      1.0  0.61552  0.35001  0.01911  1.0000
  H   H1659     1.0  0.67896  0.40957  0.05566  1.0000
  N   N104      1.0  0.79355  0.46654  0.12161  1.0000
  C   C1051     1.0  0.80651  0.45079  0.13331  1.0000
  C   C1052     1.0  0.77227  0.46754  0.13138  1.0000
  C   C1053     1.0  0.79455  0.46143  0.10069  1.0000
  C   C1054     1.0  0.80092  0.48646  0.12104  1.0000
  H   H1660     1.0  0.82267  0.44970  0.12616  1.0000
  H   H1661     1.0  0.80143  0.43553  0.13414  1.0000
  H   H1662     1.0  0.80636  0.45432  0.14908  1.0000
  H   H1663     1.0  0.77091  0.47136  0.14720  1.0000
  H   H1664     1.0  0.76226  0.47945  0.12293  1.0000
  H   H1665     1.0  0.76606  0.45287  0.13189  1.0000
  H   H1666     1.0  0.78508  0.47306  0.09139  1.0000
  H   H1667     1.0  0.78913  0.44649  0.10051  1.0000
  H   H1668     1.0  0.81036  0.46064  0.09279  1.0000
  H   H1669     1.0  0.81715  0.48601  0.11450  1.0000
  N   N105      1.0  0.69438  0.42315  0.07557  1.0000
  H   H1670     1.0  0.96811  0.59623  0.12678  1.0000
  C   C1055     1.0  0.89467  0.37045  0.09486  1.0000
  C   C1056     1.0  0.70141  0.41792  0.09581  1.0000
  N   N106      1.0  0.97468  0.56556  0.14078  1.0000
  H   H1671     1.0  0.70851  0.43060  0.10005  1.0000
  H   H1672     1.0  0.55137  0.46735  0.23650  1.0000
  H   H1673     1.0  0.88584  0.33234  0.06979  1.0000
  H   H1674     1.0  0.86207  0.37373  0.07447  1.0000
  C   C1057     1.0  0.94818  0.34615  0.10939  1.0000
  H   H1675     1.0  0.92506  0.35067  0.07165  1.0000
  H   H1676     1.0  0.85825  0.48123  0.21691  1.0000
  Fe  Fe217     1.0  0.50496  0.62640  0.13749  1.0000
  C   C1058     1.0  0.51754  0.54942  0.15389  1.0000
  H   H1677     1.0  0.86861  0.36621  0.00705  1.0000
  C   C1059     1.0  0.68473  0.40610  0.07074  1.0000
  H   H1678     1.0  0.87301  0.34003  0.09333  1.0000
  N   N107      1.0  0.67863  0.54825  0.09174  1.0000
  C   C1060     1.0  0.69857  0.55293  0.08091  1.0000
  C   C1061     1.0  0.67852  0.54863  0.11377  1.0000
  C   C1062     1.0  0.67504  0.52785  0.08801  1.0000
  C   C1063     1.0  0.66233  0.56354  0.08431  1.0000
  H   H1679     1.0  0.69910  0.55303  0.06422  1.0000
  H   H1680     1.0  0.71114  0.54143  0.08591  1.0000
  H   H1681     1.0  0.70201  0.56805  0.08369  1.0000
  H   H1682     1.0  0.69059  0.53730  0.11994  1.0000
  H   H1683     1.0  0.68102  0.56384  0.11719  1.0000
  H   H1684     1.0  0.66373  0.54500  0.12242  1.0000
  H   H1685     1.0  0.68667  0.51582  0.09394  1.0000
  H   H1686     1.0  0.67541  0.52682  0.07153  1.0000
  H   H1687     1.0  0.65992  0.52407  0.09557  1.0000
  H   H1688     1.0  0.66452  0.57914  0.08683  1.0000
  H   H1689     1.0  0.64710  0.56044  0.09230  1.0000
  H   H1690     1.0  0.66175  0.56352  0.06779  1.0000
  H   H1691     1.0  0.60566  0.42123  0.22069  1.0000
  H   H1692     1.0  0.92022  0.46393  0.22712  1.0000
  C   C1064     1.0  0.86256  0.55556  0.00441  1.0000
  H   H1693     1.0  0.71277  0.40413  0.09632  1.0000
  H   H1694     1.0  0.54316  0.58659  0.16415  1.0000
  H   H1695     1.0  0.85533  0.54618  0.01774  1.0000
  H   H1696     1.0  0.68848  0.41491  0.10781  1.0000
  H   H1697     1.0  0.87446  0.50043  0.21749  1.0000
  H   H1698     1.0  0.85001  0.56402  0.99622  1.0000
  H   H1699     1.0  0.66697  0.43973  0.08844  1.0000
  H   H1700     1.0  0.90229  0.54774  0.01124  1.0000
  H   H1701     1.0  0.89134  0.44918  0.20171  1.0000
  H   H1702     1.0  0.79969  0.49124  0.13646  1.0000
  Fe  Fe218     1.0  0.97834  0.65037  0.06997  1.0000
  H   H1703     1.0  0.97274  0.49921  0.17608  1.0000
  S   S435      1.0  0.50826  0.62705  0.17076  1.0000
  H   H1704     1.0  0.51831  0.58903  0.15653  1.0000
  C   C1065     1.0  0.63843  0.45989  0.23372  1.0000
  H   H1705     1.0  0.89817  0.43769  0.22586  1.0000
  H   H1706     1.0  0.96885  0.57721  0.11026  1.0000
  H   H1707     1.0  0.97580  0.55981  0.17302  1.0000
  H   H1708     1.0  0.67151  0.40279  0.08220  1.0000
  C   C1066     1.0  0.86537  0.35272  0.00147  1.0000
  H   H1709     1.0  0.64756  0.47075  0.23732  1.0000
  H   H1710     1.0  0.75643  0.36066  0.00904  1.0000
  C   C1067     1.0  0.98608  0.48807  0.17640  1.0000
  N   N108      1.0  0.88825  0.46970  0.22435  1.0000
  H   H1711     1.0  0.95854  0.35468  0.09882  1.0000
  H   H1712     1.0  0.95113  0.56988  0.16572  1.0000
  H   H1713     1.0  0.97506  0.54066  0.12351  1.0000
  C   C1068     1.0  0.71184  0.42708  0.06005  1.0000
  H   H1714     1.0  0.97724  0.53332  0.14995  1.0000
  C   C1069     1.0  0.92744  0.34171  0.14187  1.0000
  H   H1715     1.0  0.90066  0.56719  0.02781  1.0000
  H   H1716     1.0  0.87836  0.48551  0.19662  1.0000
  H   H1717     1.0  0.50247  0.55878  0.15323  1.0000
  Fe  Fe219     1.0  0.95874  0.64838  0.11349  1.0000
  H   H1718     1.0  0.52457  0.54846  0.13791  1.0000
  H   H1719     1.0  0.85206  0.44661  0.01733  1.0000
  H   H1720     1.0  0.89412  0.59231  0.99699  1.0000
  H   H1721     1.0  0.88542  0.54682  0.03443  1.0000
  H   H1722     1.0  0.98161  0.40006  0.12545  1.0000
  S   S436      1.0  0.91449  0.39732  0.23718  1.0000
  C   C1070     1.0  0.98416  0.46747  0.17611  1.0000
  C   C1071     1.0  0.88734  0.44942  0.21836  1.0000
  H   H1723     1.0  0.95313  0.54422  0.14208  1.0000
  C   C1072     1.0  0.84444  0.45861  0.00754  1.0000
  C   C1073     1.0  0.55077  0.54603  0.16505  1.0000
  C   C1074     1.0  0.87417  0.48492  0.21340  1.0000
  H   H1724     1.0  0.50561  0.56780  0.18735  1.0000
  Fe  Fe220     1.0  0.93215  0.65344  0.07972  1.0000
  C   C1075     1.0  0.98963  0.62373  0.14545  1.0000
  H   H1725     1.0  0.80331  0.32618  0.99564  1.0000
  C   C1076     1.0  0.94233  0.32835  0.10402  1.0000
  C   C1077     1.0  0.83776  0.45406  0.98993  1.0000
  H   H1726     1.0  0.94602  0.42249  0.23917  1.0000
  C   C1078     1.0  0.88430  0.58185  0.99266  1.0000
  Fe  Fe221     1.0  0.67864  0.53932  0.41063  1.0000
  S   S437      1.0  0.69939  0.54503  0.38158  1.0000
  S   S438      1.0  0.65404  0.56114  0.42612  1.0000
  Fe  Fe222     1.0  0.69202  0.49312  0.41450  1.0000
  S   S439      1.0  0.71344  0.49507  0.38555  1.0000
  S   S440      1.0  0.68475  0.46233  0.43006  1.0000
  Fe  Fe223     1.0  0.72260  0.52224  0.39668  1.0000
  S   S441      1.0  0.75552  0.52734  0.39653  1.0000
  Fe  Fe224     1.0  0.68872  0.51734  0.37292  1.0000
  S   S442      1.0  0.67522  0.51741  0.34394  1.0000
  S   S443      1.0  0.70262  0.51883  0.42679  1.0000
  S   S444      1.0  0.66654  0.51310  0.40085  1.0000
  Fe  Fe225     1.0  0.53607  0.64457  0.40543  1.0000
  S   S445      1.0  0.56147  0.63741  0.42469  1.0000
  H   H1727     1.0  0.70493  0.41114  0.25355  1.0000
  H   H1728     1.0  0.50304  0.65368  0.37573  1.0000
  S   S446      1.0  0.61157  0.64653  0.38913  1.0000
  Fe  Fe226     1.0  0.60285  0.42034  0.29726  1.0000
  S   S447      1.0  0.57683  0.41298  0.32097  1.0000
  S   S448      1.0  0.59951  0.42115  0.26397  1.0000
  Fe  Fe227     1.0  0.62968  0.42398  0.32885  1.0000
  S   S449      1.0  0.60613  0.41699  0.35531  1.0000
  S   S450      1.0  0.66132  0.42808  0.33396  1.0000
  Fe  Fe228     1.0  0.59993  0.39258  0.33802  1.0000
  S   S451      1.0  0.59106  0.36174  0.35197  1.0000
  Fe  Fe229     1.0  0.58489  0.43784  0.33642  1.0000
  S   S452      1.0  0.55970  0.45848  0.35172  1.0000
  S   S453      1.0  0.62539  0.39773  0.31291  1.0000
  S   S454      1.0  0.60899  0.44705  0.31129  1.0000
  H   H1729     1.0  0.95912  0.47331  0.31791  1.0000
  S   S455      1.0  0.52063  0.61839  0.40038  1.0000
  H   H1730     1.0  0.93195  0.39960  0.43748  1.0000
  H   H1731     1.0  0.96083  0.52875  0.31734  1.0000
  S   S456      1.0  0.86434  0.32646  0.48160  1.0000
  S   S457      1.0  0.89250  0.35695  0.43453  1.0000
  Fe  Fe230     1.0  0.86252  0.48209  0.34592  1.0000
  S   S458      1.0  0.87436  0.49512  0.37041  1.0000
  S   S459      1.0  0.82924  0.48152  0.34273  1.0000
  Fe  Fe231     1.0  0.90524  0.46522  0.32778  1.0000
  S   S460      1.0  0.92004  0.47587  0.35199  1.0000
  S   S461      1.0  0.92728  0.45509  0.30112  1.0000
  Fe  Fe232     1.0  0.89399  0.46495  0.37384  1.0000
  S   S462      1.0  0.89520  0.45106  0.40656  1.0000
  Fe  Fe233     1.0  0.89937  0.50480  0.34646  1.0000
  S   S463      1.0  0.91200  0.53505  0.33875  1.0000
  S   S464      1.0  0.88117  0.45139  0.35026  1.0000
  S   S465      1.0  0.88554  0.49468  0.32140  1.0000
  C   C1079     1.0  0.89225  0.38326  0.42698  1.0000
  C   C1080     1.0  0.88910  0.39717  0.44122  1.0000
  C   C1081     1.0  0.89002  0.41795  0.43473  1.0000
  C   C1082     1.0  0.89377  0.42497  0.41398  1.0000
  C   C1083     1.0  0.89646  0.41113  0.39972  1.0000
  C   C1084     1.0  0.89576  0.39032  0.40623  1.0000
  H   H1732     1.0  0.88600  0.39190  0.45719  1.0000
  H   H1733     1.0  0.88780  0.42865  0.44581  1.0000
  H   H1734     1.0  0.89947  0.41638  0.38370  1.0000
  H   H1735     1.0  0.89817  0.37961  0.39514  1.0000
  C   C1085     1.0  0.96398  0.54942  0.37029  1.0000
  C   C1086     1.0  0.95348  0.53274  0.37822  1.0000
  C   C1087     1.0  0.93755  0.52811  0.36866  1.0000
  C   C1088     1.0  0.93175  0.54042  0.35133  1.0000
  C   C1089     1.0  0.94220  0.55715  0.34342  1.0000
  C   C1090     1.0  0.95848  0.56146  0.35266  1.0000
  H   H1736     1.0  0.95765  0.52336  0.39185  1.0000
  H   H1737     1.0  0.92959  0.51518  0.37487  1.0000
  H   H1738     1.0  0.93787  0.56665  0.32991  1.0000
  H   H1739     1.0  0.96659  0.57421  0.34628  1.0000
  C   C1091     1.0  0.62666  0.34247  0.39704  1.0000
  C   C1092     1.0  0.90391  0.41494  0.27269  1.0000
  C   C1093     1.0  0.90629  0.42790  0.28690  1.0000
  C   C1094     1.0  0.92304  0.43888  0.28381  1.0000
  C   C1095     1.0  0.93718  0.43695  0.26642  1.0000
  H   H1740     1.0  0.93660  0.49989  0.28559  1.0000
  H   H1741     1.0  0.89104  0.40633  0.27520  1.0000
  H   H1742     1.0  0.89536  0.42918  0.30032  1.0000
  H   H1743     1.0  0.95030  0.44520  0.26401  1.0000
  H   H1744     1.0  0.76306  0.43262  0.47741  1.0000
  H   H1745     1.0  0.56250  0.44013  0.28638  1.0000
  C   C1096     1.0  0.60323  0.34702  0.37173  1.0000
  C   C1097     1.0  0.61773  0.35448  0.38091  1.0000
  H   H1746     1.0  0.58418  0.46385  0.26478  1.0000
  H   H1747     1.0  0.62206  0.36947  0.37555  1.0000
  C   C1098     1.0  0.96741  0.37783  0.46826  1.0000
  C   C1099     1.0  0.52476  0.50796  0.32800  1.0000
  C   C1100     1.0  0.53161  0.49038  0.34044  1.0000
  C   C1101     1.0  0.55176  0.48124  0.33701  1.0000
  C   C1102     1.0  0.56525  0.49016  0.32164  1.0000
  C   C1103     1.0  0.55850  0.50787  0.30944  1.0000
  H   H1748     1.0  0.97045  0.62393  0.39346  1.0000
  H   H1749     1.0  0.52115  0.48356  0.35241  1.0000
  H   H1750     1.0  0.58091  0.48351  0.31924  1.0000
  H   H1751     1.0  0.63233  0.61097  0.46968  1.0000
  H   H1752     1.0  0.64156  0.63378  0.45629  1.0000
  H   H1753     1.0  0.63065  0.61734  0.44306  1.0000
  C   C1104     1.0  0.83751  0.46660  0.39973  1.0000
  H   H1754     1.0  0.70469  0.48112  0.45746  1.0000
  C   C1105     1.0  0.68438  0.43642  0.46531  1.0000
  H   H1755     1.0  0.68422  0.33355  0.48218  1.0000
  H   H1756     1.0  0.57750  0.33877  0.45440  1.0000
  H   H1757     1.0  0.97866  0.37096  0.45648  1.0000
  C   C1106     1.0  0.80808  0.45031  0.39740  1.0000
  H   H1758     1.0  0.94073  0.35126  0.47143  1.0000
  C   C1107     1.0  0.77577  0.51489  0.38105  1.0000
  C   C1108     1.0  0.79581  0.51836  0.38214  1.0000
  C   C1109     1.0  0.81232  0.50862  0.37018  1.0000
  C   C1110     1.0  0.80893  0.49522  0.35706  1.0000
  C   C1111     1.0  0.78889  0.49183  0.35589  1.0000
  C   C1112     1.0  0.77238  0.50158  0.36784  1.0000
  H   H1759     1.0  0.79855  0.52875  0.39221  1.0000
  H   H1760     1.0  0.82763  0.51159  0.37105  1.0000
  H   H1761     1.0  0.78610  0.48155  0.34573  1.0000
  H   H1762     1.0  0.75704  0.49888  0.36674  1.0000
  C   C1113     1.0  0.67222  0.49274  0.33976  1.0000
  C   C1114     1.0  0.65582  0.48958  0.33017  1.0000
  C   C1115     1.0  0.65253  0.46978  0.32797  1.0000
  C   C1116     1.0  0.66589  0.45313  0.33495  1.0000
  C   C1117     1.0  0.68279  0.45639  0.34369  1.0000
  C   C1118     1.0  0.68575  0.47613  0.34641  1.0000
  H   H1763     1.0  0.64538  0.50242  0.32488  1.0000
  H   H1764     1.0  0.63959  0.46748  0.32102  1.0000
  H   H1765     1.0  0.69333  0.44360  0.34891  1.0000
  H   H1766     1.0  0.69867  0.47849  0.35344  1.0000
  C   C1119     1.0  0.64253  0.58419  0.41411  1.0000
  C   C1120     1.0  0.65404  0.59858  0.40247  1.0000
  C   C1121     1.0  0.64438  0.61754  0.39465  1.0000
  C   C1122     1.0  0.62316  0.62220  0.39827  1.0000
  C   C1123     1.0  0.61166  0.60754  0.40937  1.0000
  C   C1124     1.0  0.62132  0.58877  0.41750  1.0000
  H   H1767     1.0  0.67044  0.59532  0.40000  1.0000
  H   H1768     1.0  0.65342  0.62876  0.38603  1.0000
  H   H1769     1.0  0.59532  0.61059  0.41171  1.0000
  H   H1770     1.0  0.61230  0.57772  0.42647  1.0000
  C   C1125     1.0  0.69020  0.45487  0.45517  1.0000
  C   C1126     1.0  0.53820  0.51656  0.31234  1.0000
  H   H1771     1.0  0.55453  0.32875  0.46589  1.0000
  C   C1127     1.0  0.91808  0.41308  0.25525  1.0000
  N   N109      1.0  0.64019  0.45047  0.39778  1.0000
  C   C1128     1.0  0.66218  0.44408  0.39293  1.0000
  C   C1129     1.0  0.62936  0.43227  0.40286  1.0000
  C   C1130     1.0  0.63240  0.46319  0.38002  1.0000
  C   C1131     1.0  0.63685  0.46230  0.41529  1.0000
  H   H1772     1.0  0.67085  0.45746  0.38889  1.0000
  H   H1773     1.0  0.66527  0.43492  0.37992  1.0000
  H   H1774     1.0  0.66867  0.43476  0.40613  1.0000
  H   H1775     1.0  0.61265  0.43653  0.40621  1.0000
  H   H1776     1.0  0.63189  0.42287  0.39002  1.0000
  H   H1777     1.0  0.63469  0.42247  0.41637  1.0000
  H   H1778     1.0  0.61600  0.46892  0.38333  1.0000
  H   H1779     1.0  0.63391  0.45440  0.36683  1.0000
  H   H1780     1.0  0.64090  0.47659  0.37517  1.0000
  H   H1781     1.0  0.64271  0.45320  0.42894  1.0000
  H   H1782     1.0  0.62045  0.46747  0.41941  1.0000
  H   H1783     1.0  0.64503  0.47601  0.41198  1.0000
  H   H1784     1.0  0.59256  0.65287  0.48520  1.0000
  H   H1785     1.0  0.63790  0.34830  0.40406  1.0000
  N   N110      1.0  0.55651  0.33650  0.43349  1.0000
  N   N111      1.0  0.63530  0.56964  0.35418  1.0000
  C   C1132     1.0  0.62245  0.58863  0.35896  1.0000
  C   C1133     1.0  0.64645  0.56108  0.37154  1.0000
  C   C1134     1.0  0.65003  0.57404  0.33601  1.0000
  C   C1135     1.0  0.62238  0.55473  0.35027  1.0000
  H   H1786     1.0  0.61358  0.59545  0.34631  1.0000
  H   H1787     1.0  0.63180  0.60025  0.36179  1.0000
  H   H1788     1.0  0.61142  0.58594  0.37284  1.0000
  H   H1789     1.0  0.65694  0.57154  0.37450  1.0000
  H   H1790     1.0  0.63595  0.55794  0.38572  1.0000
  H   H1791     1.0  0.65590  0.54655  0.36864  1.0000
  H   H1792     1.0  0.66003  0.56000  0.33210  1.0000
  H   H1793     1.0  0.66012  0.58513  0.33851  1.0000
  H   H1794     1.0  0.64219  0.58047  0.32254  1.0000
  H   H1795     1.0  0.61120  0.55096  0.36376  1.0000
  H   H1796     1.0  0.63173  0.54024  0.34662  1.0000
  H   H1797     1.0  0.61369  0.56064  0.33725  1.0000
  N   N112      1.0  0.96178  0.50290  0.30131  1.0000
  C   C1136     1.0  0.61446  0.43524  0.24472  1.0000
  H   H1798     1.0  0.52121  0.59003  0.37209  1.0000
  C   C1137     1.0  0.56541  0.35159  0.41771  1.0000
  H   H1799     1.0  0.65244  0.43632  0.29002  1.0000
  H   H1800     1.0  0.93451  0.52333  0.29674  1.0000
  H   H1801     1.0  0.64946  0.40929  0.27013  1.0000
  C   C1138     1.0  0.59319  0.62148  0.46423  1.0000
  C   C1139     1.0  0.49536  0.62476  0.33996  1.0000
  C   C1140     1.0  0.94716  0.39654  0.44300  1.0000
  H   H1802     1.0  0.93644  0.59354  0.37436  1.0000
  H   H1803     1.0  0.52689  0.35382  0.43612  1.0000
  C   C1141     1.0  0.53459  0.48421  0.27014  1.0000
  H   H1804     1.0  0.89284  0.45795  0.25507  1.0000
  C   C1142     1.0  0.94044  0.36280  0.45781  1.0000
  H   H1805     1.0  0.67624  0.44570  0.28975  1.0000
  H   H1806     1.0  0.53478  0.49222  0.28359  1.0000
  H   H1807     1.0  0.93343  0.62875  0.35612  1.0000
  H   H1808     1.0  0.95047  0.35611  0.44510  1.0000
  H   H1809     1.0  0.56301  0.44427  0.24930  1.0000
  H   H1810     1.0  0.59373  0.61430  0.45011  1.0000
  H   H1811     1.0  0.75291  0.39777  0.48097  1.0000
  C   C1143     1.0  0.53428  0.33837  0.43322  1.0000
  H   H1812     1.0  0.50689  0.59316  0.33961  1.0000
  S   S466      1.0  0.49503  0.58416  0.28296  1.0000
  C   C1144     1.0  0.94332  0.63281  0.36662  1.0000
  H   H1813     1.0  0.53585  0.45008  0.25251  1.0000
  C   C1145     1.0  0.51276  0.62156  0.37619  1.0000
  N   N113      1.0  0.94081  0.62049  0.38670  1.0000
  H   H1814     1.0  0.69251  0.41154  0.29971  1.0000
  H   H1815     1.0  0.51955  0.47843  0.27183  1.0000
  C   C1146     1.0  0.62602  0.44950  0.24931  1.0000
  N   N114      1.0  0.60895  0.63534  0.46223  1.0000
  C   C1147     1.0  0.93470  0.42418  0.25220  1.0000
  H   H1816     1.0  0.50289  0.62322  0.25213  1.0000
  H   H1817     1.0  0.91704  0.61472  0.41106  1.0000
  C   C1148     1.0  0.50554  0.60625  0.34763  1.0000
  H   H1818     1.0  0.92471  0.36520  0.45367  1.0000
  H   H1819     1.0  0.66866  0.32833  0.43176  1.0000
  H   H1820     1.0  0.62549  0.45242  0.26485  1.0000
  H   H1821     1.0  0.69131  0.39103  0.28525  1.0000
  C   C1149     1.0  0.66440  0.41176  0.26108  1.0000
  H   H1822     1.0  0.55405  0.35545  0.45741  1.0000
  H   H1823     1.0  0.95150  0.41140  0.44547  1.0000
  Fe  Fe234     1.0  0.49851  0.55363  0.30151  1.0000
  H   H1824     1.0  0.66906  0.40142  0.30044  1.0000
  C   C1150     1.0  0.51393  0.60457  0.36587  1.0000
  H   H1825     1.0  0.94501  0.58886  0.39901  1.0000
  C   C1151     1.0  0.57113  0.47604  0.26585  1.0000
  H   H1826     1.0  0.95091  0.64295  0.40188  1.0000
  H   H1827     1.0  0.97151  0.50550  0.26919  1.0000
  H   H1828     1.0  0.66320  0.45105  0.26760  1.0000
  H   H1829     1.0  0.55904  0.36741  0.42028  1.0000
  Fe  Fe235     1.0  0.89032  0.34374  0.46758  1.0000
  H   H1830     1.0  0.97283  0.39198  0.47130  1.0000
  C   C1152     1.0  0.95423  0.62649  0.40000  1.0000
  H   H1831     1.0  0.95279  0.61758  0.41531  1.0000
  H   H1832     1.0  0.95928  0.63050  0.35919  1.0000
  C   C1153     1.0  0.94630  0.59874  0.38420  1.0000
  N   N115      1.0  0.82953  0.44685  0.40146  1.0000
  C   C1154     1.0  0.84168  0.43435  0.38646  1.0000
  C   C1155     1.0  0.83097  0.43621  0.42214  1.0000
  H   H1833     1.0  0.80136  0.43579  0.39900  1.0000
  H   H1834     1.0  0.80675  0.45780  0.38165  1.0000
  H   H1835     1.0  0.85805  0.43198  0.38870  1.0000
  H   H1836     1.0  0.83646  0.41911  0.38759  1.0000
  H   H1837     1.0  0.84707  0.43343  0.42546  1.0000
  H   H1838     1.0  0.82521  0.42115  0.42399  1.0000
  H   H1839     1.0  0.82210  0.44532  0.43381  1.0000
  H   H1840     1.0  0.85336  0.46471  0.40356  1.0000
  H   H1841     1.0  0.82807  0.47701  0.40992  1.0000
  N   N116      1.0  0.94687  0.38200  0.46176  1.0000
  H   H1842     1.0  0.67654  0.42715  0.45773  1.0000
  H   H1843     1.0  0.55144  0.46044  0.30091  1.0000
  C   C1156     1.0  0.93993  0.50676  0.29879  1.0000
  H   H1844     1.0  0.50038  0.63114  0.27696  1.0000
  C   C1157     1.0  0.60783  0.64425  0.48141  1.0000
  Fe  Fe236     1.0  0.57842  0.65684  0.40007  1.0000
  H   H1845     1.0  0.95610  0.50568  0.33326  1.0000
  H   H1846     1.0  0.50905  0.51460  0.33028  1.0000
  H   H1847     1.0  0.96932  0.52882  0.28026  1.0000
  H   H1848     1.0  0.58222  0.35035  0.41739  1.0000
  H   H1849     1.0  0.95807  0.39056  0.43046  1.0000
  H   H1850     1.0  0.93049  0.50006  0.31238  1.0000
  C   C1158     1.0  0.70019  0.46685  0.46515  1.0000
  H   H1851     1.0  0.61932  0.65501  0.48036  1.0000
  H   H1852     1.0  0.98445  0.47719  0.30641  1.0000
  C   C1159     1.0  0.96527  0.51201  0.31921  1.0000
  H   H1853     1.0  0.91480  0.64017  0.39806  1.0000
  C   C1160     1.0  0.93243  0.39070  0.47803  1.0000
  H   H1854     1.0  0.96752  0.36698  0.48250  1.0000
  C   C1161     1.0  0.56083  0.34007  0.45367  1.0000
  C   C1162     1.0  0.59781  0.32750  0.37870  1.0000
  H   H1855     1.0  0.98152  0.50924  0.32185  1.0000
  H   H1856     1.0  0.70677  0.43151  0.26793  1.0000
  S   S467      1.0  0.52984  0.53686  0.29479  1.0000
  H   H1857     1.0  0.57262  0.48415  0.27884  1.0000
  C   C1163     1.0  0.69644  0.42501  0.25955  1.0000
  C   C1164     1.0  0.68292  0.40539  0.29024  1.0000
  N   N117      1.0  0.55153  0.46757  0.26855  1.0000
  H   H1858     1.0  0.56896  0.51471  0.29750  1.0000
  H   H1859     1.0  0.96228  0.59569  0.37712  1.0000
  H   H1860     1.0  0.91681  0.39421  0.47357  1.0000
  H   H1861     1.0  0.67153  0.39689  0.25623  1.0000
  H   H1862     1.0  0.56245  0.34935  0.40224  1.0000
  H   H1863     1.0  0.83776  0.47443  0.38401  1.0000
  C   C1165     1.0  0.91943  0.62390  0.39594  1.0000
  C   C1166     1.0  0.66691  0.43919  0.28031  1.0000
  H   H1864     1.0  0.79854  0.46043  0.40784  1.0000
  C   C1167     1.0  0.55015  0.45306  0.28730  1.0000
  N   N118      1.0  0.67765  0.42033  0.27279  1.0000
  H   H1865     1.0  0.90893  0.61948  0.38624  1.0000
  H   H1866     1.0  0.84056  0.44180  0.37064  1.0000
  H   H1867     1.0  0.93977  0.64937  0.36791  1.0000
  C   C1168     1.0  0.62926  0.62387  0.45768  1.0000
  H   H1868     1.0  0.53544  0.44656  0.29005  1.0000
  C   C1169     1.0  0.67848  0.32952  0.44360  1.0000
  S   S468      1.0  0.98323  0.55522  0.38334  1.0000
  C   C1170     1.0  0.96809  0.48074  0.30431  1.0000
  C   C1171     1.0  0.97377  0.51210  0.28297  1.0000
  H   H1869     1.0  0.53052  0.33546  0.41828  1.0000
  H   H1870     1.0  0.57281  0.48697  0.25180  1.0000
  H   H1871     1.0  0.67651  0.34571  0.44651  1.0000
  H   H1872     1.0  0.96559  0.47333  0.29110  1.0000
  H   H1873     1.0  0.60532  0.64563  0.43105  1.0000
  H   H1874     1.0  0.93695  0.40505  0.48165  1.0000
  H   H1875     1.0  0.64944  0.33728  0.47562  1.0000
  H   H1876     1.0  0.51027  0.64728  0.25521  1.0000
  S   S469      1.0  0.98836  0.65663  0.36732  1.0000
  H   H1877     1.0  0.59521  0.60899  0.47684  1.0000
  H   H1878     1.0  0.53545  0.49584  0.25658  1.0000
  C   C1172     1.0  0.50385  0.64047  0.36784  1.0000
  H   H1879     1.0  0.78881  0.40213  0.48235  1.0000
  H   H1880     1.0  0.57763  0.62974  0.46730  1.0000
  C   C1173     1.0  0.55033  0.45688  0.25093  1.0000
  C   C1174     1.0  0.49495  0.64202  0.34980  1.0000
  C   C1175     1.0  0.60541  0.65182  0.44556  1.0000
  H   H1881     1.0  0.66120  0.42205  0.24707  1.0000
  H   H1882     1.0  0.88286  0.48431  0.25164  1.0000
  C   C1176     1.0  0.88237  0.46928  0.24650  1.0000
  H   H1883     1.0  0.99034  0.50957  0.28439  1.0000
  H   H1884     1.0  0.52719  0.32719  0.44510  1.0000
  H   H1885     1.0  0.69295  0.43631  0.24626  1.0000
  C   C1177     1.0  0.49878  0.63660  0.26070  1.0000
  C   C1178     1.0  0.68848  0.42996  0.48532  1.0000
  C   C1179     1.0  0.70436  0.46034  0.48518  1.0000
  H   H1886     1.0  0.86674  0.46502  0.25113  1.0000
  H   H1887     1.0  0.99354  0.64606  0.41027  1.0000
  H   H1888     1.0  0.49728  0.59209  0.23981  1.0000
  Fe  Fe237     1.0  0.57167  0.38886  0.66642  1.0000
  S   S470      1.0  0.54680  0.37687  0.65427  1.0000
  S   S471      1.0  0.59252  0.40616  0.64268  1.0000
  Fe  Fe238     1.0  0.55394  0.37668  0.71046  1.0000
  S   S472      1.0  0.52753  0.36416  0.70149  1.0000
  Fe  Fe239     1.0  0.55095  0.35055  0.67830  1.0000
  H   H1889     1.0  0.60799  0.37505  0.56666  1.0000
  Fe  Fe240     1.0  0.52571  0.39173  0.67839  1.0000
  H   H1890     1.0  0.95857  0.35063  0.72983  1.0000
  S   S473      1.0  0.57777  0.36106  0.68865  1.0000
  S   S474      1.0  0.55018  0.40572  0.68916  1.0000
  Fe  Fe241     1.0  0.67461  0.36698  0.52926  1.0000
  S   S475      1.0  0.66898  0.39253  0.54846  1.0000
  C   C1180     1.0  0.64222  0.33531  0.52012  1.0000
  Fe  Fe242     1.0  0.71990  0.35836  0.53437  1.0000
  S   S476      1.0  0.71764  0.38275  0.55478  1.0000
  H   H1891     1.0  0.77091  0.44183  0.49879  1.0000
  Fe  Fe243     1.0  0.68799  0.37154  0.56934  1.0000
  S   S477      1.0  0.67683  0.36364  0.60270  1.0000
  Fe  Fe244     1.0  0.69860  0.40146  0.53209  1.0000
  S   S478      1.0  0.70454  0.43359  0.52013  1.0000
  S   S479      1.0  0.69208  0.34528  0.55090  1.0000
  S   S480      1.0  0.70251  0.37771  0.51090  1.0000
  C   C1181     1.0  0.96447  0.37983  0.73613  1.0000
  H   H1892     1.0  0.52714  0.43277  0.65184  1.0000
  C   C1182     1.0  0.94190  0.39431  0.63452  1.0000
  H   H1893     1.0  0.90604  0.38351  0.65314  1.0000
  C   C1183     1.0  0.61081  0.34916  0.60082  1.0000
  H   H1894     1.0  0.50083  0.46886  0.69845  1.0000
  N   N119      1.0  0.93727  0.38553  0.65590  1.0000
  H   H1895     1.0  0.96567  0.39116  0.66421  1.0000
  C   C1184     1.0  0.62336  0.33094  0.51626  1.0000
  H   H1896     1.0  0.93485  0.35602  0.64765  1.0000
  C   C1185     1.0  0.95679  0.35272  0.57599  1.0000
  H   H1897     1.0  0.55178  0.42376  0.64011  1.0000
  H   H1898     1.0  0.56000  0.46873  0.66372  1.0000
  H   H1899     1.0  0.53312  0.43735  0.62483  1.0000
  C   C1186     1.0  0.96816  0.34297  0.54219  1.0000
  C   C1187     1.0  0.69857  0.44184  0.49528  1.0000
  H   H1900     1.0  0.61155  0.36527  0.60283  1.0000
  C   C1188     1.0  0.97385  0.39726  0.72879  1.0000
  H   H1901     1.0  0.51680  0.46980  0.65229  1.0000
  H   H1902     1.0  0.61192  0.34316  0.51171  1.0000
  H   H1903     1.0  0.94521  0.41119  0.66801  1.0000
  S   S481      1.0  0.49589  0.40694  0.66860  1.0000
  H   H1904     1.0  0.64976  0.33878  0.58643  1.0000
  C   C1189     1.0  0.98836  0.38172  0.69816  1.0000
  H   H1905     1.0  0.95946  0.35939  0.65314  1.0000
  C   C1190     1.0  0.77298  0.34411  0.52331  1.0000
  C   C1191     1.0  0.94794  0.34349  0.53838  1.0000
  H   H1906     1.0  0.93959  0.35603  0.67356  1.0000
  C   C1192     1.0  0.81321  0.35056  0.52646  1.0000
  C   C1193     1.0  0.79701  0.35726  0.54066  1.0000
  C   C1194     1.0  0.77696  0.35408  0.53908  1.0000
  H   H1907     1.0  0.52373  0.47442  0.62543  1.0000
  H   H1908     1.0  0.91137  0.38366  0.67868  1.0000
  H   H1909     1.0  0.80002  0.36476  0.55305  1.0000
  H   H1910     1.0  0.76464  0.35896  0.55031  1.0000
  C   C1195     1.0  0.60689  0.35882  0.56539  1.0000
  S   S482      1.0  0.74814  0.33941  0.52098  1.0000
  C   C1196     1.0  0.55428  0.45443  0.66156  1.0000
  C   C1197     1.0  0.93214  0.34850  0.55353  1.0000
  C   C1198     1.0  0.49851  0.44123  0.68612  1.0000
  H   H1911     1.0  0.92423  0.35745  0.58366  1.0000
  N   N120      1.0  0.54668  0.45599  0.64165  1.0000
  Fe  Fe245     1.0  0.86578  0.34147  0.50919  1.0000
  H   H1912     1.0  0.71202  0.46969  0.49286  1.0000
  H   H1913     1.0  0.91651  0.34906  0.55077  1.0000
  C   C1199     1.0  0.56338  0.46012  0.62529  1.0000
  Fe  Fe246     1.0  0.91237  0.33456  0.50542  1.0000
  C   C1200     1.0  0.98569  0.39822  0.70970  1.0000
  H   H1914     1.0  0.56706  0.44192  0.66307  1.0000
  C   C1201     1.0  0.49537  0.36276  0.64707  1.0000
  S   S483      1.0  0.94325  0.33822  0.51435  1.0000
  H   H1915     1.0  0.68352  0.41594  0.49310  1.0000
  C   C1202     1.0  0.94293  0.36327  0.65765  1.0000
  H   H1916     1.0  0.57640  0.44777  0.62604  1.0000
  C   C1203     1.0  0.94902  0.39440  0.66886  1.0000
  H   H1917     1.0  0.78619  0.32963  0.49692  1.0000
  C   C1204     1.0  0.78918  0.33736  0.50916  1.0000
  H   H1918     1.0  0.55830  0.46120  0.61002  1.0000
  H   H1919     1.0  0.51131  0.43276  0.69291  1.0000
  H   H1920     1.0  0.91050  0.40677  0.66145  1.0000
  C   C1205     1.0  0.93657  0.35327  0.57217  1.0000
  C   C1206     1.0  0.61573  0.39386  0.63163  1.0000
  C   C1207     1.0  0.62459  0.37518  0.64052  1.0000
  C   C1208     1.0  0.64341  0.36616  0.63160  1.0000
  C   C1209     1.0  0.65329  0.37552  0.61355  1.0000
  C   C1210     1.0  0.64421  0.39400  0.60448  1.0000
  C   C1211     1.0  0.62560  0.40321  0.61359  1.0000
  H   H1921     1.0  0.61719  0.36790  0.65449  1.0000
  H   H1922     1.0  0.65039  0.35191  0.63876  1.0000
  H   H1923     1.0  0.65178  0.40150  0.59074  1.0000
  H   H1924     1.0  0.61893  0.41771  0.60668  1.0000
  H   H1925     1.0  0.76140  0.39551  0.53475  1.0000
  H   H1926     1.0  0.50649  0.37386  0.64194  1.0000
  C   C1212     1.0  0.53936  0.43664  0.63947  1.0000
  H   H1927     1.0  0.95835  0.39094  0.62893  1.0000
  H   H1928     1.0  0.93161  0.37991  0.49230  1.0000
  S   S484      1.0  0.89014  0.36075  0.49424  1.0000
  S   S485      1.0  0.83820  0.35442  0.52929  1.0000
  C   C1213     1.0  0.52975  0.47267  0.64031  1.0000
  C   C1214     1.0  0.97259  0.34746  0.56093  1.0000
  S   S486      1.0  0.96151  0.35927  0.59951  1.0000
  H   H1929     1.0  0.56932  0.47461  0.62644  1.0000
  H   H1930     1.0  0.93798  0.41111  0.63256  1.0000
  H   H1931     1.0  0.93339  0.38786  0.62426  1.0000
  H   H1932     1.0  0.74349  0.41777  0.53115  1.0000
  H   H1933     1.0  0.64683  0.34539  0.56001  1.0000
  S   S487      1.0  0.98049  0.34368  0.69128  1.0000
  H   H1934     1.0  0.53457  0.48747  0.64228  1.0000
  C   C1215     1.0  0.80919  0.34071  0.51061  1.0000
  H   H1935     1.0  0.94602  0.38797  0.68509  1.0000
  H   H1936     1.0  0.54208  0.45132  0.67429  1.0000
  H   H1937     1.0  0.61984  0.33951  0.61212  1.0000
  H   H1938     1.0  0.50348  0.34729  0.64527  1.0000
  N   N121      1.0  0.61873  0.34504  0.57987  1.0000
  C   C1216     1.0  0.91531  0.39008  0.66258  1.0000
  C   C1217     1.0  0.75941  0.41114  0.52660  1.0000
  C   C1218     1.0  0.64029  0.34857  0.57558  1.0000
  H   H1939     1.0  0.59053  0.35654  0.56806  1.0000
  S   S488      1.0  0.64750  0.36054  0.51592  1.0000
  H   H1940     1.0  0.76963  0.42026  0.53229  1.0000
  H   H1941     1.0  0.98821  0.34737  0.56351  1.0000
  H   H1942     1.0  0.98049  0.33925  0.53051  1.0000
  H   H1943     1.0  0.99297  0.41167  0.70390  1.0000
  Fe  Fe247     1.0  0.99034  0.34932  0.61458  1.0000
  H   H1944     1.0  0.64214  0.36461  0.57675  1.0000
  H   H1945     1.0  0.79590  0.41065  0.50443  1.0000
  H   H1946     1.0  0.82148  0.33562  0.49952  1.0000
  H   H1947     1.0  0.49504  0.37769  0.60738  1.0000
  H   H1948     1.0  0.61263  0.35628  0.54942  1.0000
  H   H1949     1.0  0.57281  0.33391  0.73208  1.0000
  C   C1219     1.0  0.97857  0.36448  0.70537  1.0000
  H   H1950     1.0  0.59468  0.34623  0.60483  1.0000
  C   C1220     1.0  0.96652  0.36371  0.72430  1.0000
  H   H1951     1.0  0.51310  0.32594  0.69500  1.0000
  H   H1952     1.0  0.74468  0.43928  0.49828  1.0000
  N   N122      1.0  0.76368  0.41103  0.50436  1.0000
  C   C1221     1.0  0.76054  0.43211  0.49423  1.0000
  H   H1953     1.0  0.75111  0.38291  0.50548  1.0000
  H   H1954     1.0  0.73368  0.40542  0.50072  1.0000
  C   C1222     1.0  0.74978  0.39872  0.49758  1.0000
  C   C1223     1.0  0.78494  0.40214  0.49904  1.0000
  H   H1955     1.0  0.78757  0.38608  0.50606  1.0000
  H   H1956     1.0  0.61052  0.63228  0.49435  1.0000
  H   H1957     1.0  0.49512  0.62660  0.59224  1.0000
  H   H1958     1.0  0.87740  0.47828  0.88773  1.0000
  C   C1224     1.0  0.54158  0.34888  0.79929  1.0000
  S   S489      1.0  0.59415  0.36453  0.96599  1.0000
  H   H1959     1.0  0.87231  0.59133  0.98439  1.0000
  H   H1960     1.0  0.54584  0.34816  0.81439  1.0000
  H   H1961     1.0  0.88521  0.47297  0.93187  1.0000
  H   H1962     1.0  0.96999  0.37023  0.89056  1.0000
  H   H1963     1.0  0.66600  0.38734  0.94459  1.0000
  H   H1964     1.0  0.81791  0.50194  0.97231  1.0000
  H   H1965     1.0  0.69246  0.38377  0.97895  1.0000
  S   S490      1.0  0.52755  0.35099  0.85999  1.0000
  Fe  Fe248     1.0  0.82977  0.40884  0.91679  1.0000
  S   S491      1.0  0.84892  0.39470  0.94111  1.0000
  S   S492      1.0  0.84346  0.41946  0.88461  1.0000
  Fe  Fe249     1.0  0.78991  0.40683  0.94565  1.0000
  H   H1966     1.0  0.76718  0.34204  0.95780  1.0000
  S   S493      1.0  0.75567  0.41335  0.95347  1.0000
  Fe  Fe250     1.0  0.82856  0.41562  0.96096  1.0000
  H   H1967     1.0  0.56343  0.36919  0.78555  1.0000
  Fe  Fe251     1.0  0.82513  0.37361  0.94997  1.0000
  S   S494      1.0  0.83254  0.34020  0.95968  1.0000
  S   S495      1.0  0.81067  0.43131  0.93613  1.0000
  S   S496      1.0  0.80724  0.38582  0.92406  1.0000
  Fe  Fe252     1.0  0.97064  0.40951  0.77683  1.0000
  H   H1968     1.0  0.76774  0.37396  0.98600  1.0000
  Fe  Fe253     1.0  0.66653  0.34767  0.98269  1.0000
  Fe  Fe254     1.0  0.95697  0.40818  0.82279  1.0000
  S   S497      1.0  0.84309  0.42884  0.98391  1.0000
  S   S498      1.0  0.93840  0.41097  0.85375  1.0000
  H   H1969     1.0  0.89294  0.45689  0.89937  1.0000
  H   H1970     1.0  0.87961  0.43713  0.93076  1.0000
  Fe  Fe255     1.0  0.98466  0.37325  0.80564  1.0000
  H   H1971     1.0  0.49889  0.38716  0.83968  1.0000
  S   S499      1.0  0.97097  0.43177  0.79931  1.0000
  S   S500      1.0  0.95362  0.38775  0.79958  1.0000
  S   S501      1.0  0.80646  0.39307  0.97201  1.0000
  C   C1225     1.0  0.52637  0.33778  0.79600  1.0000
  C   C1226     1.0  0.59585  0.32707  0.92254  1.0000
  H   H1972     1.0  0.66681  0.40508  0.92194  1.0000
  H   H1973     1.0  0.97261  0.33608  0.85099  1.0000
  C   C1227     1.0  0.86979  0.41482  0.87575  1.0000
  C   C1228     1.0  0.87656  0.42013  0.85510  1.0000
  C   C1229     1.0  0.89750  0.41822  0.84785  1.0000
  C   C1230     1.0  0.91187  0.41142  0.86132  1.0000
  C   C1231     1.0  0.90508  0.40602  0.88193  1.0000
  C   C1232     1.0  0.88419  0.40741  0.88906  1.0000
  H   H1974     1.0  0.86556  0.42593  0.84468  1.0000
  H   H1975     1.0  0.90251  0.42258  0.83198  1.0000
  H   H1976     1.0  0.91608  0.40075  0.89248  1.0000
  H   H1977     1.0  0.87932  0.40300  0.90492  1.0000
  H   H1978     1.0  0.64152  0.34941  0.92370  1.0000
  S   S502      1.0  0.97026  0.41815  0.74297  1.0000
  C   C1233     1.0  0.86399  0.44313  0.92719  1.0000
  H   H1979     1.0  0.82257  0.46629  0.96385  1.0000
  C   C1234     1.0  0.55152  0.36078  0.78294  1.0000
  H   H1980     1.0  0.68302  0.38119  0.92278  1.0000
  H   H1981     1.0  0.85906  0.43224  0.91834  1.0000
  C   C1235     1.0  0.96536  0.36001  0.88072  1.0000
  H   H1982     1.0  0.83129  0.47121  0.92521  1.0000
  C   C1236     1.0  0.71163  0.36544  0.95808  1.0000
  C   C1237     1.0  0.73014  0.36360  0.94528  1.0000
  C   C1238     1.0  0.74382  0.37814  0.94375  1.0000
  C   C1239     1.0  0.73893  0.39480  0.95481  1.0000
  C   C1240     1.0  0.72023  0.39682  0.96730  1.0000
  Fe  Fe256     1.0  0.49834  0.35258  0.88128  1.0000
  N   N123      1.0  0.65156  0.37900  0.92068  1.0000
  H   H1983     1.0  0.75802  0.37663  0.93382  1.0000
  S   S503      1.0  0.64364  0.37525  0.98325  1.0000
  H   H1984     1.0  0.83699  0.45991  0.90196  1.0000
  C   C1241     1.0  0.58850  0.35271  0.94582  1.0000
  C   C1242     1.0  0.57118  0.36072  0.93637  1.0000
  C   C1243     1.0  0.56605  0.35184  0.92022  1.0000
  Fe  Fe257     1.0  0.54010  0.32770  0.88404  1.0000
  H   H1985     1.0  0.56161  0.37386  0.94161  1.0000
  H   H1986     1.0  0.96497  0.36860  0.86528  1.0000
  H   H1987     1.0  0.66951  0.37331  0.89238  1.0000
  H   H1988     1.0  0.94947  0.35713  0.88653  1.0000
  S   S504      1.0  0.55975  0.37615  0.74300  1.0000
  C   C1244     1.0  0.54629  0.36173  0.76323  1.0000
  C   C1245     1.0  0.53095  0.35076  0.75998  1.0000
  C   C1246     1.0  0.78042  0.34188  0.96615  1.0000
  C   C1247     1.0  0.82797  0.46970  0.97732  1.0000
  C   C1248     1.0  0.66750  0.38862  0.92773  1.0000
  H   H1989     1.0  0.85383  0.44304  0.94184  1.0000
  C   C1249     1.0  0.65315  0.35725  0.92886  1.0000
  S   S505      1.0  0.64320  0.32660  0.98183  1.0000
  C   C1250     1.0  0.84220  0.47052  0.91108  1.0000
  H   H1990     1.0  0.62853  0.38807  0.94467  1.0000
  C   C1251     1.0  0.63124  0.38913  0.92782  1.0000
  H   H1991     1.0  0.65083  0.35533  0.94571  1.0000
  H   H1992     1.0  0.73395  0.35087  0.93652  1.0000
  H   H1993     1.0  0.65332  0.39714  0.89156  1.0000
  H   H1994     1.0  0.78796  0.35563  0.95989  1.0000
  S   S506      1.0  0.69500  0.34671  0.95979  1.0000
  H   H1995     1.0  0.52665  0.35151  0.74494  1.0000
  C   C1252     1.0  0.84846  0.33739  0.97882  1.0000
  H   H1996     1.0  0.95513  0.37903  0.75072  1.0000
  H   H1997     1.0  0.50855  0.36926  0.82204  1.0000
  H   H1998     1.0  0.64255  0.37382  0.89246  1.0000
  H   H1999     1.0  0.62936  0.40556  0.92188  1.0000
  C   C1253     1.0  0.52116  0.33869  0.77628  1.0000
  H   H2000     1.0  0.71626  0.40975  0.97579  1.0000
  C   C1254     1.0  0.65437  0.38091  0.89826  1.0000
  H   H2001     1.0  0.55259  0.35809  0.91315  1.0000
  H   H2002     1.0  0.61884  0.38199  0.92307  1.0000
  H   H2003     1.0  0.85932  0.47835  0.94284  1.0000
  C   C1255     1.0  0.70671  0.38212  0.96910  1.0000
  H   H2004     1.0  0.86880  0.49352  0.92012  1.0000
  H   H2005     1.0  0.50932  0.33021  0.77366  1.0000
  H   H2006     1.0  0.84100  0.48587  0.90222  1.0000
  H   H2007     1.0  0.87229  0.45290  0.88663  1.0000
  S   S507      1.0  0.99097  0.33927  0.80959  1.0000
  C   C1256     1.0  0.87710  0.46297  0.89656  1.0000
  C   C1257     1.0  0.86943  0.47779  0.92815  1.0000
  N   N124      1.0  0.86320  0.46364  0.91573  1.0000
  C   C1258     1.0  0.82533  0.48985  0.98214  1.0000
  H   H2008     1.0  0.66846  0.34918  0.92424  1.0000
  S   S508      1.0  0.98754  0.39214  0.82982  1.0000
  N   N125      1.0  0.97933  0.34084  0.88029  1.0000
  H   H2009     1.0  0.89385  0.57216  0.98184  1.0000
  H   H2010     1.0  0.61416  0.32947  0.94612  1.0000
  C   C1259     1.0  0.60083  0.33580  0.93888  1.0000
  C   C1260     1.0  0.49938  0.38426  0.82363  1.0000
  C   C1261     1.0  0.85251  0.35464  0.98641  1.0000
  C   C1262     1.0  0.57834  0.33492  0.91329  1.0000
  S   S509      1.0  0.51195  0.33133  0.90629  1.0000
  C   C1263     1.0  0.97277  0.32807  0.86668  1.0000
  Fe  Fe258     1.0  0.62017  0.35407  0.98486  1.0000
  C   C1264     1.0  0.97898  0.32978  0.90098  1.0000
  H   H2011     1.0  0.50771  0.39601  0.81381  1.0000
  H   H2012     1.0  0.74619  0.36092  0.98567  1.0000
  H   H2013     1.0  0.84590  0.36957  0.98063  1.0000
  H   H2014     1.0  0.99233  0.44974  0.75416  1.0000
  H   H2015     1.0  0.79148  0.32846  0.96245  1.0000
  H   H2016     1.0  0.98402  0.33886  0.91167  1.0000
  N   N126      1.0  0.77424  0.34133  0.98826  1.0000
  H   H2017     1.0  0.98413  0.32737  0.74613  1.0000
  H   H2018     1.0  0.96348  0.32601  0.90729  1.0000
  Fe  Fe259     1.0  0.87828  0.94747  0.15019  1.0000
  S   S510      1.0  0.84817  0.95477  0.16889  1.0000
  S   S511      1.0  0.89845  0.91918  0.16118  1.0000
  Fe  Fe260     1.0  0.83723  0.96987  0.13957  1.0000
  S   S512      1.0  0.80565  0.97172  0.12941  1.0000
  C   C1265     1.0  0.97739  0.73725  0.13292  1.0000
  S   S513      1.0  0.86664  0.96016  0.12046  1.0000
  C   C1266     1.0  0.52766  0.94928  0.16603  1.0000
  N   N127      1.0  0.60534  0.85047  0.01554  1.0000
  H   H2019     1.0  0.86802  0.95008  0.21908  1.0000
  S   S514      1.0  0.96546  0.86674  0.10670  1.0000
  H   H2020     1.0  0.94496  0.77467  0.13908  1.0000
  H   H2021     1.0  0.96586  0.80277  0.12380  1.0000
  H   H2022     1.0  0.52212  0.95493  0.21631  1.0000
  H   H2023     1.0  0.96075  0.87260  0.14929  1.0000
  Fe  Fe261     1.0  0.95516  0.68884  0.08622  1.0000
  C   C1267     1.0  0.71812  0.96931  0.14225  1.0000
  S   S515      1.0  0.95827  0.72293  0.08192  1.0000
  H   H2024     1.0  0.97394  0.76138  0.07744  1.0000
  H   H2025     1.0  0.91803  0.77865  0.13857  1.0000
  N   N128      1.0  0.54967  0.87224  0.12725  1.0000
  H   H2026     1.0  0.95601  0.97632  0.12571  1.0000
  S   S516      1.0  0.95318  0.67312  0.05884  1.0000
  Fe  Fe262     1.0  0.58205  0.81377  0.07382  1.0000
  S   S517      1.0  0.55367  0.82307  0.05863  1.0000
  S   S518      1.0  0.59480  0.84151  0.08116  1.0000
  Fe  Fe263     1.0  0.57655  0.76856  0.07691  1.0000
  S   S519      1.0  0.54816  0.77464  0.06192  1.0000
  S   S520      1.0  0.58544  0.73623  0.09047  1.0000
  Fe  Fe264     1.0  0.56458  0.79726  0.04042  1.0000
  S   S521      1.0  0.56047  0.80097  0.00730  1.0000
  Fe  Fe265     1.0  0.53964  0.79974  0.08130  1.0000
  S   S522      1.0  0.50706  0.80511  0.09462  1.0000
  S   S523      1.0  0.59430  0.78933  0.05358  1.0000
  S   S524      1.0  0.56677  0.79232  0.09822  1.0000
  Fe  Fe266     1.0  0.72312  0.91685  0.09315  1.0000
  S   S525      1.0  0.70625  0.94810  0.08680  1.0000
  S   S526      1.0  0.75208  0.90732  0.10822  1.0000
  Fe  Fe267     1.0  0.69158  0.89585  0.07603  1.0000
  S   S527      1.0  0.67271  0.92541  0.06773  1.0000
  S   S528      1.0  0.68561  0.86432  0.07081  1.0000
  Fe  Fe268     1.0  0.70235  0.93802  0.05697  1.0000
  S   S529      1.0  0.71070  0.95494  0.02606  1.0000
  Fe  Fe269     1.0  0.67808  0.93290  0.09810  1.0000
  S   S530      1.0  0.65151  0.94078  0.12110  1.0000
  S   S531      1.0  0.72105  0.90768  0.06261  1.0000
  S   S532      1.0  0.69516  0.90256  0.10711  1.0000
  C   C1268     1.0  0.88095  0.94296  0.20901  1.0000
  H   H2027     1.0  0.91043  0.96736  0.10362  1.0000
  C   C1269     1.0  0.59195  0.83789  0.00833  1.0000
  Fe  Fe270     1.0  0.87597  0.98971  0.12630  1.0000
  S   S533      1.0  0.98169  0.66733  0.09568  1.0000
  C   C1270     1.0  0.62029  0.84715  0.07845  1.0000
  C   C1271     1.0  0.63699  0.83283  0.07360  1.0000
  C   C1272     1.0  0.65691  0.83828  0.07124  1.0000
  C   C1273     1.0  0.66034  0.85799  0.07387  1.0000
  C   C1274     1.0  0.64362  0.87223  0.07881  1.0000
  C   C1275     1.0  0.62374  0.86682  0.08106  1.0000
  H   H2028     1.0  0.63460  0.81755  0.07178  1.0000
  H   H2029     1.0  0.66973  0.82711  0.06751  1.0000
  H   H2030     1.0  0.64601  0.88743  0.08094  1.0000
  H   H2031     1.0  0.61099  0.87803  0.08488  1.0000
  H   H2032     1.0  0.49972  0.71052  0.01124  1.0000
  C   C1276     1.0  0.51980  0.80256  0.02126  1.0000
  H   H2033     1.0  0.61289  0.82848  0.04070  1.0000
  C   C1277     1.0  0.93180  0.81197  0.14836  1.0000
  H   H2034     1.0  0.52397  0.80425  0.03589  1.0000
  H   H2035     1.0  0.93422  0.89289  0.17023  1.0000
  H   H2036     1.0  0.53591  0.75892  0.00861  1.0000
  C   C1278     1.0  0.53011  0.75044  0.11770  1.0000
  C   C1279     1.0  0.50523  0.81476  0.11784  1.0000
  C   C1280     1.0  0.51968  0.80765  0.13116  1.0000
  C   C1281     1.0  0.51856  0.81588  0.14943  1.0000
  H   H2037     1.0  0.93496  0.77698  0.11533  1.0000
  H   H2038     1.0  0.53169  0.79576  0.12751  1.0000
  H   H2039     1.0  0.52986  0.81049  0.15963  1.0000
  H   H2040     1.0  0.94878  0.93120  0.12978  1.0000
  C   C1282     1.0  0.63552  0.96429  0.15067  1.0000
  C   C1283     1.0  0.65034  0.96207  0.13394  1.0000
  H   H2041     1.0  0.60267  0.87342  0.03569  1.0000
  C   C1284     1.0  0.59296  0.86454  0.02894  1.0000
  H   H2042     1.0  0.62485  0.95322  0.15509  1.0000
  H   H2043     1.0  0.58199  0.87546  0.02062  1.0000
  H   H2044     1.0  0.72078  0.93360  0.12790  1.0000
  H   H2045     1.0  0.95451  0.80499  0.10077  1.0000
  S   S534      1.0  0.51603  0.93950  0.14804  1.0000
  C   C1285     1.0  0.54552  0.68994  0.07804  1.0000
  C   C1286     1.0  0.55501  0.68673  0.09573  1.0000
  C   C1287     1.0  0.56775  0.70069  0.09923  1.0000
  C   C1288     1.0  0.57088  0.71793  0.08516  1.0000
  C   C1289     1.0  0.56177  0.72076  0.06729  1.0000
  C   C1290     1.0  0.54924  0.70679  0.06374  1.0000
  H   H2046     1.0  0.57494  0.69828  0.11300  1.0000
  H   H2047     1.0  0.56472  0.73352  0.05600  1.0000
  H   H2048     1.0  0.54240  0.70896  0.04985  1.0000
  C   C1291     1.0  0.51205  0.72091  0.12334  1.0000
  C   C1292     1.0  0.54489  0.95944  0.15968  1.0000
  C   C1293     1.0  0.97501  0.75452  0.09291  1.0000
  C   C1294     1.0  0.96868  0.73520  0.09925  1.0000
  C   C1295     1.0  0.97026  0.72646  0.11924  1.0000
  H   H2049     1.0  0.91982  0.95415  0.23159  1.0000
  S   S535      1.0  0.89015  0.97615  0.15440  1.0000
  C   C1296     1.0  0.94944  0.96811  0.08935  1.0000
  H   H2050     1.0  0.96547  0.71160  0.12435  1.0000
  H   H2051     1.0  0.91726  0.80879  0.15774  1.0000
  C   C1297     1.0  0.79199  0.95323  0.12260  1.0000
  C   C1298     1.0  0.77487  0.95994  0.11234  1.0000
  C   C1299     1.0  0.76294  0.94602  0.10730  1.0000
  C   C1300     1.0  0.76772  0.92518  0.11288  1.0000
  C   C1301     1.0  0.78487  0.91839  0.12308  1.0000
  C   C1302     1.0  0.79704  0.93232  0.12782  1.0000
  H   H2052     1.0  0.77090  0.97606  0.10816  1.0000
  H   H2053     1.0  0.75000  0.95146  0.09919  1.0000
  H   H2054     1.0  0.78873  0.90230  0.12747  1.0000
  H   H2055     1.0  0.81010  0.92694  0.13580  1.0000
  C   C1303     1.0  0.91666  0.90466  0.14560  1.0000
  C   C1304     1.0  0.91521  0.90443  0.12501  1.0000
  C   C1305     1.0  0.93027  0.89279  0.11314  1.0000
  C   C1306     1.0  0.94674  0.88121  0.12183  1.0000
  C   C1307     1.0  0.94806  0.88134  0.14244  1.0000
  C   C1308     1.0  0.93303  0.89293  0.15428  1.0000
  H   H2056     1.0  0.90233  0.91296  0.11832  1.0000
  H   H2057     1.0  0.92908  0.89260  0.09723  1.0000
  H   H2058     1.0  0.53867  0.86165  0.10239  1.0000
  S   S536      1.0  0.93196  0.67116  0.10620  1.0000
  C   C1309     1.0  0.63442  0.98073  0.16177  1.0000
  H   H2059     1.0  0.69438  0.94240  0.13431  1.0000
  C   C1310     1.0  0.52859  0.95613  0.20053  1.0000
  H   H2060     1.0  0.53354  0.89851  0.14017  1.0000
  H   H2061     1.0  0.68322  0.95982  0.16459  1.0000
  H   H2062     1.0  0.67512  0.97505  0.11488  1.0000
  C   C1311     1.0  0.91610  0.92829  0.20520  1.0000
  H   H2063     1.0  0.98353  0.70489  0.05206  1.0000
  C   C1312     1.0  0.73307  0.94012  0.16280  1.0000
  C   C1313     1.0  0.70869  0.93602  0.14079  1.0000
  H   H2064     1.0  0.58008  0.84733  0.99989  1.0000
  H   H2065     1.0  0.56728  0.97566  0.16881  1.0000
  C   C1314     1.0  0.98340  0.75671  0.12671  1.0000
  N   N129      1.0  0.51109  0.74268  0.11521  1.0000
  C   C1315     1.0  0.66401  0.97647  0.12813  1.0000
  S   S537      1.0  0.52835  0.67396  0.07315  1.0000
  H   H2066     1.0  0.70456  0.97669  0.13507  1.0000
  C   C1316     1.0  0.53463  0.80162  0.00438  1.0000
  C   C1317     1.0  0.53722  0.72118  0.99864  1.0000
  H   H2067     1.0  0.74597  0.93740  0.15063  1.0000
  C   C1318     1.0  0.51958  0.94759  0.18651  1.0000
  H   H2068     1.0  0.97797  0.73056  0.14852  1.0000
  C   C1319     1.0  0.56471  0.88391  0.11401  1.0000
  C   C1320     1.0  0.55964  0.85188  0.13432  1.0000
  H   H2069     1.0  0.57764  0.88567  0.12217  1.0000
  H   H2070     1.0  0.95351  0.82681  0.11393  1.0000
  H   H2071     1.0  0.56585  0.84313  0.12134  1.0000
  H   H2072     1.0  0.54874  0.84282  0.14460  1.0000
  H   H2073     1.0  0.57250  0.85293  0.14284  1.0000
  H   H2074     1.0  0.94440  0.80398  0.15683  1.0000
  N   N130      1.0  0.74598  0.84814  0.08319  1.0000
  C   C1321     1.0  0.73894  0.84814  0.06322  1.0000
  C   C1322     1.0  0.72847  0.85440  0.09796  1.0000
  C   C1323     1.0  0.76122  0.86255  0.08132  1.0000
  C   C1324     1.0  0.75519  0.82747  0.09030  1.0000
  H   H2075     1.0  0.75166  0.84341  0.05162  1.0000
  H   H2076     1.0  0.73183  0.86352  0.05743  1.0000
  H   H2077     1.0  0.72709  0.83774  0.06420  1.0000
  H   H2078     1.0  0.72102  0.86969  0.09272  1.0000
  H   H2079     1.0  0.71661  0.84389  0.09985  1.0000
  H   H2080     1.0  0.73313  0.85512  0.11313  1.0000
  H   H2081     1.0  0.76656  0.86327  0.09620  1.0000
  H   H2082     1.0  0.75477  0.87831  0.07597  1.0000
  H   H2083     1.0  0.77473  0.85833  0.07036  1.0000
  H   H2084     1.0  0.76056  0.82696  0.10538  1.0000
  H   H2085     1.0  0.76846  0.82223  0.07950  1.0000
  H   H2086     1.0  0.74402  0.81628  0.09189  1.0000
  H   H2087     1.0  0.55242  0.67362  0.10674  1.0000
  C   C1325     1.0  0.68291  0.98894  0.03173  1.0000
  C   C1326     1.0  0.69643  0.97803  0.01807  1.0000
  N   N131      1.0  0.89965  0.93813  0.21902  1.0000
  H   H2088     1.0  0.93497  0.96486  0.14025  1.0000
  C   C1327     1.0  0.54561  0.96655  0.19417  1.0000
  H   H2089     1.0  0.93274  0.82861  0.14722  1.0000
  H   H2090     1.0  0.52494  0.71174  0.11512  1.0000
  H   H2091     1.0  0.54364  0.74165  0.11001  1.0000
  C   C1328     1.0  0.93273  0.78293  0.13032  1.0000
  H   H2092     1.0  0.91210  0.91376  0.20138  1.0000
  H   H2093     1.0  0.90876  0.96794  0.21006  1.0000
  H   H2094     1.0  0.55347  0.88524  0.15396  1.0000
  C   C1329     1.0  0.95262  0.81015  0.11609  1.0000
  H   H2095     1.0  0.91898  0.93818  0.19056  1.0000
  H   H2096     1.0  0.73794  0.95000  0.17285  1.0000
  C   C1330     1.0  0.54133  0.88313  0.14495  1.0000
  N   N132      1.0  0.93330  0.80517  0.12806  1.0000
  C   C1331     1.0  0.49949  0.80102  0.01938  1.0000
  H   H2097     1.0  0.53000  0.87469  0.15533  1.0000
  H   H2098     1.0  0.57121  0.87615  0.10044  1.0000
  H   H2099     1.0  0.50745  0.76140  0.08688  1.0000
  H   H2100     1.0  0.54521  0.71255  0.01127  1.0000
  S   S538      1.0  0.99002  0.77052  0.14520  1.0000
  C   C1332     1.0  0.69760  0.95288  0.17070  1.0000
  C   C1333     1.0  0.95457  0.93910  0.11477  1.0000
  H   H2101     1.0  0.90126  0.81244  0.12612  1.0000
  C   C1334     1.0  0.91614  0.81569  0.11747  1.0000
  H   H2102     1.0  0.91633  0.83249  0.11543  1.0000
  H   H2103     1.0  0.60064  0.82705  0.99812  1.0000
  H   H2104     1.0  0.62969  0.82588  0.01761  1.0000
  H   H2105     1.0  0.63107  0.84610  0.03233  1.0000
  H   H2106     1.0  0.50620  0.93997  0.19152  1.0000
  H   H2107     1.0  0.89086  0.90984  0.23461  1.0000
  C   C1335     1.0  0.62043  0.83714  0.02699  1.0000
  H   H2108     1.0  0.91686  0.81081  0.10212  1.0000
  H   H2109     1.0  0.69438  0.93830  0.17998  1.0000
  H   H2110     1.0  0.96512  0.97185  0.08942  1.0000
  H   H2111     1.0  0.95534  0.92820  0.10344  1.0000
  H   H2112     1.0  0.70621  0.92081  0.14910  1.0000
  C   C1336     1.0  0.50333  0.83163  0.15411  1.0000
  H   H2113     1.0  0.73090  0.92516  0.17182  1.0000
  H   H2114     1.0  0.94996  0.95813  0.07724  1.0000
  N   N133      1.0  0.71436  0.94959  0.15415  1.0000
  S   S539      1.0  0.97948  0.82845  0.15286  1.0000
  H   H2115     1.0  0.87621  0.92916  0.20431  1.0000
  H   H2116     1.0  0.62296  0.98223  0.17474  1.0000
  H   H2117     1.0  0.58395  0.85613  0.04181  1.0000
  C   C1337     1.0  0.55386  0.96805  0.17373  1.0000
  C   C1338     1.0  0.98261  0.76510  0.10646  1.0000
  H   H2118     1.0  0.52512  0.88512  0.11008  1.0000
  H   H2119     1.0  0.93973  0.98258  0.08500  1.0000
  S   S540      1.0  0.55595  0.97761  0.21217  1.0000
  C   C1339     1.0  0.90577  0.95708  0.22398  1.0000
  H   H2120     1.0  0.92056  0.94243  0.09747  1.0000
  H   H2121     1.0  0.55772  0.89944  0.10858  1.0000
  H   H2122     1.0  0.51425  0.71845  0.13969  1.0000
  H   H2123     1.0  0.89363  0.96497  0.23429  1.0000
  H   H2124     1.0  0.97039  0.94199  0.11564  1.0000
  H   H2125     1.0  0.88320  0.95393  0.19509  1.0000
  H   H2126     1.0  0.58390  0.82862  0.02123  1.0000
  H   H2127     1.0  0.72214  0.98005  0.15191  1.0000
  H   H2128     1.0  0.93039  0.98634  0.12152  1.0000
  H   H2129     1.0  0.52172  0.73685  0.08456  1.0000
  C   C1340     1.0  0.53299  0.87004  0.11571  1.0000
  H   H2130     1.0  0.55130  0.96065  0.14388  1.0000
  N   N134      1.0  0.94137  0.95816  0.10937  1.0000
  H   H2131     1.0  0.91366  0.94688  0.12354  1.0000
  H   H2132     1.0  0.73086  0.96742  0.12982  1.0000
  H   H2133     1.0  0.68031  0.98273  0.04752  1.0000
  H   H2134     1.0  0.52130  0.86148  0.12533  1.0000
  Fe  Fe271     1.0  0.85969  0.98422  0.17171  1.0000
  H   H2135     1.0  0.53018  0.76658  0.11098  1.0000
  C   C1341     1.0  0.92062  0.95347  0.10845  1.0000
  C   C1342     1.0  0.94069  0.97202  0.12490  1.0000
  H   H2136     1.0  0.53231  0.74950  0.13396  1.0000
  Fe  Fe272     1.0  0.98936  0.84631  0.12326  1.0000
  C   C1343     1.0  0.50857  0.74509  0.09340  1.0000
  H   H2137     1.0  0.53292  0.74146  0.03128  1.0000
  H   H2138     1.0  0.93061  0.92480  0.21201  1.0000
  H   H2139     1.0  0.70118  0.96323  0.18100  1.0000
  C   C1344     1.0  0.52517  0.74914  0.01817  1.0000
  H   H2140     1.0  0.62611  0.87205  0.00296  1.0000
  C   C1345     1.0  0.69969  0.98619  0.99764  1.0000
  C   C1346     1.0  0.61601  0.86227  0.99797  1.0000
  S   S541      1.0  0.50379  0.84361  0.17553  1.0000
  N   N135      1.0  0.51900  0.73436  0.00642  1.0000
  H   H2141     1.0  0.98757  0.77985  0.10132  1.0000
  C   C1347     1.0  0.89570  0.92421  0.23787  1.0000
  H   H2142     1.0  0.51180  0.75935  0.02422  1.0000
  H   H2143     1.0  0.98567  0.66120  0.02180  1.0000
  S   S542      1.0  0.49583  0.89748  0.18870  1.0000
  C   C1348     1.0  0.50476  0.72176  0.01967  1.0000
  H   H2144     1.0  0.49495  0.75543  0.99448  1.0000
  H   H2145     1.0  0.49795  0.71449  0.12173  1.0000
  H   H2146     1.0  0.51190  0.71305  0.03282  1.0000
  H   H2147     1.0  0.49512  0.75292  0.14281  1.0000
  Fe  Fe273     1.0  0.54117  0.68946  0.39661  1.0000
  H   H2148     1.0  0.91417  0.76731  0.44535  1.0000
  S   S543      1.0  0.52483  0.71840  0.38127  1.0000
  S   S544      1.0  0.83886  0.96404  0.45862  1.0000
  C   C1349     1.0  0.80003  0.91689  0.38192  1.0000
  Fe  Fe274     1.0  0.98340  0.77574  0.46444  1.0000
  H   H2149     1.0  0.61314  0.91452  0.30091  1.0000
  Fe  Fe275     1.0  0.68222  0.96352  0.37599  1.0000
  S   S545      1.0  0.65700  0.95368  0.39939  1.0000
  S   S546      1.0  0.71542  0.96403  0.37989  1.0000
  Fe  Fe276     1.0  0.64375  0.94335  0.37405  1.0000
  S   S547      1.0  0.63222  0.91263  0.37622  1.0000
  S   S548      1.0  0.67074  0.95030  0.35140  1.0000
  Fe  Fe277     1.0  0.52047  0.83799  0.36808  1.0000
  S   S549      1.0  0.51729  0.86783  0.38091  1.0000
  S   S550      1.0  0.53241  0.81076  0.38945  1.0000
  H   H2150     1.0  0.72103  0.96829  0.43249  1.0000
  C   C1350     1.0  0.50207  0.84337  0.43238  1.0000
  N   N136      1.0  0.95058  0.83753  0.48346  1.0000
  Fe  Fe278     1.0  0.53001  0.88121  0.35010  1.0000
  S   S551      1.0  0.54940  0.90721  0.34287  1.0000
  H   H2151     1.0  0.50983  0.79214  0.36410  1.0000
  S   S552      1.0  0.53602  0.85102  0.33798  1.0000
  H   H2152     1.0  0.87735  0.86169  0.42356  1.0000
  C   C1351     1.0  0.50926  0.66814  0.48352  1.0000
  H   H2153     1.0  0.49829  0.91470  0.26644  1.0000
  C   C1352     1.0  0.87585  0.97205  0.40960  1.0000
  H   H2154     1.0  0.94632  0.89859  0.36032  1.0000
  S   S553      1.0  0.95636  0.76300  0.45702  1.0000
  H   H2155     1.0  0.52489  0.71514  0.42526  1.0000
  H   H2156     1.0  0.92854  0.84850  0.46273  1.0000
  Fe  Fe279     1.0  0.95780  0.78606  0.42942  1.0000
  S   S554      1.0  0.93038  0.80387  0.41629  1.0000
  H   H2157     1.0  0.98078  0.82484  0.47243  1.0000
  H   H2158     1.0  0.95167  0.83536  0.45153  1.0000
  Fe  Fe280     1.0  0.80545  0.90887  0.43728  1.0000
  S   S555      1.0  0.81933  0.93627  0.42145  1.0000
  S   S556      1.0  0.77214  0.90515  0.43713  1.0000
  Fe  Fe281     1.0  0.84639  0.88794  0.45015  1.0000
  S   S557      1.0  0.86308  0.91404  0.43529  1.0000
  S   S558      1.0  0.86361  0.86051  0.46683  1.0000
  Fe  Fe282     1.0  0.83604  0.93381  0.44864  1.0000
  Fe  Fe283     1.0  0.84486  0.91397  0.40973  1.0000
  S   S559      1.0  0.85988  0.91648  0.37753  1.0000
  S   S560      1.0  0.82036  0.90785  0.46566  1.0000
  S   S561      1.0  0.83000  0.88644  0.42345  1.0000
  S   S562      1.0  0.55358  0.66245  0.37983  1.0000
  H   H2159     1.0  0.90952  0.92015  0.24578  1.0000
  H   H2160     1.0  0.70791  0.96664  0.45776  1.0000
  S   S563      1.0  0.56783  0.68578  0.41436  1.0000
  H   H2161     1.0  0.82935  0.98721  0.36549  1.0000
  C   C1353     1.0  0.86072  0.98324  0.35242  1.0000
  C   C1354     1.0  0.98178  0.97715  0.32387  1.0000
  S   S564      1.0  0.50186  0.85298  0.29684  1.0000
  H   H2162     1.0  0.50778  0.66371  0.46892  1.0000
  C   C1355     1.0  0.94761  0.91260  0.32013  1.0000
  H   H2163     1.0  0.53028  0.72805  0.44525  1.0000
  C   C1356     1.0  0.91243  0.81985  0.43067  1.0000
  C   C1357     1.0  0.90880  0.81593  0.45182  1.0000
  C   C1358     1.0  0.89366  0.82841  0.46275  1.0000
  C   C1359     1.0  0.88231  0.84503  0.45264  1.0000
  C   C1360     1.0  0.88604  0.84896  0.43150  1.0000
  C   C1361     1.0  0.90091  0.83628  0.42056  1.0000
  H   H2164     1.0  0.91730  0.80304  0.45969  1.0000
  H   H2165     1.0  0.50988  0.86086  0.25400  1.0000
  H   H2166     1.0  0.88753  0.75034  0.40682  1.0000
  H   H2167     1.0  0.95492  0.94783  0.33018  1.0000
  H   H2168     1.0  0.87189  0.96850  0.39501  1.0000
  C   C1362     1.0  0.84290  0.97650  0.36307  1.0000
  C   C1363     1.0  0.87771  0.94870  0.35654  1.0000
  C   C1364     1.0  0.85997  0.94206  0.36751  1.0000
  C   C1365     1.0  0.98682  0.67133  0.38764  1.0000
  H   H2169     1.0  0.89121  0.93798  0.35410  1.0000
  C   C1366     1.0  0.73016  0.94799  0.39697  1.0000
  C   C1367     1.0  0.74940  0.95301  0.39902  1.0000
  C   C1368     1.0  0.76198  0.94053  0.41202  1.0000
  C   C1369     1.0  0.75565  0.92262  0.42278  1.0000
  C   C1370     1.0  0.73618  0.91783  0.42112  1.0000
  C   C1371     1.0  0.72342  0.93050  0.40832  1.0000
  H   H2170     1.0  0.75463  0.96664  0.39045  1.0000
  H   H2171     1.0  0.77670  0.94467  0.41347  1.0000
  H   H2172     1.0  0.73110  0.90403  0.42945  1.0000
  H   H2173     1.0  0.70859  0.92651  0.40691  1.0000
  C   C1372     1.0  0.60769  0.91082  0.37005  1.0000
  C   C1373     1.0  0.60264  0.89185  0.36704  1.0000
  C   C1374     1.0  0.58406  0.89030  0.36008  1.0000
  C   C1375     1.0  0.57047  0.90777  0.35591  1.0000
  C   C1376     1.0  0.57520  0.92662  0.35965  1.0000
  C   C1377     1.0  0.59362  0.92810  0.36689  1.0000
  H   H2174     1.0  0.61337  0.87837  0.36960  1.0000
  H   H2175     1.0  0.58065  0.87571  0.35712  1.0000
  H   H2176     1.0  0.56472  0.94019  0.35658  1.0000
  H   H2177     1.0  0.59706  0.94268  0.36973  1.0000
  H   H2178     1.0  0.66726  0.98599  0.42493  1.0000
  C   C1378     1.0  0.52823  0.74391  0.38294  1.0000
  C   C1379     1.0  0.54085  0.74888  0.39603  1.0000
  C   C1380     1.0  0.54202  0.76942  0.39781  1.0000
  C   C1381     1.0  0.53094  0.78517  0.38625  1.0000
  C   C1382     1.0  0.51846  0.78019  0.37306  1.0000
  C   C1383     1.0  0.51703  0.75966  0.37154  1.0000
  H   H2179     1.0  0.54977  0.73694  0.40469  1.0000
  H   H2180     1.0  0.55181  0.77317  0.40795  1.0000
  H   H2181     1.0  0.61741  0.66219  0.44302  1.0000
  S   S565      1.0  0.97892  0.76538  0.40977  1.0000
  C   C1384     1.0  0.53127  0.89755  0.28422  1.0000
  Fe  Fe284     1.0  0.54888  0.66633  0.43748  1.0000
  H   H2182     1.0  0.94751  0.92505  0.30725  1.0000
  N   N137      1.0  0.96180  0.91532  0.33430  1.0000
  H   H2183     1.0  0.52917  0.94530  0.25867  1.0000
  C   C1385     1.0  0.98937  0.66230  0.40737  1.0000
  C   C1386     1.0  0.96152  0.89852  0.35113  1.0000
  H   H2184     1.0  0.98756  0.66717  0.43881  1.0000
  H   H2185     1.0  0.89208  0.97448  0.34147  1.0000
  H   H2186     1.0  0.50430  0.75604  0.43585  1.0000
  H   H2187     1.0  0.49639  0.71283  0.47694  1.0000
  H   H2188     1.0  0.52881  0.88940  0.27153  1.0000
  H   H2189     1.0  0.51473  0.83333  0.42478  1.0000
  S   S566      1.0  0.97495  0.70971  0.44088  1.0000
  H   H2190     1.0  0.96612  0.93782  0.35283  1.0000
  S   S567      1.0  0.49929  0.88935  0.33927  1.0000
  C   C1387     1.0  0.97289  0.83532  0.48337  1.0000
  H   H2191     1.0  0.93177  0.91258  0.32791  1.0000
  H   H2192     1.0  0.59890  0.95663  0.33306  1.0000
  C   C1388     1.0  0.90239  0.76155  0.43821  1.0000
  H   H2193     1.0  0.89064  0.75644  0.45060  1.0000
  N   N138      1.0  0.52373  0.91945  0.28084  1.0000
  S   S568      1.0  0.55048  0.66923  0.47029  1.0000
  H   H2194     1.0  0.53183  0.92153  0.24843  1.0000
  Fe  Fe285     1.0  0.50434  0.85842  0.32900  1.0000
  H   H2195     1.0  0.93347  0.73284  0.44635  1.0000
  H   H2196     1.0  0.90353  0.83930  0.40418  1.0000
  Fe  Fe286     1.0  0.97920  0.74311  0.43805  1.0000
  H   H2197     1.0  0.49536  0.93825  0.27712  1.0000
  H   H2198     1.0  0.59051  0.66119  0.44872  1.0000
  C   C1389     1.0  0.94531  0.84589  0.46299  1.0000
  H   H2199     1.0  0.50720  0.75596  0.36141  1.0000
  H   H2200     1.0  0.99226  0.80647  0.39071  1.0000
  C   C1390     1.0  0.98599  0.67429  0.42351  1.0000
  S   S569      1.0  0.98275  0.80069  0.43849  1.0000
  H   H2201     1.0  0.93998  0.93538  0.35130  1.0000
  C   C1391     1.0  0.52749  0.92953  0.29802  1.0000
  C   C1392     1.0  0.98072  0.69545  0.41999  1.0000
  H   H2202     1.0  0.54778  0.89503  0.28583  1.0000
  H   H2203     1.0  0.97457  0.72078  0.39727  1.0000
  N   N139      1.0  0.61772  0.94381  0.30809  1.0000
  C   C1393     1.0  0.62565  0.95051  0.28688  1.0000
  C   C1394     1.0  0.60477  0.92754  0.30847  1.0000
  C   C1395     1.0  0.60565  0.96124  0.31726  1.0000
  C   C1396     1.0  0.63494  0.93598  0.31974  1.0000
  H   H2204     1.0  0.63615  0.96214  0.28628  1.0000
  H   H2205     1.0  0.61316  0.95739  0.27779  1.0000
  H   H2206     1.0  0.63436  0.93765  0.27930  1.0000
  H   H2207     1.0  0.54394  0.92760  0.29991  1.0000
  H   H2208     1.0  0.95201  0.89795  0.31360  1.0000
  H   H2209     1.0  0.59095  0.93320  0.30090  1.0000
  H   H2210     1.0  0.52408  0.70246  0.45071  1.0000
  H   H2211     1.0  0.59298  0.96816  0.30846  1.0000
  H   H2212     1.0  0.61521  0.97339  0.31802  1.0000
  H   H2213     1.0  0.62959  0.93166  0.33602  1.0000
  H   H2214     1.0  0.64542  0.94764  0.31915  1.0000
  H   H2215     1.0  0.64397  0.92230  0.31389  1.0000
  H   H2216     1.0  0.79190  0.93227  0.37783  1.0000
  H   H2217     1.0  0.82877  0.95098  0.37904  1.0000
  H   H2218     1.0  0.89059  0.82516  0.47908  1.0000
  H   H2219     1.0  0.89198  0.96579  0.41072  1.0000
  H   H2220     1.0  0.50223  0.85888  0.42385  1.0000
  C   C1397     1.0  0.71244  0.97748  0.44427  1.0000
  H   H2221     1.0  0.79717  0.91321  0.39867  1.0000
  C   C1398     1.0  0.92667  0.75270  0.40971  1.0000
  C   C1399     1.0  0.84258  0.95599  0.37081  1.0000
  H   H2222     1.0  0.93426  0.74059  0.40040  1.0000
  C   C1400     1.0  0.52041  0.71735  0.44151  1.0000
  N   N140      1.0  0.49862  0.72505  0.44539  1.0000
  H   H2223     1.0  0.51944  0.92300  0.31266  1.0000
  H   H2224     1.0  0.81661  0.91783  0.37793  1.0000
  H   H2225     1.0  0.59959  0.92131  0.32430  1.0000
  H   H2226     1.0  0.97904  0.85015  0.47914  1.0000
  C   C1401     1.0  0.87818  0.96935  0.34929  1.0000
  H   H2227     1.0  0.97120  0.99130  0.29576  1.0000
  N   N141      1.0  0.79330  0.90140  0.37154  1.0000
  C   C1402     1.0  0.79730  0.90689  0.34934  1.0000
  C   C1403     1.0  0.77128  0.90048  0.37753  1.0000
  C   C1404     1.0  0.80468  0.88138  0.37747  1.0000
  H   H2228     1.0  0.78881  0.92191  0.34449  1.0000
  H   H2229     1.0  0.79261  0.89544  0.34094  1.0000
  H   H2230     1.0  0.81378  0.90797  0.34446  1.0000
  H   H2231     1.0  0.76792  0.89556  0.39410  1.0000
  H   H2232     1.0  0.76226  0.91562  0.37431  1.0000
  H   H2233     1.0  0.76545  0.88952  0.36940  1.0000
  H   H2234     1.0  0.80026  0.86927  0.36974  1.0000
  H   H2235     1.0  0.80171  0.87681  0.39416  1.0000
  H   H2236     1.0  0.82140  0.88171  0.37366  1.0000
  H   H2237     1.0  0.88344  0.73186  0.42867  1.0000
  H   H2238     1.0  0.52220  0.94612  0.29597  1.0000
  H   H2239     1.0  0.91985  0.76557  0.39942  1.0000
  H   H2240     1.0  0.97292  0.89946  0.36150  1.0000
  H   H2241     1.0  0.89521  0.77486  0.42867  1.0000
  H   H2242     1.0  0.95126  0.86070  0.45776  1.0000
  S   S570      1.0  0.62510  0.97314  0.36600  1.0000
  H   H2243     1.0  0.91026  0.72153  0.45148  1.0000
  H   H2244     1.0  0.52326  0.88998  0.29834  1.0000
  H   H2245     1.0  0.93869  0.75859  0.41624  1.0000
  H   H2246     1.0  0.98354  0.92808  0.31083  1.0000
  C   C1405     1.0  0.98258  0.91529  0.32333  1.0000
  C   C1406     1.0  0.92129  0.72794  0.43909  1.0000
  H   H2247     1.0  0.90161  0.72538  0.40740  1.0000
  C   C1407     1.0  0.95542  0.93490  0.34255  1.0000
  H   H2248     1.0  0.92875  0.71539  0.43026  1.0000
  H   H2249     1.0  0.50233  0.73851  0.47180  1.0000
  C   C1408     1.0  0.89526  0.73780  0.41681  1.0000
  H   H2250     1.0  0.49781  0.74318  0.41637  1.0000
  H   H2251     1.0  0.96535  0.88346  0.34535  1.0000
  N   N142      1.0  0.91138  0.74498  0.42598  1.0000
  C   C1409     1.0  0.98290  0.98100  0.30273  1.0000
  H   H2252     1.0  0.98234  0.83646  0.36654  1.0000
  H   H2253     1.0  0.99385  0.91674  0.33365  1.0000
  S   S571      1.0  0.96106  0.98805  0.33959  1.0000
  C   C1410     1.0  0.53445  0.92875  0.26172  1.0000
  C   C1411     1.0  0.50167  0.92193  0.27940  1.0000
  S   S572      1.0  0.52156  0.67158  0.42076  1.0000
  C   C1412     1.0  0.68083  0.97692  0.43101  1.0000
  H   H2254     1.0  0.55116  0.92713  0.26220  1.0000
  H   H2255     1.0  0.86632  0.96358  0.42199  1.0000
  H   H2256     1.0  0.68873  0.96756  0.41906  1.0000
  H   H2257     1.0  0.97938  0.69953  0.36892  1.0000
  H   H2258     1.0  0.50554  0.84431  0.44794  1.0000
  C   C1413     1.0  0.98140  0.69246  0.38415  1.0000
  H   H2259     1.0  0.86828  0.99041  0.44358  1.0000
  Fe  Fe287     1.0  0.65269  0.98087  0.34449  1.0000
  H   H2260     1.0  0.98773  0.90089  0.31653  1.0000
  H   H2261     1.0  0.95004  0.80662  0.47824  1.0000
  C   C1414     1.0  0.84461  0.96535  0.48320  1.0000
  C   C1415     1.0  0.97867  0.70453  0.40018  1.0000
  Fe  Fe288     1.0  0.64034  0.98425  0.38980  1.0000
  H   H2262     1.0  0.88339  0.93129  0.24863  1.0000
  C   C1416     1.0  0.84751  0.98427  0.48833  1.0000
  H   H2263     1.0  0.67517  0.96633  0.44422  1.0000
  H   H2264     1.0  0.72313  0.98696  0.44868  1.0000
  C   C1417     1.0  0.49613  0.87052  0.25867  1.0000
  S   S573      1.0  0.65486  0.98939  0.31015  1.0000
  C   C1418     1.0  0.94327  0.81742  0.48930  1.0000
  C   C1419     1.0  0.52834  0.67151  0.48788  1.0000
  N   N143      1.0  0.69453  0.99015  0.43667  1.0000
  H   H2265     1.0  0.67824  0.99210  0.46655  1.0000
  H   H2266     1.0  0.81391  0.98567  0.56598  1.0000
  C   C1420     1.0  0.51322  0.67875  0.52163  1.0000
  H   H2267     1.0  0.76376  0.96190  0.54850  1.0000
  C   C1421     1.0  0.76894  0.97131  0.55880  1.0000
  S   S574      1.0  0.85519  0.97202  0.54780  1.0000
  H   H2268     1.0  0.84398  0.93353  0.49380  1.0000
  C   C1422     1.0  0.84612  0.94820  0.49769  1.0000
  C   C1423     1.0  0.85171  0.98613  0.50786  1.0000
  C   C1424     1.0  0.79633  0.98072  0.53333  1.0000
  H   H2269     1.0  0.85098  0.93690  0.52865  1.0000
  H   H2270     1.0  0.79796  0.94118  0.54785  1.0000
  C   C1425     1.0  0.80203  0.95137  0.55806  1.0000
  H   H2271     1.0  0.79857  0.94439  0.57401  1.0000
  H   H2272     1.0  0.97740  0.82878  0.49854  1.0000
  C   C1426     1.0  0.85014  0.95012  0.51737  1.0000
  C   C1427     1.0  0.85271  0.96916  0.52255  1.0000
  C   C1428     1.0  0.79721  0.98500  0.56844  1.0000
  H   H2273     1.0  0.79326  0.97912  0.58467  1.0000
  H   H2274     1.0  0.94595  0.86679  0.49436  1.0000
  H   H2275     1.0  0.79326  0.97066  0.52247  1.0000
  C   C1429     1.0  0.53019  0.67682  0.50695  1.0000
  N   N144      1.0  0.79112  0.97210  0.55466  1.0000
  H   H2276     1.0  0.81881  0.95158  0.55504  1.0000
  H   H2277     1.0  0.76446  0.96472  0.57472  1.0000
  H   H2278     1.0  0.54485  0.67947  0.51041  1.0000
  H   H2279     1.0  0.94439  0.84556  0.51389  1.0000
  H   H2280     1.0  0.51490  0.68289  0.53632  1.0000
  H   H2281     1.0  0.81270  0.98277  0.53007  1.0000
  H   H2282     1.0  0.76036  0.98682  0.55660  1.0000
  H   H2283     1.0  0.94755  0.81037  0.50441  1.0000
  C   C1430     1.0  0.94078  0.85146  0.49827  1.0000
  S   S575      1.0  0.98611  0.78213  0.49603  1.0000
  H   H2284     1.0  0.98870  0.99139  0.72279  1.0000
  H   H2285     1.0  0.92391  0.85346  0.49871  1.0000
  H   H2286     1.0  0.92645  0.81854  0.49010  1.0000
  S   S576      1.0  0.51704  0.94123  0.77945  1.0000
  C   C1431     1.0  0.53660  0.97346  0.78351  1.0000
  H   H2287     1.0  0.54024  0.79931  0.97225  1.0000
  C   C1432     1.0  0.60370  0.98139  0.86676  1.0000
  C   C1433     1.0  0.52744  0.95177  0.81453  1.0000
  H   H2288     1.0  0.70999  0.97771  0.98699  1.0000
  C   C1434     1.0  0.50844  0.79851  0.98348  1.0000
  H   H2289     1.0  0.50409  0.73483  0.97979  1.0000
  C   C1435     1.0  0.53728  0.96331  0.82527  1.0000
  H   H2290     1.0  0.53786  0.95910  0.84138  1.0000
  C   C1436     1.0  0.54660  0.98004  0.81519  1.0000
  H   H2291     1.0  0.52056  0.93867  0.82230  1.0000
  H   H2292     1.0  0.50412  0.79688  0.96887  1.0000
  H   H2293     1.0  0.98550  0.97950  0.74852  1.0000
  C   C1437     1.0  0.52735  0.95666  0.79356  1.0000
  H   H2294     1.0  0.51905  0.75532  0.97896  1.0000
  C   C1438     1.0  0.52886  0.79993  0.98540  1.0000
  H   H2295     1.0  0.59328  0.97703  0.85689  1.0000
  C   C1439     1.0  0.54590  0.98536  0.79436  1.0000
  H   H2296     1.0  0.53676  0.97712  0.76725  1.0000
  H   H2297     1.0  0.60097  0.97241  0.88192  1.0000
  H   H2298     1.0  0.62564  0.85206  0.98768  1.0000
  H   H2299     1.0  0.60506  0.87235  0.98887  1.0000
  C   C1440     1.0  0.50886  0.74542  0.98917  1.0000
  H   H2300     1.0  0.61955  0.97662  0.86008  1.0000
  H   H2301     1.0  0.49532  0.85829  0.87195  1.0000
  H   H2302     1.0  0.49575  0.98257  0.81039  1.0000
  H   H2303     1.0  0.54831  0.73029  0.98868  1.0000
  H   H2304     1.0  0.53318  0.70990  0.98958  1.0000
