data_image0
_chemical_formula_structural       FeSCFeS2FeSFeSHSFeS2FeS2FeS2FeSFeS3C2H4C2H2C6H4C8H4C5H2SHC2HNH5CSH2CH6NCH3CH5C2H2CH3CH4NH6C2H3NH3CHCHCHCH4NCHCH2CH3C2H2FeS2FeS2FeSFeS3FeS2H3CHC2SH2CH6C7H4C6NH3CHNHCHCH2CH6CHCHCH3NCH4CH2NH5CHSH2NHCSHCH3CHCHCH2C2H2C3H2FeH3FeS2FeS2FeS2FeSFeS3H2SHCH2C7H6C2HC4SH3CHSH4NFeCH2CH2CH3CH2CHCH2C3HCNHCH3CH2NH5C2H5C2H3FeSCFeSNFeSFeS2H2CHCHCFeS2FeS2FeS2FeSFeS3CSH3C2NH2C6H4CH2SH2C7H6CHC2H3FeCHC2H4NC4H12NC4H14CH4CH5FeHC3SNCH2SHCH5C2H3NCHSC4HFeSHFeSHFeSFeSCSFeS2FeS2FeS2FeSFeS3CHFeH2SCHSHC6H4C2H2C6H4SHCHCH9NC4H12NC4H5CH2SCHCNH2C2H2CHSHC2HC2HC5HFeS2FeS2FeSFeS3H2C2H2FeS3CH4C8H4C4H4C3H2C4H4C2NC5H10NH2NH6CH4CH5C2H2CH2C2H7NCSHFeS2FeS2FeS2FeSFeS3C2HCH3C5H2C6H9CHC3H2FeSH4NC4H9NCHNHC4HCHC4HSH4CHCH2CH6NH2C4H2CHCHCHCH3FeH5SFeSCFeSHFeSFeS3H2NH3FeS2FeS2FeS2FeSFeS3C2H2C3HC6H5CHCH2C7H7CHCHC2NC4H12NHC2H5CHCHNH2C3HCH7SH3S2CH4C2H3NH2SH2CHCH3C4H2CH3CH2FeCH2CFeCSFeCSHCH2CHCH2C3HC2H4C2HSCH3NC2HCHSFe2SH7NC4HSHCH3CSHCH7C2HFeC4S3HSFeSCFeS2FeCFeSHSFeS2FeSCFeSFeS3FeS2HCH3CHSHCFeS2CH10C5NH2C6H4C6H5CH5NCHC3H2SCH4CH2CHCSH2CHC2HC2NH2NC4H11SCH3CH3CH2NC2H7SFeCS2CHCH4C2NH2CFe2S2HFeS2FeS2FeS2FeHFeS3FeS2FeSHFeSFeS3HCHCNCHC6H4CH3C7H3C6H3CH3CH4CH11CNH3CHCH5FeHCHSH3NC4H6FeHCHCHCHSC3H2SC2HCH2S2HCH4FeS2CHCH2CFeHSCHNC4H2CHC2H2C2H3SCH4CHCHC2H6S2FeHCHSHNCHSHCHCFeHSHFeS2NH2CHSCH3CH3CHCHFeH2CH2CHSC2NH4CH2CHNH2CH2C2H3CSHC2HCH4CHC2SCH2CHSCHCH2FeS2FeS2FeHFeSHSFeSCFeS2FeSFeCSHSH4NFeS2FeS2CH2C2HCH2CH3C6H2SNH2CHC6H4C6HCH4CH3CSHNH17SH2CH3C3HNC2HCH3CHSH2C2HCHCH2SC2HCH4FeS2FeS2HFeSHFeS2FeHFeSCSFeS2FeS2FeHFeS4H3C6H5CHC6H3C7H5CH2NCHCH8C4H6CH9SH2NHCHCHSH3NC4H6NC3HSFeCHCH2SHSCH2CSFeCFeSCH2CHCFeH3CSC3SFeHSCH2C2FeHS2H2NSFeC4H2CFeCHS2FeH2C2H7CHNHC3H3C2SH6SCH4CHSC2H2CH2FeSHFeSCFeSFeS3FeS2HFeS2FeS2FeSFeS3CHC2H2CH3C6H4C6H4FeCNC4HNH4C2HCNCHCH3CHCH4CH2NH5CHCH5C2H3NSH2CH4CHNHCHCHCH11C2SHCH3CHC3HSC5H10FeS2FeS2FeSFeS3FeS2H5CHC2H2CH2C2H2FeC6H5SH2C5H5C2HNH2CH3C6H5SH2N2CFeHC2HSCH7CH6CH3FeS2FeS2FeS2FeSFeS3H3C2H2C9H8C4H4C2H2CHCH2NH2CH2CH2C3HNH4CNC4H13CHC2H2CNCH6SH2C4HFeSHFeSCFeSFeS2HFeS2H3SHFeS2FeS2FeSFeS3CH2C2H2C7H8CH2C6H5C3H4C3HCHCNC5HC2H8CHSHNHCHCHNH6NC2HCH4CHCH6CH3CHFeCH3SCHC2H3SCHSH3CHFeSHFeSHFeSFeSHSH3FeS2FeS2FeS2FeSFeS3CHC2H2C2H4C6H4C3H4C6H4CHCSCH2C2HFeCHCH2SH3NH2SH3NHCHSH2C2HCH3CNCH7CHNC2HCHCH3CFeH2CHCH2CH4SFeS2FeS2FeSFeS3FeS2H2SC2H6NHCH2C6H4CNC3H5C4HCH5CHNC4H14CHCHC2H2CNHC2H5C2HCH2CH2C2HSFeH2C2HCFeS2FeS2FeS2FeSFeS3CHSHC2FeC2H3C6H7CHCHC4H4CHCH3NHNCSNCH2CH3C2H3CHCH12C2HNC2HC2H2CH2SHCH7CH3C2H3CH2NHCH3FeSCFeSCFeSFeS2H3CFeS2FeS2FeS2FeSFeS3CHC2HC3HNC6H7CH2C6H7SH3CH2NCHCH3C2H2NHSCH4CHNC3H2CHC2H3CH5CH4SCHNH4CH3C2H4CHC4H2C
_chemical_formula_sum              "Fe192 S384 C960 H1536 N96"
_cell_length_a       56.9587
_cell_length_b       56.8207
_cell_length_c       72.8457
_cell_angle_alpha    87.7101
_cell_angle_beta     87.6103
_cell_angle_gamma    86.0013

_space_group_name_H-M_alt    "P 1"
_space_group_IT_number       1

loop_
  _space_group_symop_operation_xyz
  'x, y, z'

loop_
  _atom_site_type_symbol
  _atom_site_label
  _atom_site_symmetry_multiplicity
  _atom_site_fract_x
  _atom_site_fract_y
  _atom_site_fract_z
  _atom_site_occupancy
  Fe  Fe1       1.0  0.30587  0.12637  0.15707  1.0000
  S   S1        1.0  0.26801  0.12346  0.15076  1.0000
  C   C1        1.0  0.18126  0.24850  0.22862  1.0000
  Fe  Fe2       1.0  0.29375  0.13114  0.19911  1.0000
  S   S2        1.0  0.25509  0.12785  0.19470  1.0000
  S   S3        1.0  0.30514  0.10037  0.18135  1.0000
  Fe  Fe3       1.0  0.26711  0.09855  0.17566  1.0000
  S   S4        1.0  0.24970  0.06347  0.17434  1.0000
  Fe  Fe4       1.0  0.25974  0.15310  0.17043  1.0000
  S   S5        1.0  0.23766  0.18741  0.16281  1.0000
  H   H1        1.0  0.30674  0.14673  0.10990  1.0000
  S   S6        1.0  0.29820  0.15754  0.17543  1.0000
  Fe  Fe5       1.0  0.08769  0.39283  0.02486  1.0000
  S   S7        1.0  0.08130  0.38447  0.05572  1.0000
  S   S8        1.0  0.07217  0.42948  0.01727  1.0000
  Fe  Fe6       1.0  0.12041  0.27390  0.17923  1.0000
  S   S9        1.0  0.14357  0.30264  0.17046  1.0000
  S   S10       1.0  0.13661  0.23667  0.18609  1.0000
  Fe  Fe7       1.0  0.07565  0.30800  0.17885  1.0000
  S   S11       1.0  0.09726  0.33913  0.17048  1.0000
  S   S12       1.0  0.03568  0.31798  0.18151  1.0000
  Fe  Fe8       1.0  0.11591  0.31466  0.15025  1.0000
  S   S13       1.0  0.12937  0.32096  0.12043  1.0000
  Fe  Fe9       1.0  0.12295  0.32437  0.19162  1.0000
  S   S14       1.0  0.14726  0.34419  0.20922  1.0000
  S   S15       1.0  0.09368  0.28413  0.15771  1.0000
  S   S16       1.0  0.10035  0.29502  0.20124  1.0000
  C   C2        1.0  0.00807  0.27906  0.18630  1.0000
  C   C3        1.0  0.00879  0.30360  0.18421  1.0000
  H   H2        1.0  0.27950  0.06980  0.20597  1.0000
  H   H3        1.0  0.02437  0.26808  0.18647  1.0000
  H   H4        1.0  0.02135  0.39194  0.01524  1.0000
  H   H5        1.0  0.25994  0.09932  0.23681  1.0000
  C   C4        1.0  0.14903  0.34880  0.23321  1.0000
  C   C5        1.0  0.16879  0.35931  0.23944  1.0000
  H   H6        1.0  0.13193  0.24245  0.14521  1.0000
  H   H7        1.0  0.18243  0.36441  0.22959  1.0000
  C   C6        1.0  0.09494  0.36621  0.07327  1.0000
  C   C7        1.0  0.08423  0.36581  0.09104  1.0000
  C   C8        1.0  0.09442  0.35205  0.10559  1.0000
  C   C9        1.0  0.11564  0.33858  0.10257  1.0000
  C   C10       1.0  0.12645  0.33908  0.08481  1.0000
  C   C11       1.0  0.11618  0.35277  0.07023  1.0000
  H   H8        1.0  0.06782  0.37615  0.09359  1.0000
  H   H9        1.0  0.08589  0.35191  0.11914  1.0000
  H   H10       1.0  0.14288  0.32878  0.08230  1.0000
  H   H11       1.0  0.12466  0.35287  0.05666  1.0000
  C   C12       1.0  0.25100  0.08308  0.23390  1.0000
  C   C13       1.0  0.30431  0.03507  0.11507  1.0000
  C   C14       1.0  0.20987  0.20093  0.17032  1.0000
  C   C15       1.0  0.19348  0.18892  0.18130  1.0000
  C   C16       1.0  0.17126  0.20016  0.18608  1.0000
  C   C17       1.0  0.16517  0.22359  0.18012  1.0000
  C   C18       1.0  0.18176  0.23581  0.16954  1.0000
  C   C19       1.0  0.20382  0.22447  0.16454  1.0000
  H   H12       1.0  0.19777  0.17081  0.18581  1.0000
  H   H13       1.0  0.15862  0.19050  0.19430  1.0000
  H   H14       1.0  0.17753  0.25389  0.16503  1.0000
  H   H15       1.0  0.21639  0.23398  0.15611  1.0000
  C   C20       1.0  0.32049  0.13699  0.10209  1.0000
  C   C21       1.0  0.28371  0.02756  0.18378  1.0000
  C   C22       1.0  0.26089  0.03354  0.17794  1.0000
  C   C23       1.0  0.24598  0.01525  0.17550  1.0000
  C   C24       1.0  0.16328  0.26653  0.12525  1.0000
  H   H16       1.0  0.29574  0.04118  0.18522  1.0000
  H   H17       1.0  0.22830  0.01956  0.17096  1.0000
  S   S17       1.0  0.30202  0.13027  0.22986  1.0000
  H   H18       1.0  0.15010  0.22212  0.09838  1.0000
  C   C25       1.0  0.32251  0.14039  0.08278  1.0000
  C   C26       1.0  0.25552  0.04118  0.22893  1.0000
  H   H19       1.0  0.12791  0.46941  0.07914  1.0000
  N   N1        1.0  0.29505  0.05767  0.12281  1.0000
  H   H20       1.0  0.09358  0.42922  0.07909  1.0000
  H   H21       1.0  0.11657  0.44814  0.03295  1.0000
  H   H22       1.0  0.29098  0.04240  0.25212  1.0000
  H   H23       1.0  0.11856  0.47388  0.04607  1.0000
  H   H24       1.0  0.29492  0.03117  0.10256  1.0000
  C   C27       1.0  0.18581  0.28799  0.23870  1.0000
  S   S18       1.0  0.12115  0.39782  0.00781  1.0000
  H   H25       1.0  0.11624  0.33427  0.24165  1.0000
  H   H26       1.0  0.24727  0.04390  0.21533  1.0000
  C   C28       1.0  0.00442  0.39220  0.00903  1.0000
  H   H27       1.0  0.24267  0.08627  0.22037  1.0000
  H   H28       1.0  0.30649  0.04782  0.15001  1.0000
  H   H29       1.0  0.14463  0.45567  0.04016  1.0000
  H   H30       1.0  0.17144  0.27143  0.19658  1.0000
  H   H31       1.0  0.15412  0.27678  0.13644  1.0000
  H   H32       1.0  0.30145  0.07897  0.14549  1.0000
  N   N2        1.0  0.12233  0.44087  0.06166  1.0000
  C   C29       1.0  0.13471  0.45092  0.07664  1.0000
  H   H33       1.0  0.24129  0.03727  0.23929  1.0000
  H   H34       1.0  0.29685  0.08147  0.22300  1.0000
  H   H35       1.0  0.19980  0.27854  0.20368  1.0000
  C   C30       1.0  0.14819  0.27743  0.22877  1.0000
  H   H36       1.0  0.08455  0.48119  0.01788  1.0000
  H   H37       1.0  0.15117  0.41562  0.05515  1.0000
  H   H38       1.0  0.17557  0.30053  0.20402  1.0000
  H   H39       1.0  0.29968  0.05045  0.21878  1.0000
  H   H40       1.0  0.30230  0.02005  0.12521  1.0000
  C   C31       1.0  0.12670  0.26147  0.11078  1.0000
  C   C32       1.0  0.13161  0.34224  0.24615  1.0000
  H   H41       1.0  0.23661  0.08101  0.24452  1.0000
  H   H42       1.0  0.13874  0.26657  0.21945  1.0000
  C   C33       1.0  0.12569  0.45529  0.04452  1.0000
  H   H43       1.0  0.31679  0.07813  0.10440  1.0000
  H   H44       1.0  0.15396  0.45114  0.07332  1.0000
  H   H45       1.0  0.18063  0.30718  0.23667  1.0000
  C   C34       1.0  0.29798  0.07709  0.10896  1.0000
  H   H46       1.0  0.17657  0.24210  0.24284  1.0000
  H   H47       1.0  0.26693  0.04190  0.13843  1.0000
  H   H48       1.0  0.11487  0.24896  0.10521  1.0000
  H   H49       1.0  0.15675  0.22259  0.13946  1.0000
  N   N3        1.0  0.17398  0.27383  0.22572  1.0000
  H   H50       1.0  0.14259  0.27247  0.24313  1.0000
  H   H51       1.0  0.12314  0.40835  0.04753  1.0000
  H   H52       1.0  0.12905  0.21973  0.12921  1.0000
  H   H53       1.0  0.08912  0.45891  0.06951  1.0000
  H   H54       1.0  0.13243  0.44042  0.08977  1.0000
  H   H55       1.0  0.12928  0.40484  0.07135  1.0000
  C   C35       1.0  0.09691  0.44085  0.06670  1.0000
  C   C36       1.0  0.16106  0.23552  0.10385  1.0000
  H   H56       1.0  0.08692  0.43404  0.05547  1.0000
  H   H57       1.0  0.26232  0.07309  0.13418  1.0000
  H   H58       1.0  0.30826  0.99948  0.19344  1.0000
  N   N4        1.0  0.14803  0.24906  0.11840  1.0000
  H   H59       1.0  0.29196  0.09453  0.11461  1.0000
  H   H60       1.0  0.17981  0.25789  0.13073  1.0000
  H   H61       1.0  0.20530  0.28575  0.23680  1.0000
  C   C37       1.0  0.13199  0.41640  0.05882  1.0000
  H   H62       1.0  0.17730  0.22598  0.10916  1.0000
  C   C38       1.0  0.18053  0.28142  0.20667  1.0000
  H   H63       1.0  0.16819  0.27963  0.11421  1.0000
  C   C39       1.0  0.28685  0.06609  0.21975  1.0000
  H   H64       1.0  0.16652  0.24734  0.09211  1.0000
  C   C40       1.0  0.14113  0.23275  0.13370  1.0000
  H   H65       1.0  0.14200  0.29625  0.22617  1.0000
  H   H66       1.0  0.11637  0.27168  0.12147  1.0000
  H   H67       1.0  0.13125  0.27445  0.09954  1.0000
  H   H68       1.0  0.31023  0.15284  0.07592  1.0000
  N   N5        1.0  0.26784  0.06207  0.23367  1.0000
  C   C41       1.0  0.29092  0.00379  0.18821  1.0000
  H   H69       1.0  0.26786  0.02511  0.22801  1.0000
  C   C42       1.0  0.26979  0.05642  0.12801  1.0000
  H   H70       1.0  0.17244  0.23748  0.21897  1.0000
  H   H71       1.0  0.25926  0.05328  0.11594  1.0000
  C   C43       1.0  0.31885  0.14839  0.24308  1.0000
  H   H72       1.0  0.28785  0.07476  0.09650  1.0000
  H   H73       1.0  0.32340  0.03540  0.11112  1.0000
  H   H74       1.0  0.20059  0.24502  0.22620  1.0000
  C   C44       1.0  0.27809  0.05808  0.25192  1.0000
  C   C45       1.0  0.30815  0.06215  0.13926  1.0000
  H   H75       1.0  0.14238  0.42848  0.25189  1.0000
  H   H76       1.0  0.32723  0.06374  0.13583  1.0000
  Fe  Fe10      1.0  0.23149  0.37496  0.32909  1.0000
  S   S19       1.0  0.20045  0.35331  0.33554  1.0000
  S   S20       1.0  0.26895  0.35877  0.32259  1.0000
  Fe  Fe11      1.0  0.20054  0.42211  0.32829  1.0000
  S   S21       1.0  0.16791  0.40251  0.33493  1.0000
  S   S22       1.0  0.18956  0.46159  0.32259  1.0000
  Fe  Fe12      1.0  0.18896  0.38139  0.35587  1.0000
  S   S23       1.0  0.17309  0.36910  0.38384  1.0000
  Fe  Fe13      1.0  0.18182  0.37639  0.31399  1.0000
  S   S24       1.0  0.15452  0.36307  0.29503  1.0000
  S   S25       1.0  0.22115  0.40210  0.35061  1.0000
  S   S26       1.0  0.21343  0.39674  0.30630  1.0000
  Fe  Fe14      1.0  0.11895  0.41881  0.48111  1.0000
  S   S27       1.0  0.08119  0.43194  0.48612  1.0000
  S   S28       1.0  0.13808  0.42814  0.45391  1.0000
  H   H77       1.0  0.12934  0.47076  0.27674  1.0000
  H   H78       1.0  0.28871  0.25015  0.31131  1.0000
  H   H79       1.0  0.11602  0.43273  0.26622  1.0000
  C   C46       1.0  0.05933  0.37591  0.42470  1.0000
  H   H80       1.0  0.32001  0.24949  0.30806  1.0000
  C   C47       1.0  0.13379  0.34652  0.26497  1.0000
  C   C48       1.0  0.04420  0.39938  0.45005  1.0000
  S   S29       1.0  0.31741  0.25784  0.34738  1.0000
  H   H81       1.0  0.04843  0.40948  0.46214  1.0000
  H   H82       1.0  0.11714  0.48343  0.49558  1.0000
  C   C49       1.0  0.15352  0.35708  0.27120  1.0000
  H   H83       1.0  0.30185  0.27186  0.29632  1.0000
  H   H84       1.0  0.18647  0.37133  0.26279  1.0000
  H   H85       1.0  0.11999  0.34172  0.27479  1.0000
  H   H86       1.0  0.14757  0.44014  0.30914  1.0000
  H   H87       1.0  0.08380  0.38221  0.46572  1.0000
  H   H88       1.0  0.21878  0.38428  0.46341  1.0000
  C   C50       1.0  0.20250  0.48925  0.32400  1.0000
  C   C51       1.0  0.16328  0.38591  0.40311  1.0000
  C   C52       1.0  0.16520  0.41030  0.40335  1.0000
  C   C53       1.0  0.15735  0.42286  0.41901  1.0000
  C   C54       1.0  0.14742  0.41128  0.43459  1.0000
  C   C55       1.0  0.14546  0.38689  0.43439  1.0000
  C   C56       1.0  0.15336  0.37431  0.41873  1.0000
  H   H89       1.0  0.17279  0.41944  0.39146  1.0000
  H   H90       1.0  0.15897  0.44172  0.41901  1.0000
  H   H91       1.0  0.13802  0.37769  0.44630  1.0000
  H   H92       1.0  0.15190  0.35542  0.41868  1.0000
  C   C57       1.0  0.30415  0.28572  0.33978  1.0000
  C   C58       1.0  0.32210  0.24131  0.27203  1.0000
  C   C59       1.0  0.30409  0.32270  0.32160  1.0000
  C   C60       1.0  0.28180  0.33031  0.32921  1.0000
  C   C61       1.0  0.27072  0.31535  0.34204  1.0000
  C   C62       1.0  0.28190  0.29330  0.34735  1.0000
  N   N6        1.0  0.19688  0.40141  0.48435  1.0000
  H   H93       1.0  0.32093  0.20769  0.29853  1.0000
  H   H94       1.0  0.25365  0.32091  0.34808  1.0000
  H   H95       1.0  0.19303  0.42128  0.45873  1.0000
  C   C63       1.0  0.30384  0.21236  0.29203  1.0000
  H   H96       1.0  0.31027  0.10787  0.47402  1.0000
  N   N7        1.0  0.30221  0.23725  0.28522  1.0000
  H   H97       1.0  0.29947  0.10935  0.43290  1.0000
  C   C64       1.0  0.08093  0.40814  0.43422  1.0000
  H   H98       1.0  0.28975  0.08802  0.44996  1.0000
  C   C65       1.0  0.19446  0.42410  0.47369  1.0000
  H   H99       1.0  0.03264  0.38542  0.45544  1.0000
  H   H100      1.0  0.26441  0.23934  0.28556  1.0000
  C   C66       1.0  0.30446  0.09214  0.44007  1.0000
  H   H101      1.0  0.15981  0.39777  0.48485  1.0000
  H   H102      1.0  0.09717  0.40101  0.42673  1.0000
  H   H103      1.0  0.31283  0.33413  0.31167  1.0000
  H   H104      1.0  0.28963  0.20876  0.30251  1.0000
  H   H105      1.0  0.15558  0.46689  0.26222  1.0000
  H   H106      1.0  0.30912  0.13065  0.26872  1.0000
  C   C67       1.0  0.17113  0.36330  0.25829  1.0000
  H   H107      1.0  0.23757  0.47501  0.32958  1.0000
  C   C68       1.0  0.13472  0.42563  0.26604  1.0000
  H   H108      1.0  0.31961  0.12934  0.45677  1.0000
  C   C69       1.0  0.31516  0.30050  0.32675  1.0000
  H   H109      1.0  0.13806  0.41267  0.30175  1.0000
  H   H110      1.0  0.03372  0.41159  0.44074  1.0000
  H   H111      1.0  0.22096  0.37064  0.48602  1.0000
  N   N8        1.0  0.32680  0.09307  0.44954  1.0000
  C   C70       1.0  0.27973  0.24239  0.27597  1.0000
  H   H112      1.0  0.18103  0.28300  0.25324  1.0000
  H   H113      1.0  0.04953  0.38766  0.41462  1.0000
  H   H114      1.0  0.07525  0.36785  0.41732  1.0000
  H   H115      1.0  0.06780  0.35836  0.45892  1.0000
  C   C71       1.0  0.13774  0.43200  0.29839  1.0000
  H   H116      1.0  0.26426  0.05503  0.26283  1.0000
  H   H117      1.0  0.15786  0.47132  0.28635  1.0000
  N   N9        1.0  0.06580  0.38908  0.44062  1.0000
  H   H118      1.0  0.27320  0.28208  0.35747  1.0000
  H   H119      1.0  0.08675  0.41803  0.44592  1.0000
  H   H120      1.0  0.04793  0.36139  0.42909  1.0000
  H   H121      1.0  0.07158  0.42110  0.42475  1.0000
  H   H122      1.0  0.23458  0.39780  0.48059  1.0000
  C   C72       1.0  0.07878  0.37280  0.45355  1.0000
  H   H123      1.0  0.17576  0.38318  0.46647  1.0000
  S   S30       1.0  0.04643  0.37709  0.49596  1.0000
  H   H124      1.0  0.32095  0.25961  0.26597  1.0000
  H   H125      1.0  0.18362  0.43509  0.28909  1.0000
  N   N10       1.0  0.14822  0.43680  0.27983  1.0000
  H   H126      1.0  0.27858  0.23094  0.26402  1.0000
  C   C73       1.0  0.30320  0.25289  0.30085  1.0000
  S   S31       1.0  0.11489  0.38367  0.49571  1.0000
  H   H127      1.0  0.09519  0.36462  0.44699  1.0000
  C   C74       1.0  0.17653  0.38757  0.48118  1.0000
  H   H128      1.0  0.17820  0.43481  0.47811  1.0000
  H   H129      1.0  0.13476  0.40616  0.26876  1.0000
  H   H130      1.0  0.30268  0.20003  0.28065  1.0000
  C   C75       1.0  0.21880  0.38795  0.47833  1.0000
  H   H131      1.0  0.30588  0.07837  0.42955  1.0000
  C   C76       1.0  0.22631  0.49094  0.32747  1.0000
  H   H132      1.0  0.11909  0.43913  0.29962  1.0000
  C   C77       1.0  0.14767  0.46259  0.27608  1.0000
  H   H133      1.0  0.27783  0.26111  0.27080  1.0000
  H   H134      1.0  0.20969  0.43492  0.47540  1.0000
  C   C78       1.0  0.01745  0.39027  0.49911  1.0000
  C   C79       1.0  0.17289  0.42691  0.27893  1.0000
  H   H135      1.0  0.17701  0.37079  0.48965  1.0000
  H   H136      1.0  0.00100  0.36044  0.48918  1.0000
  C   C80       1.0  0.32412  0.11160  0.46328  1.0000
  C   C81       1.0  0.31915  0.14444  0.26231  1.0000
  C   C82       1.0  0.99807  0.37796  0.49449  1.0000
  H   H137      1.0  0.17396  0.40752  0.28196  1.0000
  H   H138      1.0  0.31917  0.06539  0.46953  1.0000
  Fe  Fe15      1.0  0.07753  0.39793  0.50233  1.0000
  H   H139      1.0  0.28758  0.07360  0.25574  1.0000
  H   H140      1.0  0.18138  0.42994  0.26509  1.0000
  H   H141      1.0  0.32281  0.22880  0.26059  1.0000
  Fe  Fe16      1.0  0.12429  0.40120  0.52156  1.0000
  S   S32       1.0  0.08650  0.41200  0.52951  1.0000
  S   S33       1.0  0.15557  0.38826  0.53880  1.0000
  Fe  Fe17      1.0  0.18287  0.38595  0.64895  1.0000
  S   S34       1.0  0.21487  0.40719  0.64879  1.0000
  S   S35       1.0  0.15565  0.38451  0.62675  1.0000
  Fe  Fe18      1.0  0.18470  0.37488  0.69130  1.0000
  S   S36       1.0  0.21577  0.39675  0.69374  1.0000
  S   S37       1.0  0.17029  0.34883  0.71318  1.0000
  Fe  Fe19      1.0  0.19814  0.42383  0.67417  1.0000
  S   S38       1.0  0.18730  0.46371  0.67454  1.0000
  Fe  Fe20      1.0  0.22998  0.37826  0.66823  1.0000
  S   S39       1.0  0.26831  0.36333  0.67000  1.0000
  S   S40       1.0  0.16578  0.40303  0.67392  1.0000
  S   S41       1.0  0.19929  0.35588  0.66624  1.0000
  H   H142      1.0  0.14787  0.44980  0.65575  1.0000
  H   H143      1.0  0.23532  0.47578  0.68291  1.0000
  S   S42       1.0  0.31429  0.25810  0.66009  1.0000
  H   H144      1.0  0.13327  0.49233  0.63099  1.0000
  C   C83       1.0  0.16181  0.34992  0.73694  1.0000
  H   H145      1.0  0.21274  0.41632  0.50717  1.0000
  H   H146      1.0  0.27682  0.34058  0.70786  1.0000
  C   C84       1.0  0.15138  0.48379  0.62935  1.0000
  C   C85       1.0  0.15547  0.38853  0.56325  1.0000
  C   C86       1.0  0.17699  0.38599  0.57224  1.0000
  C   C87       1.0  0.17752  0.38520  0.59164  1.0000
  C   C88       1.0  0.15646  0.38639  0.60227  1.0000
  C   C89       1.0  0.13499  0.38908  0.59327  1.0000
  C   C90       1.0  0.13447  0.39042  0.57391  1.0000
  H   H147      1.0  0.19334  0.38438  0.56416  1.0000
  H   H148      1.0  0.19417  0.38301  0.59834  1.0000
  H   H149      1.0  0.11858  0.38990  0.60132  1.0000
  H   H150      1.0  0.11779  0.39219  0.56724  1.0000
  H   H151      1.0  0.29300  0.23441  0.60082  1.0000
  H   H152      1.0  0.31971  0.18398  0.64119  1.0000
  C   C91       1.0  0.01344  0.41288  0.50600  1.0000
  C   C92       1.0  0.30184  0.28738  0.66347  1.0000
  H   H153      1.0  0.12029  0.45453  0.64469  1.0000
  C   C93       1.0  0.30405  0.32809  0.67227  1.0000
  C   C94       1.0  0.28064  0.33388  0.66733  1.0000
  C   C95       1.0  0.26781  0.31618  0.66060  1.0000
  C   C96       1.0  0.27838  0.29314  0.65863  1.0000
  S   S43       1.0  0.13077  0.43540  0.50635  1.0000
  H   H154      1.0  0.26673  0.30220  0.72231  1.0000
  H   H155      1.0  0.24984  0.32032  0.65664  1.0000
  H   H156      1.0  0.26834  0.27973  0.65319  1.0000
  C   C97       1.0  0.25326  0.31184  0.73127  1.0000
  H   H157      1.0  0.15238  0.31378  0.73825  1.0000
  S   S44       1.0  0.07938  0.48043  0.52312  1.0000
  H   H158      1.0  0.16978  0.38589  0.74041  1.0000
  H   H159      1.0  0.13823  0.42772  0.64145  1.0000
  H   H160      1.0  0.18500  0.45549  0.61276  1.0000
  H   H161      1.0  0.18124  0.41605  0.50916  1.0000
  N   N11       1.0  0.15092  0.45817  0.62673  1.0000
  Fe  Fe21      1.0  0.09267  0.44510  0.51263  1.0000
  C   C98       1.0  0.30532  0.19745  0.63752  1.0000
  H   H162      1.0  0.17575  0.42832  0.62300  1.0000
  H   H163      1.0  0.22653  0.34444  0.69719  1.0000
  C   C99       1.0  0.22442  0.49197  0.68092  1.0000
  H   H164      1.0  0.13754  0.43478  0.60787  1.0000
  H   H165      1.0  0.23401  0.35146  0.74712  1.0000
  C   C100      1.0  0.29023  0.22590  0.61470  1.0000
  H   H166      1.0  0.25688  0.36605  0.71024  1.0000
  H   H167      1.0  0.31422  0.34164  0.67740  1.0000
  H   H168      1.0  0.23900  0.29977  0.73471  1.0000
  C   C101      1.0  0.31141  0.15984  0.74782  1.0000
  H   H169      1.0  0.21701  0.31770  0.70786  1.0000
  H   H170      1.0  0.31466  0.19660  0.59114  1.0000
  C   C102      1.0  0.22619  0.34628  0.73427  1.0000
  H   H171      1.0  0.18542  0.45050  0.63722  1.0000
  C   C103      1.0  0.31457  0.30499  0.67045  1.0000
  H   H172      1.0  0.21820  0.36261  0.72741  1.0000
  H   H173      1.0  0.32433  0.17330  0.72129  1.0000
  C   C104      1.0  0.31089  0.18937  0.60530  1.0000
  C   C105      1.0  0.23267  0.32814  0.70495  1.0000
  C   C106      1.0  0.26334  0.34926  0.71736  1.0000
  H   H174      1.0  0.27234  0.35396  0.72983  1.0000
  C   C107      1.0  0.15363  0.32950  0.74596  1.0000
  N   N12       1.0  0.24387  0.33389  0.72199  1.0000
  H   H175      1.0  0.29415  0.18041  0.60524  1.0000
  C   C108      1.0  0.17534  0.44768  0.62483  1.0000
  H   H176      1.0  0.21141  0.33503  0.73822  1.0000
  H   H177      1.0  0.32521  0.17557  0.60839  1.0000
  H   H178      1.0  0.19894  0.38923  0.51268  1.0000
  C   C109      1.0  0.13877  0.44710  0.64285  1.0000
  H   H179      1.0  0.29559  0.15377  0.74240  1.0000
  H   H180      1.0  0.24518  0.31797  0.69562  1.0000
  N   N13       1.0  0.30959  0.20807  0.61893  1.0000
  H   H181      1.0  0.16097  0.48725  0.64192  1.0000
  H   H182      1.0  0.28897  0.24019  0.62486  1.0000
  H   H183      1.0  0.27292  0.21790  0.61509  1.0000
  H   H184      1.0  0.02818  0.42254  0.50964  1.0000
  H   H185      1.0  0.11977  0.46177  0.61083  1.0000
  C   C110      1.0  0.13825  0.45404  0.60998  1.0000
  C   C111      1.0  0.20077  0.49093  0.67669  1.0000
  H   H186      1.0  0.14707  0.46177  0.59746  1.0000
  H   H187      1.0  0.28850  0.18858  0.63857  1.0000
  H   H188      1.0  0.30439  0.21107  0.64816  1.0000
  H   H189      1.0  0.26171  0.31549  0.74426  1.0000
  H   H190      1.0  0.08978  0.36368  0.74862  1.0000
  C   C112      1.0  0.16349  0.37006  0.74711  1.0000
  C   C113      1.0  0.19758  0.40598  0.50416  1.0000
  H   H191      1.0  0.16045  0.49275  0.61749  1.0000
  H   H192      1.0  0.04997  0.34711  0.75250  1.0000
  H   H193      1.0  0.32549  0.01273  0.50289  1.0000
  Fe  Fe22      1.0  0.30586  0.12596  0.85222  1.0000
  S   S45       1.0  0.26940  0.11942  0.86271  1.0000
  C   C114      1.0  0.25536  0.01074  0.84851  1.0000
  Fe  Fe23      1.0  0.29062  0.13225  0.81192  1.0000
  S   S46       1.0  0.25301  0.12511  0.82042  1.0000
  N   N14       1.0  0.24406  0.19733  0.79000  1.0000
  Fe  Fe24      1.0  0.25708  0.14948  0.84346  1.0000
  S   S47       1.0  0.23661  0.18374  0.85213  1.0000
  Fe  Fe25      1.0  0.26890  0.09554  0.83864  1.0000
  S   S48       1.0  0.25485  0.05942  0.84634  1.0000
  S   S49       1.0  0.29400  0.15752  0.83442  1.0000
  H   H194      1.0  0.30566  0.05315  0.84505  1.0000
  H   H195      1.0  0.26575  0.18487  0.76704  1.0000
  C   C115      1.0  0.27224  0.19893  0.91031  1.0000
  H   H196      1.0  0.26169  0.16682  0.88629  1.0000
  C   C116      1.0  0.30013  0.03405  0.87906  1.0000
  H   H197      1.0  0.05807  0.35360  0.80238  1.0000
  C   C117      1.0  0.31580  0.11626  0.90572  1.0000
  Fe  Fe26      1.0  0.10237  0.38327  0.98431  1.0000
  S   S50       1.0  0.12284  0.35854  0.96432  1.0000
  S   S51       1.0  0.08804  0.41901  0.97434  1.0000
  Fe  Fe27      1.0  0.12158  0.27286  0.83515  1.0000
  S   S52       1.0  0.13884  0.30537  0.84340  1.0000
  S   S53       1.0  0.13613  0.23436  0.83238  1.0000
  Fe  Fe28      1.0  0.07486  0.30079  0.82576  1.0000
  S   S54       1.0  0.08950  0.33462  0.83301  1.0000
  S   S55       1.0  0.03878  0.30448  0.81259  1.0000
  Fe  Fe29      1.0  0.12292  0.32251  0.81775  1.0000
  S   S56       1.0  0.13964  0.35036  0.79870  1.0000
  Fe  Fe30      1.0  0.10379  0.31516  0.85808  1.0000
  S   S57       1.0  0.09147  0.33517  0.88389  1.0000
  S   S58       1.0  0.10757  0.28978  0.80884  1.0000
  S   S59       1.0  0.08742  0.28153  0.85142  1.0000
  C   C118      1.0  0.14864  0.34936  0.77502  1.0000
  S   S60       1.0  0.30615  0.10102  0.82877  1.0000
  H   H198      1.0  0.25477  0.20295  0.90411  1.0000
  H   H199      1.0  0.27804  0.18406  0.79909  1.0000
  H   H200      1.0  0.14096  0.31329  0.77156  1.0000
  C   C119      1.0  0.25226  0.19939  0.77051  1.0000
  C   C120      1.0  0.01059  0.29534  0.82051  1.0000
  N   N15       1.0  0.07176  0.35539  0.77442  1.0000
  H   H201      1.0  0.23752  0.19835  0.76109  1.0000
  H   H202      1.0  0.02340  0.26953  0.84071  1.0000
  C   C121      1.0  0.11354  0.35134  0.94226  1.0000
  C   C122      1.0  0.12888  0.33745  0.93074  1.0000
  C   C123      1.0  0.12253  0.33220  0.91287  1.0000
  C   C124      1.0  0.10071  0.34082  0.90630  1.0000
  C   C125      1.0  0.08544  0.35473  0.91783  1.0000
  C   C126      1.0  0.09174  0.35993  0.93568  1.0000
  H   H203      1.0  0.14577  0.33065  0.93568  1.0000
  H   H204      1.0  0.13446  0.32145  0.90421  1.0000
  H   H205      1.0  0.06848  0.36145  0.91295  1.0000
  H   H206      1.0  0.07967  0.37054  0.94434  1.0000
  C   C127      1.0  0.04840  0.35438  0.76649  1.0000
  H   H207      1.0  0.05994  0.38303  0.79267  1.0000
  H   H208      1.0  0.30973  0.16887  0.91895  1.0000
  S   S61       1.0  0.29423  0.14204  0.78108  1.0000
  H   H209      1.0  0.31938  0.19686  0.91043  1.0000
  H   H210      1.0  0.29102  0.15332  0.88363  1.0000
  C   C128      1.0  0.00805  0.27735  0.83399  1.0000
  C   C129      1.0  0.20883  0.19756  0.84590  1.0000
  C   C130      1.0  0.20324  0.22121  0.85045  1.0000
  C   C131      1.0  0.18133  0.23288  0.84613  1.0000
  C   C132      1.0  0.16456  0.22096  0.83734  1.0000
  C   C133      1.0  0.17025  0.19737  0.83261  1.0000
  C   C134      1.0  0.19224  0.18575  0.83679  1.0000
  H   H211      1.0  0.21584  0.23056  0.85754  1.0000
  H   H212      1.0  0.17725  0.25097  0.84993  1.0000
  H   H213      1.0  0.15742  0.18788  0.82590  1.0000
  H   H214      1.0  0.19606  0.16748  0.83342  1.0000
  H   H215      1.0  0.29985  0.21719  0.88318  1.0000
  H   H216      1.0  0.27547  0.20423  0.87338  1.0000
  C   C135      1.0  0.14710  0.32918  0.76486  1.0000
  H   H217      1.0  0.30001  0.11336  0.89865  1.0000
  C   C136      1.0  0.26313  0.03056  0.83837  1.0000
  C   C137      1.0  0.27730  0.02687  0.82245  1.0000
  H   H218      1.0  0.26053  0.21633  0.76738  1.0000
  H   H219      1.0  0.24428  0.01332  0.86079  1.0000
  H   H220      1.0  0.28328  0.04185  0.81437  1.0000
  Fe  Fe31      1.0  0.05728  0.41257  0.99356  1.0000
  C   C138      1.0  0.23344  0.17450  0.79344  1.0000
  H   H221      1.0  0.08620  0.36611  0.79932  1.0000
  C   C139      1.0  0.26430  0.19851  0.80191  1.0000
  C   C140      1.0  0.27882  0.16355  0.89313  1.0000
  H   H222      1.0  0.10060  0.33136  0.78225  1.0000
  H   H223      1.0  0.29979  0.11010  0.93275  1.0000
  H   H224      1.0  0.29698  0.01602  0.87466  1.0000
  H   H225      1.0  0.27907  0.21597  0.91389  1.0000
  N   N16       1.0  0.14698  0.41768  0.93706  1.0000
  C   C141      1.0  0.12212  0.41593  0.93254  1.0000
  C   C142      1.0  0.14853  0.42037  0.95708  1.0000
  C   C143      1.0  0.15627  0.43841  0.92707  1.0000
  C   C144      1.0  0.16097  0.39602  0.93154  1.0000
  H   H226      1.0  0.12027  0.41288  0.91768  1.0000
  H   H227      1.0  0.11108  0.43218  0.93607  1.0000
  H   H228      1.0  0.11437  0.40095  0.94034  1.0000
  H   H229      1.0  0.16699  0.42191  0.96103  1.0000
  H   H230      1.0  0.13794  0.43638  0.96180  1.0000
  H   H231      1.0  0.14182  0.40490  0.96503  1.0000
  H   H232      1.0  0.14616  0.45505  0.93106  1.0000
  H   H233      1.0  0.15518  0.43703  0.91192  1.0000
  H   H234      1.0  0.17504  0.44023  0.93009  1.0000
  H   H235      1.0  0.15463  0.38011  0.93909  1.0000
  H   H236      1.0  0.17988  0.39678  0.93453  1.0000
  H   H237      1.0  0.15970  0.39302  0.91662  1.0000
  N   N17       1.0  0.06594  0.21812  0.82843  1.0000
  C   C145      1.0  0.07062  0.23937  0.81686  1.0000
  C   C146      1.0  0.04119  0.21248  0.82667  1.0000
  C   C147      1.0  0.07013  0.22260  0.84784  1.0000
  C   C148      1.0  0.08193  0.19806  0.82234  1.0000
  H   H238      1.0  0.08926  0.24378  0.81766  1.0000
  H   H239      1.0  0.05924  0.25505  0.82126  1.0000
  H   H240      1.0  0.06733  0.23683  0.80215  1.0000
  H   H241      1.0  0.03745  0.20898  0.81219  1.0000
  H   H242      1.0  0.03697  0.19660  0.83530  1.0000
  H   H243      1.0  0.02870  0.22737  0.83104  1.0000
  H   H244      1.0  0.06689  0.20692  0.85699  1.0000
  H   H245      1.0  0.05847  0.23771  0.85292  1.0000
  H   H246      1.0  0.08870  0.22692  0.84961  1.0000
  H   H247      1.0  0.10075  0.20181  0.82360  1.0000
  H   H248      1.0  0.07948  0.19429  0.80769  1.0000
  H   H249      1.0  0.07895  0.18168  0.83076  1.0000
  H   H250      1.0  0.32467  0.17120  0.89688  1.0000
  H   H251      1.0  0.07243  0.31913  0.78410  1.0000
  C   C149      1.0  0.15692  0.36975  0.76602  1.0000
  H   H252      1.0  0.15818  0.38548  0.77373  1.0000
  H   H253      1.0  0.10403  0.37218  0.76856  1.0000
  H   H254      1.0  0.30929  0.07912  0.87113  1.0000
  H   H255      1.0  0.30061  0.03362  0.89432  1.0000
  C   C150      1.0  0.99992  0.40635  0.99327  1.0000
  H   H256      1.0  0.25880  0.19682  0.81672  1.0000
  H   H257      1.0  0.23365  0.23433  0.79182  1.0000
  H   H258      1.0  0.26924  0.18852  0.92338  1.0000
  H   H259      1.0  0.28446  0.04573  0.87522  1.0000
  H   H260      1.0  0.21983  0.21560  0.80885  1.0000
  Fe  Fe32      1.0  0.10414  0.43316  0.99882  1.0000
  H   H261      1.0  0.21758  0.17326  0.78522  1.0000
  C   C151      1.0  0.28338  0.00370  0.81671  1.0000
  C   C152      1.0  0.31160  0.18052  0.90636  1.0000
  C   C153      1.0  0.22628  0.21679  0.79421  1.0000
  S   S62       1.0  0.02137  0.42426  0.98363  1.0000
  N   N18       1.0  0.28877  0.18583  0.89758  1.0000
  C   C154      1.0  0.08336  0.33134  0.77568  1.0000
  H   H262      1.0  0.21064  0.21637  0.78559  1.0000
  H   H263      1.0  0.27280  0.21548  0.79969  1.0000
  S   S63       1.0  0.12516  0.46566  0.99455  1.0000
  H   H264      1.0  0.22802  0.17186  0.80820  1.0000
  C   C155      1.0  0.06883  0.36497  0.79301  1.0000
  H   H265      1.0  0.08670  0.32379  0.76188  1.0000
  H   H266      1.0  0.30470  0.19061  0.87054  1.0000
  H   H267      1.0  0.27573  0.15220  0.90569  1.0000
  H   H268      1.0  0.07813  0.38895  0.76106  1.0000
  H   H269      1.0  0.24610  0.15946  0.78971  1.0000
  C   C156      1.0  0.29237  0.20017  0.88044  1.0000
  C   C157      1.0  0.31557  0.15620  0.76669  1.0000
  H   H270      1.0  0.03905  0.37221  0.76538  1.0000
  H   H271      1.0  0.03698  0.34287  0.77522  1.0000
  H   H272      1.0  0.31881  0.02364  0.84564  1.0000
  N   N19       1.0  0.32201  0.04262  0.87034  1.0000
  C   C158      1.0  0.08650  0.37073  0.76261  1.0000
  H   H273      1.0  0.29405  0.00112  0.80422  1.0000
  S   S64       1.0  0.07016  0.37560  0.00206  1.0000
  C   C159      1.0  0.31575  0.11428  0.92509  1.0000
  C   C160      1.0  0.32092  0.04187  0.85014  1.0000
  C   C161      1.0  0.32450  0.06717  0.87557  1.0000
  C   C162      1.0  0.11392  0.49385  0.00177  1.0000
  H   H274      1.0  0.32551  0.06848  0.89072  1.0000
  Fe  Fe33      1.0  0.29892  0.86770  0.19437  1.0000
  S   S65       1.0  0.26426  0.88807  0.20070  1.0000
  H   H275      1.0  0.26491  0.86157  0.08677  1.0000
  Fe  Fe34      1.0  0.30097  0.88731  0.15387  1.0000
  S   S66       1.0  0.26656  0.90856  0.15806  1.0000
  H   H276      1.0  0.27301  0.88977  0.09349  1.0000
  Fe  Fe35      1.0  0.28007  0.91889  0.18487  1.0000
  S   S67       1.0  0.28462  0.95643  0.19456  1.0000
  Fe  Fe36      1.0  0.25380  0.87579  0.17312  1.0000
  S   S68       1.0  0.21807  0.86438  0.16400  1.0000
  C   C163      1.0  0.27585  0.98551  0.18613  1.0000
  S   S69       1.0  0.28774  0.85414  0.16739  1.0000
  Fe  Fe37      1.0  0.10002  0.65393  0.02664  1.0000
  S   S70       1.0  0.09936  0.68112  0.04906  1.0000
  S   S71       1.0  0.06939  0.63133  0.02585  1.0000
  Fe  Fe38      1.0  0.12893  0.74987  0.17178  1.0000
  S   S72       1.0  0.15419  0.71800  0.17011  1.0000
  S   S73       1.0  0.14139  0.78641  0.16278  1.0000
  Fe  Fe39      1.0  0.08634  0.71949  0.18040  1.0000
  S   S74       1.0  0.11015  0.68601  0.17963  1.0000
  S   S75       1.0  0.04822  0.70864  0.18510  1.0000
  Fe  Fe40      1.0  0.13533  0.70462  0.19586  1.0000
  S   S76       1.0  0.16023  0.68484  0.21598  1.0000
  Fe  Fe41      1.0  0.12678  0.70204  0.15417  1.0000
  S   S77       1.0  0.13733  0.67817  0.13032  1.0000
  S   S78       1.0  0.11087  0.73746  0.19849  1.0000
  S   S79       1.0  0.10221  0.73461  0.15401  1.0000
  C   C164      1.0  0.15614  0.67566  0.23943  1.0000
  H   H277      1.0  0.08258  0.62930  0.14027  1.0000
  Fe  Fe42      1.0  0.09440  0.60429  0.01206  1.0000
  H   H278      1.0  0.24150  0.97764  0.17798  1.0000
  H   H279      1.0  0.18860  0.65373  0.23912  1.0000
  S   S80       1.0  0.08637  0.56688  0.02183  1.0000
  C   C165      1.0  0.01929  0.71912  0.17873  1.0000
  H   H280      1.0  0.09740  0.65398  0.14752  1.0000
  S   S81       1.0  0.31522  0.89882  0.18018  1.0000
  H   H281      1.0  0.12325  0.69580  0.24440  1.0000
  C   C166      1.0  0.10931  0.67924  0.07186  1.0000
  C   C167      1.0  0.12411  0.66035  0.07837  1.0000
  C   C168      1.0  0.13244  0.66030  0.09633  1.0000
  C   C169      1.0  0.12581  0.67890  0.10805  1.0000
  C   C170      1.0  0.11064  0.69759  0.10168  1.0000
  C   C171      1.0  0.10261  0.69781  0.08363  1.0000
  H   H282      1.0  0.12950  0.64602  0.06943  1.0000
  H   H283      1.0  0.14420  0.64577  0.10113  1.0000
  H   H284      1.0  0.10532  0.71201  0.11051  1.0000
  H   H285      1.0  0.09119  0.71252  0.07868  1.0000
  C   C172      1.0  0.09770  0.53910  0.01390  1.0000
  C   C173      1.0  0.13683  0.68400  0.25040  1.0000
  H   H286      1.0  0.03292  0.61536  0.00607  1.0000
  H   H287      1.0  0.27760  0.87390  0.12576  1.0000
  C   C174      1.0  0.19827  0.84110  0.16465  1.0000
  C   C175      1.0  0.17751  0.84542  0.15505  1.0000
  C   C176      1.0  0.16079  0.82840  0.15476  1.0000
  C   C177      1.0  0.16419  0.80648  0.16411  1.0000
  C   C178      1.0  0.18514  0.80171  0.17366  1.0000
  C   C179      1.0  0.20216  0.81899  0.17392  1.0000
  H   H288      1.0  0.17407  0.86230  0.14794  1.0000
  H   H289      1.0  0.14481  0.83249  0.14741  1.0000
  H   H290      1.0  0.18811  0.78492  0.18100  1.0000
  H   H291      1.0  0.21806  0.81531  0.18144  1.0000
  S   S82       1.0  0.12597  0.62602  0.01470  1.0000
  H   H292      1.0  0.24566  0.88751  0.08251  1.0000
  C   C180      1.0  0.05303  0.65576  0.16199  1.0000
  H   H293      1.0  0.07069  0.52070  0.02890  1.0000
  C   C181      1.0  0.09385  0.49648  0.01342  1.0000
  H   H294      1.0  0.02775  0.75426  0.17005  1.0000
  H   H295      1.0  0.31396  0.84902  0.11248  1.0000
  H   H296      1.0  0.25412  0.85912  0.13719  1.0000
  H   H297      1.0  0.06850  0.69223  0.12603  1.0000
  H   H298      1.0  0.30821  0.87749  0.24099  1.0000
  H   H299      1.0  0.27017  0.84572  0.11825  1.0000
  H   H300      1.0  0.06597  0.66113  0.17182  1.0000
  H   H301      1.0  0.03587  0.66529  0.16577  1.0000
  H   H302      1.0  0.22423  0.90745  0.10894  1.0000
  N   N20       1.0  0.17271  0.73963  0.11426  1.0000
  C   C182      1.0  0.18330  0.76230  0.10988  1.0000
  C   C183      1.0  0.14829  0.74439  0.12144  1.0000
  C   C184      1.0  0.18656  0.72607  0.12833  1.0000
  C   C185      1.0  0.17257  0.72574  0.09752  1.0000
  H   H303      1.0  0.18320  0.77321  0.12231  1.0000
  H   H304      1.0  0.17334  0.77291  0.09924  1.0000
  H   H305      1.0  0.20189  0.75947  0.10468  1.0000
  H   H306      1.0  0.13979  0.72772  0.12490  1.0000
  H   H307      1.0  0.14772  0.75463  0.13417  1.0000
  H   H308      1.0  0.13725  0.75469  0.11128  1.0000
  H   H309      1.0  0.17875  0.70901  0.13223  1.0000
  H   H310      1.0  0.18720  0.73614  0.14111  1.0000
  H   H311      1.0  0.20502  0.72182  0.12333  1.0000
  H   H312      1.0  0.16501  0.70836  0.10061  1.0000
  H   H313      1.0  0.19067  0.72208  0.09152  1.0000
  H   H314      1.0  0.16172  0.73510  0.08676  1.0000
  N   N21       1.0  0.24586  0.87490  0.11077  1.0000
  C   C186      1.0  0.22573  0.86016  0.10911  1.0000
  C   C187      1.0  0.23726  0.89799  0.11803  1.0000
  C   C188      1.0  0.25781  0.87859  0.09257  1.0000
  C   C189      1.0  0.26269  0.86287  0.12351  1.0000
  H   H315      1.0  0.23161  0.84251  0.10384  1.0000
  H   H316      1.0  0.21257  0.86866  0.09964  1.0000
  H   H317      1.0  0.21647  0.85720  0.12274  1.0000
  H   H318      1.0  0.22853  0.89585  0.13194  1.0000
  H   H319      1.0  0.25201  0.90963  0.11935  1.0000
  C   C190      1.0  0.08352  0.64874  0.13845  1.0000
  H   H320      1.0  0.08972  0.65257  0.12402  1.0000
  H   H321      1.0  0.02531  0.66378  0.13312  1.0000
  S   S83       1.0  0.32170  0.89544  0.12694  1.0000
  C   C191      1.0  0.31634  0.86196  0.24788  1.0000
  H   H322      1.0  0.07612  0.69309  0.14961  1.0000
  C   C192      1.0  0.08601  0.51893  0.01963  1.0000
  N   N22       1.0  0.06055  0.66149  0.14276  1.0000
  H   H323      1.0  0.04596  0.69744  0.14382  1.0000
  H   H324      1.0  0.05111  0.63653  0.16439  1.0000
  C   C193      1.0  0.01393  0.74213  0.17188  1.0000
  C   C194      1.0  0.06286  0.68718  0.14037  1.0000
  H   H325      1.0  0.04805  0.65847  0.11559  1.0000
  H   H326      1.0  0.04057  0.63506  0.13165  1.0000
  C   C195      1.0  0.04281  0.65436  0.13022  1.0000
  H   H327      1.0  0.00478  0.68592  0.18645  1.0000
  S   S84       1.0  0.31874  0.84098  0.21373  1.0000
  H   H328      1.0  0.31724  0.83468  0.08054  1.0000
  C   C196      1.0  0.25346  0.99139  0.17939  1.0000
  C   C197      1.0  0.32278  0.84187  0.23784  1.0000
  H   H329      1.0  0.00364  0.58616  0.01380  1.0000
  C   C198      1.0  0.32264  0.88433  0.10448  1.0000
  C   C199      1.0  0.31823  0.86099  0.10111  1.0000
  H   H330      1.0  0.20765  0.71952  0.25094  1.0000
  C   C200      1.0  0.99886  0.60165  0.00531  1.0000
  C   C201      1.0  0.32032  0.85285  0.08301  1.0000
  C   C202      1.0  0.00095  0.70373  0.18109  1.0000
  C   C203      1.0  0.17366  0.66039  0.24751  1.0000
  C   C204      1.0  0.32700  0.86787  0.06815  1.0000
  H   H331      1.0  0.04311  0.56478  0.00314  1.0000
  Fe  Fe43      1.0  0.22897  0.65288  0.33134  1.0000
  S   S85       1.0  0.19172  0.66223  0.34143  1.0000
  S   S86       1.0  0.24904  0.68646  0.32593  1.0000
  Fe  Fe44      1.0  0.21788  0.59998  0.32806  1.0000
  S   S87       1.0  0.18007  0.60717  0.33717  1.0000
  S   S88       1.0  0.23448  0.56211  0.32546  1.0000
  Fe  Fe45      1.0  0.18126  0.63996  0.31860  1.0000
  S   S89       1.0  0.15102  0.65556  0.30142  1.0000
  Fe  Fe46      1.0  0.19410  0.62875  0.35899  1.0000
  S   S90       1.0  0.18884  0.61944  0.38965  1.0000
  S   S91       1.0  0.21828  0.63153  0.30786  1.0000
  S   S92       1.0  0.23215  0.62077  0.35043  1.0000
  H   H332      1.0  0.21676  0.74536  0.28652  1.0000
  H   H333      1.0  0.06852  0.55866  0.47689  1.0000
  C   C205      1.0  0.18828  0.51030  0.32116  1.0000
  C   C206      1.0  0.13200  0.51661  0.49940  1.0000
  H   H334      1.0  0.18851  0.70193  0.37716  1.0000
  H   H335      1.0  0.06655  0.57121  0.49918  1.0000
  Fe  Fe47      1.0  0.11616  0.64092  0.48275  1.0000
  S   S93       1.0  0.12033  0.65948  0.45455  1.0000
  S   S94       1.0  0.09854  0.60671  0.48540  1.0000
  S   S95       1.0  0.14669  0.62798  0.49965  1.0000
  C   C207      1.0  0.13529  0.67737  0.26928  1.0000
  H   H336      1.0  0.21261  0.51177  0.38533  1.0000
  H   H337      1.0  0.19121  0.67044  0.38078  1.0000
  H   H338      1.0  0.23223  0.54947  0.38723  1.0000
  H   H339      1.0  0.21229  0.71207  0.41321  1.0000
  C   C208      1.0  0.22676  0.66816  0.40340  1.0000
  C   C209      1.0  0.31116  0.69826  0.34979  1.0000
  C   C210      1.0  0.16885  0.63050  0.40716  1.0000
  C   C211      1.0  0.17042  0.62033  0.42503  1.0000
  C   C212      1.0  0.15541  0.62873  0.43956  1.0000
  C   C213      1.0  0.13883  0.64766  0.43644  1.0000
  C   C214      1.0  0.13727  0.65784  0.41855  1.0000
  C   C215      1.0  0.15202  0.64917  0.40393  1.0000
  H   H340      1.0  0.18335  0.60589  0.42772  1.0000
  H   H341      1.0  0.15683  0.62075  0.45324  1.0000
  H   H342      1.0  0.12439  0.67240  0.41600  1.0000
  H   H343      1.0  0.15028  0.65694  0.39021  1.0000
  C   C216      1.0  0.29934  0.73330  0.33173  1.0000
  C   C217      1.0  0.19766  0.53266  0.32163  1.0000
  C   C218      1.0  0.22153  0.53435  0.32488  1.0000
  C   C219      1.0  0.23574  0.51332  0.32779  1.0000
  H   H344      1.0  0.21557  0.66791  0.41632  1.0000
  H   H345      1.0  0.18650  0.54856  0.31910  1.0000
  H   H346      1.0  0.25425  0.51431  0.33020  1.0000
  H   H347      1.0  0.21689  0.57685  0.38013  1.0000
  C   C220      1.0  0.15300  0.66238  0.27739  1.0000
  C   C221      1.0  0.17207  0.65372  0.26635  1.0000
  C   C222      1.0  0.22293  0.71073  0.40006  1.0000
  H   H348      1.0  0.18555  0.64178  0.27230  1.0000
  H   H349      1.0  0.24545  0.66858  0.40718  1.0000
  C   C223      1.0  0.32066  0.86209  0.26683  1.0000
  C   C224      1.0  0.29093  0.68729  0.34476  1.0000
  C   C225      1.0  0.27481  0.69925  0.33309  1.0000
  C   C226      1.0  0.27915  0.72235  0.32671  1.0000
  H   H350      1.0  0.12039  0.68408  0.27769  1.0000
  H   H351      1.0  0.02839  0.65059  0.49492  1.0000
  H   H352      1.0  0.28801  0.66950  0.34973  1.0000
  H   H353      1.0  0.20608  0.51879  0.36180  1.0000
  C   C227      1.0  0.19448  0.68743  0.38697  1.0000
  C   C228      1.0  0.22505  0.68767  0.27574  1.0000
  N   N23       1.0  0.19617  0.54659  0.38037  1.0000
  C   C229      1.0  0.19954  0.52126  0.37627  1.0000
  C   C230      1.0  0.18724  0.54924  0.39958  1.0000
  C   C231      1.0  0.17896  0.55841  0.36782  1.0000
  C   C232      1.0  0.21891  0.55758  0.37774  1.0000
  C   C233      1.0  0.19652  0.71721  0.26373  1.0000
  H   H354      1.0  0.18602  0.73417  0.26604  1.0000
  H   H355      1.0  0.18275  0.51235  0.37807  1.0000
  H   H356      1.0  0.16995  0.54142  0.40199  1.0000
  H   H357      1.0  0.23796  0.72321  0.29519  1.0000
  H   H358      1.0  0.18465  0.56824  0.40301  1.0000
  H   H359      1.0  0.17525  0.57733  0.37105  1.0000
  H   H360      1.0  0.16189  0.54997  0.36877  1.0000
  H   H361      1.0  0.18567  0.55780  0.35327  1.0000
  H   H362      1.0  0.19971  0.54049  0.40948  1.0000
  H   H363      1.0  0.30236  0.75102  0.32661  1.0000
  N   N24       1.0  0.21088  0.70982  0.27968  1.0000
  H   H364      1.0  0.21753  0.72635  0.39109  1.0000
  H   H365      1.0  0.04511  0.52333  0.47193  1.0000
  N   N25       1.0  0.21958  0.68843  0.39104  1.0000
  H   H366      1.0  0.02387  0.57975  0.49305  1.0000
  H   H367      1.0  0.26686  0.73193  0.31777  1.0000
  H   H368      1.0  0.16988  0.50931  0.31838  1.0000
  H   H369      1.0  0.22635  0.55554  0.36348  1.0000
  H   H370      1.0  0.05478  0.50905  0.49300  1.0000
  H   H371      1.0  0.18381  0.70388  0.26102  1.0000
  C   C234      1.0  0.23411  0.68737  0.37374  1.0000
  H   H372      1.0  0.20538  0.70048  0.30837  1.0000
  H   H373      1.0  0.23704  0.68988  0.26343  1.0000
  H   H374      1.0  0.18295  0.68876  0.39968  1.0000
  H   H375      1.0  0.18396  0.72216  0.29931  1.0000
  C   C235      1.0  0.02342  0.56190  0.48737  1.0000
  H   H376      1.0  0.02608  0.56405  0.47220  1.0000
  H   H377      1.0  0.25316  0.68843  0.37622  1.0000
  H   H378      1.0  0.24172  0.71217  0.40325  1.0000
  H   H379      1.0  0.31583  0.87785  0.27435  1.0000
  H   H380      1.0  0.23231  0.67064  0.36666  1.0000
  C   C236      1.0  0.06505  0.55464  0.49178  1.0000
  C   C237      1.0  0.19518  0.70595  0.29604  1.0000
  H   H381      1.0  0.22495  0.65108  0.39678  1.0000
  H   H382      1.0  0.21365  0.67320  0.27307  1.0000
  C   C238      1.0  0.22680  0.72842  0.28329  1.0000
  H   H383      1.0  0.22895  0.70212  0.36387  1.0000
  H   H384      1.0  0.18317  0.69178  0.29388  1.0000
  C   C239      1.0  0.31556  0.72131  0.34327  1.0000
  C   C240      1.0  0.04130  0.52202  0.48703  1.0000
  H   H385      1.0  0.23885  0.73188  0.27120  1.0000
  H   H386      1.0  0.23607  0.68161  0.28752  1.0000
  H   H387      1.0  0.00541  0.55592  0.49033  1.0000
  H   H388      1.0  0.02388  0.51447  0.48943  1.0000
  H   H389      1.0  0.32355  0.68876  0.35871  1.0000
  H   H390      1.0  0.14474  0.51455  0.48804  1.0000
  H   H391      1.0  0.07944  0.54185  0.49639  1.0000
  N   N26       1.0  0.04168  0.54526  0.49540  1.0000
  C   C241      1.0  0.01297  0.64173  0.49978  1.0000
  S   S96       1.0  0.14841  0.56018  0.50269  1.0000
  H   H392      1.0  0.32017  0.57055  0.67438  1.0000
  Fe  Fe48      1.0  0.12524  0.64071  0.52445  1.0000
  S   S97       1.0  0.14730  0.65656  0.54585  1.0000
  S   S98       1.0  0.10785  0.60688  0.52969  1.0000
  Fe  Fe49      1.0  0.23406  0.64737  0.66353  1.0000
  S   S99       1.0  0.19754  0.66514  0.66278  1.0000
  S   S100      1.0  0.26872  0.66306  0.65382  1.0000
  Fe  Fe50      1.0  0.21599  0.60001  0.67732  1.0000
  S   S101      1.0  0.17820  0.61443  0.67859  1.0000
  S   S102      1.0  0.23271  0.56282  0.68363  1.0000
  Fe  Fe51      1.0  0.18624  0.63197  0.65087  1.0000
  S   S103      1.0  0.15628  0.62863  0.63137  1.0000
  Fe  Fe52      1.0  0.19119  0.64690  0.69053  1.0000
  S   S104      1.0  0.16967  0.67173  0.70985  1.0000
  S   S105      1.0  0.22325  0.61555  0.64896  1.0000
  S   S106      1.0  0.22855  0.63114  0.69188  1.0000
  C   C242      1.0  0.16158  0.66976  0.73370  1.0000
  C   C243      1.0  0.11652  0.49890  0.50377  1.0000
  H   H393      1.0  0.13510  0.68574  0.67888  1.0000
  C   C244      1.0  0.14913  0.68925  0.74177  1.0000
  H   H394      1.0  0.17632  0.63430  0.73868  1.0000
  H   H395      1.0  0.18065  0.59272  0.51735  1.0000
  H   H396      1.0  0.14485  0.70501  0.73341  1.0000
  C   C245      1.0  0.09097  0.67169  0.67726  1.0000
  C   C246      1.0  0.23391  0.51406  0.68290  1.0000
  C   C247      1.0  0.22002  0.53541  0.68049  1.0000
  C   C248      1.0  0.19648  0.53434  0.67600  1.0000
  C   C249      1.0  0.18693  0.51228  0.67423  1.0000
  H   H397      1.0  0.25212  0.51457  0.68642  1.0000
  H   H398      1.0  0.18550  0.55052  0.67418  1.0000
  C   C250      1.0  0.14946  0.64854  0.56962  1.0000
  C   C251      1.0  0.16795  0.65666  0.57937  1.0000
  C   C252      1.0  0.17069  0.65031  0.59814  1.0000
  C   C253      1.0  0.15465  0.63611  0.60748  1.0000
  C   C254      1.0  0.13612  0.62804  0.59774  1.0000
  C   C255      1.0  0.13360  0.63407  0.57892  1.0000
  H   H399      1.0  0.18025  0.66796  0.57235  1.0000
  H   H400      1.0  0.18492  0.65682  0.60545  1.0000
  H   H401      1.0  0.12351  0.61717  0.60484  1.0000
  H   H402      1.0  0.11915  0.62788  0.57169  1.0000
  H   H403      1.0  0.28444  0.71666  0.70318  1.0000
  H   H404      1.0  0.26116  0.68755  0.68860  1.0000
  H   H405      1.0  0.03787  0.55962  0.52234  1.0000
  H   H406      1.0  0.11869  0.66448  0.70626  1.0000
  H   H407      1.0  0.08740  0.67764  0.66283  1.0000
  C   C256      1.0  0.99520  0.61071  0.51799  1.0000
  H   H408      1.0  0.20792  0.60132  0.52563  1.0000
  C   C257      1.0  0.30489  0.69266  0.65579  1.0000
  C   C258      1.0  0.28422  0.68468  0.66453  1.0000
  C   C259      1.0  0.27694  0.69353  0.68164  1.0000
  H   H409      1.0  0.05007  0.52960  0.52187  1.0000
  H   H410      1.0  0.26534  0.60844  0.66789  1.0000
  Fe  Fe53      1.0  0.07983  0.62168  0.51062  1.0000
  S   S107      1.0  0.09570  0.65705  0.50714  1.0000
  H   H411      1.0  0.18672  0.55344  0.53256  1.0000
  H   H412      1.0  0.13392  0.63782  0.69878  1.0000
  H   H413      1.0  0.10269  0.63871  0.70363  1.0000
  H   H414      1.0  0.11239  0.55600  0.53146  1.0000
  N   N27       1.0  0.18478  0.58628  0.54635  1.0000
  C   C260      1.0  0.19594  0.59706  0.56162  1.0000
  C   C261      1.0  0.19496  0.56188  0.54406  1.0000
  C   C262      1.0  0.18883  0.60040  0.52917  1.0000
  C   C263      1.0  0.15921  0.58583  0.55047  1.0000
  H   H415      1.0  0.18882  0.61564  0.56332  1.0000
  H   H416      1.0  0.21532  0.59742  0.55914  1.0000
  H   H417      1.0  0.19266  0.58735  0.57495  1.0000
  H   H418      1.0  0.29450  0.77992  0.60183  1.0000
  H   H419      1.0  0.19205  0.55070  0.55673  1.0000
  H   H420      1.0  0.32304  0.74556  0.60599  1.0000
  H   H421      1.0  0.28135  0.63428  0.68983  1.0000
  H   H422      1.0  0.15534  0.57634  0.56379  1.0000
  H   H423      1.0  0.15038  0.57694  0.53958  1.0000
  N   N28       1.0  0.30944  0.76816  0.62751  1.0000
  C   C264      1.0  0.31765  0.74464  0.62086  1.0000
  H   H424      1.0  0.14967  0.65884  0.67128  1.0000
  N   N29       1.0  0.11305  0.65650  0.67819  1.0000
  H   H425      1.0  0.09641  0.62495  0.67215  1.0000
  C   C265      1.0  0.32100  0.58924  0.67826  1.0000
  C   C266      1.0  0.11129  0.63546  0.66713  1.0000
  C   C267      1.0  0.16685  0.64947  0.74466  1.0000
  C   C268      1.0  0.29903  0.62521  0.68706  1.0000
  H   H426      1.0  0.18108  0.61889  0.53036  1.0000
  C   C269      1.0  0.31808  0.70929  0.66400  1.0000
  H   H427      1.0  0.10877  0.64044  0.65235  1.0000
  C   C270      1.0  0.31075  0.71823  0.68109  1.0000
  C   C271      1.0  0.28324  0.59997  0.66544  1.0000
  C   C272      1.0  0.11365  0.54013  0.52373  1.0000
  C   C273      1.0  0.28545  0.58731  0.69735  1.0000
  H   H428      1.0  0.12769  0.62360  0.66759  1.0000
  S   S108      1.0  0.04320  0.61052  0.51959  1.0000
  H   H429      1.0  0.09186  0.68776  0.68541  1.0000
  H   H430      1.0  0.15079  0.60401  0.55131  1.0000
  H   H431      1.0  0.30761  0.63566  0.67571  1.0000
  H   H432      1.0  0.13060  0.67566  0.65612  1.0000
  C   C274      1.0  0.13287  0.66988  0.67077  1.0000
  H   H433      1.0  0.07561  0.66218  0.68280  1.0000
  C   C275      1.0  0.11717  0.64902  0.69754  1.0000
  H   H434      1.0  0.28787  0.75338  0.64949  1.0000
  H   H435      1.0  0.28100  0.58159  0.66139  1.0000
  C   C276      1.0  0.29019  0.71008  0.68988  1.0000
  H   H436      1.0  0.29505  0.78327  0.65256  1.0000
  H   H437      1.0  0.31091  0.68567  0.64269  1.0000
  H   H438      1.0  0.21424  0.56150  0.54083  1.0000
  H   H439      1.0  0.16858  0.51179  0.67112  1.0000
  H   H440      1.0  0.28345  0.56863  0.69390  1.0000
  H   H441      1.0  0.29139  0.60981  0.65356  1.0000
  N   N30       1.0  0.29719  0.60044  0.68205  1.0000
  H   H442      1.0  0.27439  0.76635  0.61805  1.0000
  H   H443      1.0  0.30940  0.62637  0.69956  1.0000
  C   C277      1.0  0.09979  0.50169  0.51826  1.0000
  C   C278      1.0  0.09858  0.52218  0.52840  1.0000
  C   C279      1.0  0.01542  0.62205  0.51188  1.0000
  C   C280      1.0  0.32061  0.86478  0.74724  1.0000
  H   H444      1.0  0.26734  0.59517  0.70049  1.0000
  H   H445      1.0  0.08583  0.52428  0.53974  1.0000
  C   C281      1.0  0.13030  0.53739  0.50918  1.0000
  H   H446      1.0  0.28285  0.79575  0.62138  1.0000
  C   C282      1.0  0.28939  0.77795  0.61671  1.0000
  H   H447      1.0  0.31688  0.75941  0.65574  1.0000
  C   C283      1.0  0.30192  0.76598  0.64714  1.0000
  H   H448      1.0  0.29540  0.58719  0.71017  1.0000
  C   C284      1.0  0.03699  0.54254  0.51546  1.0000
  H   H449      1.0  0.30366  0.73190  0.62278  1.0000
  H   H450      1.0  0.01924  0.53612  0.51872  1.0000
  H   H451      1.0  0.99691  0.59547  0.52735  1.0000
  Fe  Fe54      1.0  0.12760  0.59512  0.50417  1.0000
  H   H452      1.0  0.24819  0.83317  0.74806  1.0000
  H   H453      1.0  0.31992  0.95733  0.57373  1.0000
  H   H454      1.0  0.32384  0.95488  0.53944  1.0000
  H   H455      1.0  0.31616  0.88097  0.73943  1.0000
  H   H456      1.0  0.32358  0.80202  0.63033  1.0000
  S   S109      1.0  0.32701  0.73866  0.69250  1.0000
  Fe  Fe55      1.0  0.28528  0.87973  0.86031  1.0000
  S   S110      1.0  0.25380  0.90282  0.85099  1.0000
  C   C285      1.0  0.30114  0.87663  0.92672  1.0000
  Fe  Fe56      1.0  0.29947  0.86749  0.81998  1.0000
  S   S111      1.0  0.26898  0.89001  0.80899  1.0000
  H   H457      1.0  0.03899  0.53649  0.94999  1.0000
  Fe  Fe57      1.0  0.27833  0.91707  0.82897  1.0000
  S   S112      1.0  0.28341  0.95513  0.81843  1.0000
  Fe  Fe58      1.0  0.24763  0.87338  0.83222  1.0000
  S   S113      1.0  0.21109  0.85955  0.82885  1.0000
  S   S114      1.0  0.31029  0.89518  0.83894  1.0000
  S   S115      1.0  0.27767  0.84979  0.84245  1.0000
  H   H458      1.0  0.06329  0.67566  0.93178  1.0000
  H   H459      1.0  0.05901  0.73188  0.96924  1.0000
  N   N31       1.0  0.04362  0.55359  0.97527  1.0000
  H   H460      1.0  0.03574  0.72205  0.93309  1.0000
  H   H461      1.0  0.06277  0.71623  0.91990  1.0000
  H   H462      1.0  0.31351  0.87604  0.95449  1.0000
  Fe  Fe59      1.0  0.11593  0.64175  0.98668  1.0000
  S   S116      1.0  0.14031  0.65328  0.96293  1.0000
  S   S117      1.0  0.08648  0.61812  0.98342  1.0000
  Fe  Fe60      1.0  0.12394  0.69437  0.81545  1.0000
  S   S118      1.0  0.11727  0.73365  0.81054  1.0000
  S   S119      1.0  0.13987  0.66663  0.79554  1.0000
  Fe  Fe61      1.0  0.11167  0.69739  0.85750  1.0000
  S   S120      1.0  0.10551  0.73690  0.85518  1.0000
  S   S121      1.0  0.10077  0.67497  0.88290  1.0000
  Fe  Fe62      1.0  0.08530  0.73001  0.83003  1.0000
  S   S122      1.0  0.04827  0.74860  0.82882  1.0000
  Fe  Fe63      1.0  0.13793  0.73717  0.83604  1.0000
  S   S123      1.0  0.17294  0.75561  0.83656  1.0000
  S   S124      1.0  0.09065  0.69064  0.83292  1.0000
  S   S125      1.0  0.14530  0.69773  0.84039  1.0000
  C   C286      1.0  0.02040  0.71533  0.81500  1.0000
  C   C287      1.0  0.02118  0.73609  0.82461  1.0000
  H   H463      1.0  0.27495  0.83926  0.75858  1.0000
  H   H464      1.0  0.03667  0.70611  0.81029  1.0000
  C   C288      1.0  0.03464  0.57710  0.96815  1.0000
  C   C289      1.0  0.27549  0.98386  0.82676  1.0000
  C   C290      1.0  0.14730  0.66826  0.77156  1.0000
  H   H465      1.0  0.16384  0.63294  0.77181  1.0000
  C   C291      1.0  0.13021  0.65820  0.94028  1.0000
  C   C292      1.0  0.14222  0.67297  0.92766  1.0000
  C   C293      1.0  0.13379  0.67812  0.90987  1.0000
  C   C294      1.0  0.11351  0.66813  0.90445  1.0000
  C   C295      1.0  0.10205  0.65275  0.91687  1.0000
  C   C296      1.0  0.11013  0.64803  0.93474  1.0000
  H   H466      1.0  0.15787  0.68079  0.93178  1.0000
  H   H467      1.0  0.14289  0.68987  0.90041  1.0000
  H   H468      1.0  0.08660  0.64464  0.91269  1.0000
  H   H469      1.0  0.10094  0.63636  0.94417  1.0000
  H   H470      1.0  0.06544  0.66870  0.95595  1.0000
  C   C297      1.0  0.14206  0.68856  0.76058  1.0000
  H   H471      1.0  0.01415  0.53622  0.96604  1.0000
  C   C298      1.0  0.06961  0.55151  0.97320  1.0000
  H   H472      1.0  0.23392  0.71836  0.79876  1.0000
  H   H473      1.0  0.06004  0.74023  0.93531  1.0000
  C   C299      1.0  0.25849  0.82977  0.76066  1.0000
  C   C300      1.0  0.20090  0.83045  0.83103  1.0000
  C   C301      1.0  0.21614  0.81034  0.83388  1.0000
  C   C302      1.0  0.20719  0.78773  0.83555  1.0000
  C   C303      1.0  0.18293  0.78478  0.83435  1.0000
  C   C304      1.0  0.16773  0.80487  0.83134  1.0000
  C   C305      1.0  0.17668  0.82750  0.82969  1.0000
  H   H474      1.0  0.23483  0.81212  0.83482  1.0000
  H   H475      1.0  0.21917  0.77237  0.83790  1.0000
  H   H476      1.0  0.14905  0.80300  0.83035  1.0000
  H   H477      1.0  0.16466  0.84285  0.82741  1.0000
  H   H478      1.0  0.21244  0.83050  0.79204  1.0000
  H   H479      1.0  0.21166  0.73981  0.80696  1.0000
  H   H480      1.0  0.21383  0.68653  0.81613  1.0000
  C   C306      1.0  0.23819  0.86315  0.77535  1.0000
  H   H481      1.0  0.25525  0.97254  0.85067  1.0000
  C   C307      1.0  0.11753  0.53658  0.00197  1.0000
  H   H482      1.0  0.04002  0.51705  0.97007  1.0000
  C   C308      1.0  0.19682  0.69632  0.81292  1.0000
  C   C309      1.0  0.05526  0.72181  0.93357  1.0000
  N   N32       1.0  0.21809  0.84671  0.88849  1.0000
  C   C310      1.0  0.22324  0.84384  0.90821  1.0000
  C   C311      1.0  0.21663  0.87209  0.88302  1.0000
  C   C312      1.0  0.19547  0.83667  0.88509  1.0000
  C   C313      1.0  0.23716  0.83430  0.87754  1.0000
  H   H483      1.0  0.22461  0.82488  0.91279  1.0000
  H   H484      1.0  0.20929  0.85308  0.91695  1.0000
  H   H485      1.0  0.24031  0.85128  0.91104  1.0000
  H   H486      1.0  0.21304  0.87491  0.86814  1.0000
  H   H487      1.0  0.20234  0.88206  0.89092  1.0000
  H   H488      1.0  0.23341  0.88023  0.88547  1.0000
  H   H489      1.0  0.19116  0.83881  0.87029  1.0000
  H   H490      1.0  0.18063  0.84552  0.89319  1.0000
  H   H491      1.0  0.19601  0.81744  0.88878  1.0000
  H   H492      1.0  0.23847  0.81500  0.88093  1.0000
  H   H493      1.0  0.25457  0.84110  0.88004  1.0000
  H   H494      1.0  0.23414  0.83672  0.86259  1.0000
  N   N33       1.0  0.19833  0.70965  0.79512  1.0000
  H   H495      1.0  0.17533  0.73158  0.77781  1.0000
  C   C314      1.0  0.21630  0.72710  0.79586  1.0000
  C   C315      1.0  0.17527  0.72214  0.79147  1.0000
  H   H496      1.0  0.19200  0.70830  0.82443  1.0000
  H   H497      1.0  0.21786  0.73748  0.78265  1.0000
  H   H498      1.0  0.22677  0.86730  0.76347  1.0000
  H   H499      1.0  0.00007  0.76414  0.83766  1.0000
  H   H500      1.0  0.07697  0.53382  0.97814  1.0000
  C   C316      1.0  0.05747  0.68160  0.94568  1.0000
  H   H501      1.0  0.99665  0.66102  0.85397  1.0000
  C   C317      1.0  0.00896  0.63891  0.99084  1.0000
  H   H502      1.0  0.16110  0.70967  0.79172  1.0000
  N   N34       1.0  0.06426  0.70578  0.94856  1.0000
  H   H503      1.0  0.09782  0.69329  0.95918  1.0000
  H   H504      1.0  0.03453  0.71386  0.96699  1.0000
  C   C318      1.0  0.20482  0.69308  0.78032  1.0000
  C   C319      1.0  0.09021  0.70585  0.94850  1.0000
  C   C320      1.0  0.05410  0.71379  0.96643  1.0000
  H   H505      1.0  0.09833  0.70055  0.93500  1.0000
  C   C321      1.0  0.22327  0.82453  0.77976  1.0000
  H   H506      1.0  0.20513  0.70227  0.76654  1.0000
  H   H507      1.0  0.22756  0.80523  0.78179  1.0000
  H   H508      1.0  0.21197  0.82733  0.76765  1.0000
  H   H509      1.0  0.09605  0.72362  0.95117  1.0000
  H   H510      1.0  0.06034  0.70183  0.97795  1.0000
  H   H511      1.0  0.99823  0.69119  0.80302  1.0000
  H   H512      1.0  0.07575  0.55419  0.95862  1.0000
  S   S126      1.0  0.09283  0.67103  0.99885  1.0000
  H   H513      1.0  0.22242  0.68380  0.78232  1.0000
  H   H514      1.0  0.22836  0.86975  0.78790  1.0000
  H   H515      1.0  0.12676  0.55195  0.99752  1.0000
  S   S127      1.0  0.02949  0.66002  0.98616  1.0000
  S   S128      1.0  0.32229  0.84263  0.80142  1.0000
  C   C322      1.0  0.99974  0.74794  0.83039  1.0000
  H   H516      1.0  0.19192  0.67927  0.77997  1.0000
  H   H517      1.0  0.18321  0.68312  0.81290  1.0000
  H   H518      1.0  0.27550  0.84285  0.79226  1.0000
  H   H519      1.0  0.32218  0.94665  0.91846  1.0000
  C   C323      1.0  0.15969  0.64874  0.76346  1.0000
  C   C324      1.0  0.30722  0.87437  0.90790  1.0000
  H   H520      1.0  0.24963  0.83833  0.80638  1.0000
  H   H521      1.0  0.31849  0.92183  0.94652  1.0000
  H   H522      1.0  0.17015  0.73533  0.80204  1.0000
  N   N35       1.0  0.24482  0.83757  0.77730  1.0000
  H   H523      1.0  0.13238  0.70365  0.76652  1.0000
  H   H524      1.0  0.04228  0.59146  0.97543  1.0000
  S   S129      1.0  0.28434  0.87638  0.89184  1.0000
  H   H525      1.0  0.28285  0.87988  0.93104  1.0000
  H   H526      1.0  0.07762  0.56487  0.98134  1.0000
  C   C325      1.0  0.03646  0.55070  0.99492  1.0000
  H   H527      1.0  0.26389  0.81057  0.76166  1.0000
  C   C326      1.0  0.12572  0.51400  0.99608  1.0000
  H   H528      1.0  0.03804  0.68047  0.94705  1.0000
  H   H529      1.0  0.03923  0.57974  0.95325  1.0000
  H   H530      1.0  0.14133  0.51215  0.98713  1.0000
  C   C327      1.0  0.25938  0.83290  0.79353  1.0000
  C   C328      1.0  0.26157  0.98754  0.84282  1.0000
  C   C329      1.0  0.03376  0.53502  0.96486  1.0000
  C   C330      1.0  0.31851  0.87449  0.94007  1.0000
  H   H531      1.0  0.25404  0.87352  0.77314  1.0000
  H   H532      1.0  0.26521  0.81388  0.79530  1.0000
  C   C331      1.0  0.99853  0.70697  0.81082  1.0000
  H   H533      1.0  0.99633  0.69242  0.84983  1.0000
  H   H534      1.0  0.31872  0.97234  0.93221  1.0000
  H   H535      1.0  0.31633  0.94693  0.96093  1.0000
  C   C332      1.0  0.31749  0.86427  0.76660  1.0000
  H   H536      1.0  0.31081  0.88001  0.77352  1.0000
  H   H537      1.0  0.01512  0.57961  0.97004  1.0000
  Fe  Fe64      1.0  0.06419  0.64653  0.99744  1.0000
  C   C333      1.0  0.32396  0.84373  0.77694  1.0000
  H   H538      1.0  0.01694  0.55152  0.99696  1.0000
  H   H539      1.0  0.04357  0.53348  0.00092  1.0000
  C   C334      1.0  0.01533  0.61838  0.00118  1.0000
  Fe  Fe65      1.0  0.62401  0.13229  0.02386  1.0000
  C   C335      1.0  0.34555  0.17967  0.24607  1.0000
  S   S130      1.0  0.60605  0.09930  0.03175  1.0000
  Fe  Fe66      1.0  0.36413  0.11758  0.02392  1.0000
  C   C336      1.0  0.66001  0.16604  0.23625  1.0000
  S   S131      1.0  0.40154  0.10226  0.02434  1.0000
  H   H540      1.0  0.40363  0.19273  0.06713  1.0000
  C   C337      1.0  0.63041  0.19535  0.17557  1.0000
  H   H541      1.0  0.65117  0.09969  0.05368  1.0000
  H   H542      1.0  0.56732  0.02082  0.00666  1.0000
  C   C338      1.0  0.34031  0.12803  0.07229  1.0000
  H   H543      1.0  0.58592  0.18229  0.17732  1.0000
  C   C339      1.0  0.49401  0.10067  0.01163  1.0000
  H   H544      1.0  0.41302  0.18088  0.02685  1.0000
  H   H545      1.0  0.62244  0.17039  0.13476  1.0000
  C   C340      1.0  0.35606  0.11203  0.08142  1.0000
  C   C341      1.0  0.38618  0.01691  0.00417  1.0000
  C   C342      1.0  0.33202  0.16627  0.23505  1.0000
  H   H546      1.0  0.33209  0.16954  0.22032  1.0000
  C   C343      1.0  0.63122  0.13073  0.07848  1.0000
  C   C344      1.0  0.63409  0.12557  0.09739  1.0000
  H   H547      1.0  0.61645  0.12441  0.07171  1.0000
  H   H548      1.0  0.62143  0.11523  0.10499  1.0000
  H   H549      1.0  0.62683  0.21416  0.17112  1.0000
  H   H550      1.0  0.36697  0.09697  0.10769  1.0000
  C   C345      1.0  0.43810  0.14859  0.04747  1.0000
  C   C346      1.0  0.35442  0.10908  0.10078  1.0000
  H   H551      1.0  0.43516  0.13262  0.03973  1.0000
  S   S132      1.0  0.33546  0.11699  0.13564  1.0000
  C   C347      1.0  0.50993  0.13881  0.00651  1.0000
  H   H552      1.0  0.45669  0.09935  0.00775  1.0000
  H   H553      1.0  0.44932  0.15967  0.03826  1.0000
  H   H554      1.0  0.59558  0.05059  0.01216  1.0000
  N   N36       1.0  0.61985  0.17923  0.16328  1.0000
  C   C348      1.0  0.62998  0.18237  0.14438  1.0000
  C   C349      1.0  0.59409  0.18452  0.16326  1.0000
  H   H555      1.0  0.49646  0.08204  0.01529  1.0000
  C   C350      1.0  0.62496  0.15459  0.16994  1.0000
  H   H556      1.0  0.61786  0.15150  0.18424  1.0000
  S   S133      1.0  0.54141  0.10103  0.01639  1.0000
  Fe  Fe67      1.0  0.57909  0.11165  0.01105  1.0000
  Fe  Fe68      1.0  0.62698  0.08412  0.00785  1.0000
  S   S134      1.0  0.34280  0.13439  0.04811  1.0000
  H   H557      1.0  0.39683  0.13013  0.05731  1.0000
  H   H558      1.0  0.35592  0.19317  0.23961  1.0000
  H   H559      1.0  0.52455  0.14995  0.00658  1.0000
  H   H560      1.0  0.62355  0.19307  0.19003  1.0000
  H   H561      1.0  0.44837  0.14264  0.05966  1.0000
  H   H562      1.0  0.61762  0.14178  0.16091  1.0000
  H   H563      1.0  0.62670  0.20079  0.13889  1.0000
  N   N37       1.0  0.41557  0.16154  0.05282  1.0000
  C   C351      1.0  0.40274  0.16903  0.03613  1.0000
  C   C352      1.0  0.62628  0.02691  0.00740  1.0000
  C   C353      1.0  0.40103  0.14602  0.06464  1.0000
  C   C354      1.0  0.42032  0.18257  0.06299  1.0000
  H   H564      1.0  0.38528  0.17821  0.03955  1.0000
  S   S135      1.0  0.64623  0.04833  0.01073  1.0000
  H   H565      1.0  0.58566  0.17253  0.15416  1.0000
  C   C355      1.0  0.64712  0.14447  0.06849  1.0000
  H   H566      1.0  0.38382  0.15521  0.06883  1.0000
  H   H567      1.0  0.64938  0.17811  0.14384  1.0000
  H   H568      1.0  0.41006  0.13981  0.07737  1.0000
  C   C356      1.0  0.63447  0.00382  0.00333  1.0000
  S   S136      1.0  0.64417  0.15166  0.04460  1.0000
  H   H569      1.0  0.42989  0.17753  0.07573  1.0000
  C   C357      1.0  0.51341  0.11469  0.01111  1.0000
  H   H570      1.0  0.39937  0.15358  0.02805  1.0000
  H   H571      1.0  0.43126  0.19464  0.05444  1.0000
  H   H572      1.0  0.36971  0.10217  0.07361  1.0000
  H   H573      1.0  0.64987  0.19182  0.17589  1.0000
  H   H574      1.0  0.64001  0.19968  0.23521  1.0000
  H   H575      1.0  0.64420  0.15016  0.17012  1.0000
  H   H576      1.0  0.65743  0.08469  0.03285  1.0000
  C   C358      1.0  0.64746  0.18565  0.24410  1.0000
  C   C359      1.0  0.33665  0.12152  0.11125  1.0000
  H   H577      1.0  0.58957  0.20298  0.15825  1.0000
  Fe  Fe69      1.0  0.39048  0.07620  0.00455  1.0000
  C   C360      1.0  0.58605  0.01601  0.00567  1.0000
  C   C361      1.0  0.60206  0.03292  0.00872  1.0000
  C   C362      1.0  0.47141  0.11046  0.00736  1.0000
  C   C363      1.0  0.65302  0.13375  0.10657  1.0000
  S   S137      1.0  0.35236  0.08944  0.00612  1.0000
  S   S138      1.0  0.40570  0.03869  0.00783  1.0000
  S   S139      1.0  0.65483  0.12749  0.13065  1.0000
  H   H578      1.0  0.65352  0.06800  0.05398  1.0000
  S   S140      1.0  0.59529  0.14633  0.00475  1.0000
  Fe  Fe70      1.0  0.36901  0.19948  0.30888  1.0000
  S   S141      1.0  0.37329  0.23804  0.31352  1.0000
  C   C364      1.0  0.61944  0.06246  0.46797  1.0000
  Fe  Fe71      1.0  0.37532  0.18638  0.35012  1.0000
  S   S142      1.0  0.37921  0.22384  0.35714  1.0000
  S   S143      1.0  0.38049  0.15604  0.37156  1.0000
  Fe  Fe72      1.0  0.34927  0.23350  0.33837  1.0000
  C   C365      1.0  0.65271  0.33067  0.32007  1.0000
  Fe  Fe73      1.0  0.40320  0.22554  0.33177  1.0000
  S   S144      1.0  0.43599  0.24636  0.33437  1.0000
  H   H579      1.0  0.36050  0.29542  0.38084  1.0000
  S   S145      1.0  0.40083  0.18745  0.32539  1.0000
  Fe  Fe74      1.0  0.61741  0.21056  0.35860  1.0000
  S   S146      1.0  0.59404  0.24203  0.34901  1.0000
  S   S147      1.0  0.61904  0.20943  0.39016  1.0000
  Fe  Fe75      1.0  0.63050  0.19778  0.31802  1.0000
  S   S148      1.0  0.60839  0.22879  0.30675  1.0000
  C   C366      1.0  0.56505  0.14870  0.43028  1.0000
  Fe  Fe76      1.0  0.62412  0.24921  0.32874  1.0000
  S   S149      1.0  0.63566  0.28701  0.32385  1.0000
  Fe  Fe77      1.0  0.58064  0.21858  0.32821  1.0000
  S   S150      1.0  0.54396  0.20838  0.32052  1.0000
  S   S151      1.0  0.64787  0.21870  0.33894  1.0000
  S   S152      1.0  0.60245  0.18668  0.33887  1.0000
  Fe  Fe78      1.0  0.61245  0.12848  0.48252  1.0000
  S   S153      1.0  0.57702  0.11427  0.48152  1.0000
  S   S154      1.0  0.63045  0.12877  0.45380  1.0000
  H   H580      1.0  0.57806  0.15951  0.42262  1.0000
  C   C367      1.0  0.53498  0.18042  0.42652  1.0000
  H   H581      1.0  0.55977  0.00770  0.49575  1.0000
  H   H582      1.0  0.59125  0.14950  0.25832  1.0000
  H   H583      1.0  0.62881  0.25825  0.40323  1.0000
  C   C368      1.0  0.55763  0.17721  0.45390  1.0000
  H   H584      1.0  0.53728  0.13616  0.45936  1.0000
  S   S155      1.0  0.34337  0.19550  0.33308  1.0000
  H   H585      1.0  0.55736  0.13763  0.42012  1.0000
  C   C369      1.0  0.52907  0.14883  0.44905  1.0000
  Fe  Fe79      1.0  0.37687  0.13347  0.48249  1.0000
  S   S156      1.0  0.36311  0.15767  0.45889  1.0000
  S   S157      1.0  0.38945  0.09527  0.48069  1.0000
  C   C370      1.0  0.61929  0.17455  0.44024  1.0000
  H   H586      1.0  0.36287  0.09956  0.44270  1.0000
  H   H587      1.0  0.49342  0.03580  0.48543  1.0000
  H   H588      1.0  0.54780  0.19194  0.41934  1.0000
  H   H589      1.0  0.65729  0.30877  0.37924  1.0000
  H   H590      1.0  0.57053  0.18918  0.44749  1.0000
  H   H591      1.0  0.61220  0.21011  0.42931  1.0000
  H   H592      1.0  0.57502  0.13664  0.44009  1.0000
  H   H593      1.0  0.61635  0.17933  0.45442  1.0000
  H   H594      1.0  0.54417  0.18818  0.46191  1.0000
  H   H595      1.0  0.52649  0.17089  0.41578  1.0000
  C   C371      1.0  0.62619  0.15116  0.43619  1.0000
  C   C372      1.0  0.63039  0.14542  0.41765  1.0000
  C   C373      1.0  0.62770  0.16281  0.40332  1.0000
  C   C374      1.0  0.62124  0.18629  0.40740  1.0000
  C   C375      1.0  0.34579  0.09868  0.43595  1.0000
  N   N38       1.0  0.54668  0.16378  0.43994  1.0000
  H   H596      1.0  0.63513  0.33596  0.31568  1.0000
  H   H597      1.0  0.63118  0.15813  0.38916  1.0000
  C   C376      1.0  0.46595  0.23513  0.33116  1.0000
  C   C377      1.0  0.47195  0.21311  0.32368  1.0000
  C   C378      1.0  0.49585  0.20527  0.32070  1.0000
  C   C379      1.0  0.51416  0.21909  0.32537  1.0000
  C   C380      1.0  0.50819  0.24097  0.33312  1.0000
  C   C381      1.0  0.48425  0.24897  0.33587  1.0000
  H   H598      1.0  0.45817  0.20224  0.31994  1.0000
  H   H599      1.0  0.50014  0.18834  0.31468  1.0000
  H   H600      1.0  0.52198  0.25191  0.33670  1.0000
  H   H601      1.0  0.47990  0.26606  0.34161  1.0000
  C   C382      1.0  0.37714  0.15798  0.39590  1.0000
  C   C383      1.0  0.36269  0.17584  0.40413  1.0000
  C   C384      1.0  0.35895  0.17563  0.42342  1.0000
  C   C385      1.0  0.36995  0.15790  0.43478  1.0000
  C   C386      1.0  0.38505  0.14048  0.42661  1.0000
  C   C387      1.0  0.38828  0.14032  0.40728  1.0000
  H   H602      1.0  0.35388  0.18945  0.39559  1.0000
  H   H603      1.0  0.39397  0.12694  0.43513  1.0000
  H   H604      1.0  0.39955  0.12646  0.40106  1.0000
  H   H605      1.0  0.65800  0.06391  0.48788  1.0000
  H   H606      1.0  0.34728  0.18924  0.42955  1.0000
  C   C388      1.0  0.64470  0.18750  0.26338  1.0000
  H   H607      1.0  0.52036  0.13843  0.43900  1.0000
  H   H608      1.0  0.61630  0.05956  0.48301  1.0000
  H   H609      1.0  0.63590  0.12744  0.41433  1.0000
  H   H610      1.0  0.63542  0.20296  0.26908  1.0000
  H   H611      1.0  0.52105  0.19212  0.43337  1.0000
  N   N39       1.0  0.57800  0.15988  0.28511  1.0000
  C   C389      1.0  0.58114  0.15216  0.30452  1.0000
  H   H612      1.0  0.61176  0.14410  0.27627  1.0000
  C   C390      1.0  0.48676  0.14682  0.49066  1.0000
  C   C391      1.0  0.47505  0.10678  0.49622  1.0000
  C   C392      1.0  0.65395  0.16940  0.27516  1.0000
  H   H613      1.0  0.34973  0.07003  0.46605  1.0000
  H   H614      1.0  0.58449  0.19027  0.26748  1.0000
  S   S158      1.0  0.36352  0.19322  0.27832  1.0000
  C   C393      1.0  0.63900  0.27427  0.40094  1.0000
  H   H615      1.0  0.42284  0.28804  0.36278  1.0000
  H   H616      1.0  0.33485  0.05548  0.44898  1.0000
  H   H617      1.0  0.54987  0.16526  0.26629  1.0000
  H   H618      1.0  0.61535  0.08157  0.46475  1.0000
  C   C394      1.0  0.55293  0.15928  0.28078  1.0000
  H   H619      1.0  0.64576  0.02460  0.48088  1.0000
  H   H620      1.0  0.34838  0.08520  0.42526  1.0000
  C   C395      1.0  0.64818  0.02929  0.46597  1.0000
  H   H621      1.0  0.34079  0.11299  0.47040  1.0000
  C   C396      1.0  0.34603  0.17557  0.26527  1.0000
  S   S159      1.0  0.64926  0.16971  0.29961  1.0000
  H   H622      1.0  0.57383  0.19695  0.29032  1.0000
  H   H623      1.0  0.58777  0.12544  0.27485  1.0000
  C   C397      1.0  0.61703  0.19200  0.42595  1.0000
  H   H624      1.0  0.57035  0.16386  0.31400  1.0000
  C   C398      1.0  0.64773  0.06058  0.44245  1.0000
  C   C399      1.0  0.58527  0.18423  0.28216  1.0000
  H   H625      1.0  0.57579  0.13387  0.30730  1.0000
  C   C400      1.0  0.47113  0.99904  0.50061  1.0000
  C   C401      1.0  0.59277  0.14399  0.27308  1.0000
  N   N40       1.0  0.49683  0.00162  0.49939  1.0000
  H   H626      1.0  0.34192  0.11615  0.42880  1.0000
  H   H627      1.0  0.51505  0.15968  0.45658  1.0000
  N   N41       1.0  0.38612  0.29714  0.35829  1.0000
  C   C402      1.0  0.38816  0.32281  0.35949  1.0000
  C   C403      1.0  0.40507  0.28413  0.36862  1.0000
  C   C404      1.0  0.38840  0.29071  0.33882  1.0000
  C   C405      1.0  0.36289  0.29091  0.36614  1.0000
  H   H628      1.0  0.40547  0.32810  0.35362  1.0000
  H   H629      1.0  0.38653  0.32831  0.37401  1.0000
  H   H630      1.0  0.37411  0.33308  0.35178  1.0000
  H   H631      1.0  0.63574  0.01907  0.45861  1.0000
  H   H632      1.0  0.40410  0.28852  0.38338  1.0000
  H   H633      1.0  0.40406  0.26468  0.36793  1.0000
  H   H634      1.0  0.40576  0.29506  0.33242  1.0000
  H   H635      1.0  0.37426  0.29982  0.33055  1.0000
  H   H636      1.0  0.38737  0.27143  0.33757  1.0000
  H   H637      1.0  0.36062  0.27169  0.36538  1.0000
  H   H638      1.0  0.34816  0.30025  0.35858  1.0000
  S   S160      1.0  0.53079  0.16046  0.49691  1.0000
  C   C406      1.0  0.64348  0.26770  0.36852  1.0000
  H   H639      1.0  0.56712  0.16522  0.46401  1.0000
  H   H640      1.0  0.63092  0.28298  0.36500  1.0000
  H   H641      1.0  0.59989  0.15251  0.30828  1.0000
  C   C407      1.0  0.50129  0.02700  0.49789  1.0000
  H   H642      1.0  0.65742  0.08725  0.47052  1.0000
  H   H643      1.0  0.54674  0.14119  0.28287  1.0000
  H   H644      1.0  0.45200  0.13584  0.48654  1.0000
  C   C408      1.0  0.49812  0.09951  0.50070  1.0000
  H   H645      1.0  0.33278  0.15445  0.28805  1.0000
  H   H646      1.0  0.60359  0.18557  0.28644  1.0000
  N   N42       1.0  0.64394  0.05499  0.46229  1.0000
  C   C409      1.0  0.33286  0.06998  0.45886  1.0000
  C   C410      1.0  0.46952  0.13032  0.49074  1.0000
  H   H647      1.0  0.52051  0.02972  0.49713  1.0000
  H   H648      1.0  0.33222  0.29497  0.32074  1.0000
  H   H649      1.0  0.62604  0.28955  0.39847  1.0000
  H   H650      1.0  0.48230  0.16512  0.48678  1.0000
  H   H651      1.0  0.54151  0.17115  0.28980  1.0000
  H   H652      1.0  0.63323  0.25179  0.37022  1.0000
  H   H653      1.0  0.60645  0.05245  0.46105  1.0000
  S   S161      1.0  0.45324  0.08648  0.49873  1.0000
  Fe  Fe80      1.0  0.41630  0.10333  0.50077  1.0000
  C   C411      1.0  0.50963  0.13967  0.49581  1.0000
  S   S162      1.0  0.60039  0.15725  0.50200  1.0000
  S   S163      1.0  0.40572  0.14211  0.50074  1.0000
  C   C412      1.0  0.33257  0.15795  0.27335  1.0000
  H   H654      1.0  0.63545  0.05144  0.43411  1.0000
  C   C413      1.0  0.65848  0.30699  0.32504  1.0000
  H   H655      1.0  0.64788  0.27710  0.41391  1.0000
  H   H656      1.0  0.64476  0.07993  0.43934  1.0000
  H   H657      1.0  0.65584  0.26513  0.35643  1.0000
  H   H658      1.0  0.33930  0.23861  0.27882  1.0000
  C   C414      1.0  0.51538  0.11590  0.50044  1.0000
  C   C415      1.0  0.57755  0.00591  0.50041  1.0000
  N   N43       1.0  0.65617  0.27147  0.38527  1.0000
  H   H659      1.0  0.49951  0.99732  0.47014  1.0000
  H   H660      1.0  0.46236  0.00710  0.48826  1.0000
  C   C416      1.0  0.66035  0.06776  0.47283  1.0000
  Fe  Fe81      1.0  0.56556  0.14089  0.50223  1.0000
  Fe  Fe82      1.0  0.60821  0.13014  0.52507  1.0000
  S   S164      1.0  0.57224  0.11592  0.52630  1.0000
  S   S165      1.0  0.62537  0.13326  0.55278  1.0000
  H   H661      1.0  0.55980  0.16052  0.63245  1.0000
  Fe  Fe83      1.0  0.38174  0.13314  0.52507  1.0000
  S   S166      1.0  0.38212  0.16050  0.54748  1.0000
  S   S167      1.0  0.39447  0.09465  0.52622  1.0000
  Fe  Fe84      1.0  0.37320  0.19094  0.65536  1.0000
  S   S168      1.0  0.37844  0.22863  0.64677  1.0000
  S   S169      1.0  0.36908  0.16153  0.63525  1.0000
  Fe  Fe85      1.0  0.36993  0.20213  0.69696  1.0000
  S   S170      1.0  0.37456  0.24069  0.69037  1.0000
  S   S171      1.0  0.37002  0.19209  0.72786  1.0000
  Fe  Fe86      1.0  0.34921  0.23802  0.66773  1.0000
  H   H662      1.0  0.49348  0.03664  0.50994  1.0000
  Fe  Fe87      1.0  0.40344  0.22766  0.67021  1.0000
  S   S172      1.0  0.43872  0.24518  0.66805  1.0000
  S   S173      1.0  0.34304  0.20004  0.67551  1.0000
  S   S174      1.0  0.39985  0.18930  0.67761  1.0000
  Fe  Fe88      1.0  0.61914  0.21211  0.64696  1.0000
  S   S175      1.0  0.59556  0.24322  0.65661  1.0000
  S   S176      1.0  0.61645  0.20991  0.61559  1.0000
  Fe  Fe89      1.0  0.63317  0.19899  0.68736  1.0000
  S   S177      1.0  0.60917  0.22830  0.69859  1.0000
  H   H663      1.0  0.65280  0.22439  0.72107  1.0000
  Fe  Fe90      1.0  0.58244  0.21810  0.67870  1.0000
  S   S178      1.0  0.54461  0.20720  0.68496  1.0000
  Fe  Fe91      1.0  0.62486  0.25044  0.67523  1.0000
  S   S179      1.0  0.63842  0.28605  0.68253  1.0000
  S   S180      1.0  0.60568  0.18691  0.66892  1.0000
  S   S181      1.0  0.62343  0.10236  0.50541  1.0000
  H   H664      1.0  0.44896  0.19261  0.71297  1.0000
  C   C417      1.0  0.45872  0.23545  0.72252  1.0000
  H   H665      1.0  0.58113  0.18222  0.63235  1.0000
  C   C418      1.0  0.35756  0.03005  0.50580  1.0000
  N   N44       1.0  0.43662  0.22391  0.72713  1.0000
  C   C419      1.0  0.55050  0.22033  0.63108  1.0000
  H   H666      1.0  0.34681  0.20688  0.62233  1.0000
  C   C420      1.0  0.51559  0.21805  0.67920  1.0000
  C   C421      1.0  0.49728  0.20261  0.68115  1.0000
  C   C422      1.0  0.47393  0.21024  0.67695  1.0000
  C   C423      1.0  0.46833  0.23378  0.67143  1.0000
  C   C424      1.0  0.48669  0.24918  0.66932  1.0000
  C   C425      1.0  0.51020  0.24134  0.67297  1.0000
  H   H667      1.0  0.50125  0.18448  0.68578  1.0000
  H   H668      1.0  0.46029  0.19791  0.67809  1.0000
  H   H669      1.0  0.48265  0.26741  0.66503  1.0000
  H   H670      1.0  0.52401  0.25351  0.67145  1.0000
  C   C426      1.0  0.34850  0.17845  0.74244  1.0000
  H   H671      1.0  0.65857  0.32777  0.69432  1.0000
  H   H672      1.0  0.65005  0.10454  0.74740  1.0000
  H   H673      1.0  0.53813  0.23370  0.62438  1.0000
  C   C427      1.0  0.37887  0.15994  0.57193  1.0000
  C   C428      1.0  0.38336  0.18032  0.58123  1.0000
  C   C429      1.0  0.38115  0.18092  0.60057  1.0000
  C   C430      1.0  0.37394  0.16123  0.61091  1.0000
  C   C431      1.0  0.36955  0.14081  0.60162  1.0000
  C   C432      1.0  0.37213  0.14008  0.58226  1.0000
  C   C433      1.0  0.43358  0.20578  0.71364  1.0000
  H   H674      1.0  0.38496  0.19666  0.60745  1.0000
  H   H675      1.0  0.36399  0.12544  0.60945  1.0000
  H   H676      1.0  0.36861  0.12426  0.57536  1.0000
  C   C434      1.0  0.62123  0.15441  0.57035  1.0000
  C   C435      1.0  0.62837  0.14800  0.58828  1.0000
  C   C436      1.0  0.62663  0.16448  0.60241  1.0000
  C   C437      1.0  0.61829  0.18785  0.59866  1.0000
  C   C438      1.0  0.61107  0.19425  0.58076  1.0000
  C   C439      1.0  0.61223  0.17762  0.56677  1.0000
  H   H677      1.0  0.51828  0.19232  0.64647  1.0000
  H   H678      1.0  0.60473  0.21229  0.57762  1.0000
  H   H679      1.0  0.60694  0.18296  0.55305  1.0000
  C   C440      1.0  0.39310  0.00388  0.50689  1.0000
  H   H680      1.0  0.42104  0.20378  0.74945  1.0000
  H   H681      1.0  0.38867  0.19578  0.57339  1.0000
  H   H682      1.0  0.54844  0.22246  0.64619  1.0000
  C   C441      1.0  0.52160  0.19121  0.63136  1.0000
  H   H683      1.0  0.46188  0.24899  0.73258  1.0000
  H   H684      1.0  0.33145  0.23439  0.62789  1.0000
  H   H685      1.0  0.50260  0.08131  0.50482  1.0000
  H   H686      1.0  0.44635  0.11987  0.52883  1.0000
  C   C442      1.0  0.63999  0.18224  0.74208  1.0000
  H   H687      1.0  0.45737  0.17229  0.56746  1.0000
  H   H688      1.0  0.62027  0.03898  0.51479  1.0000
  H   H689      1.0  0.33265  0.30094  0.67413  1.0000
  H   H690      1.0  0.51760  0.17319  0.62755  1.0000
  H   H691      1.0  0.33652  0.22690  0.60428  1.0000
  H   H692      1.0  0.65529  0.24615  0.73791  1.0000
  H   H693      1.0  0.64704  0.25507  0.71501  1.0000
  H   H694      1.0  0.50044  0.99942  0.52870  1.0000
  H   H695      1.0  0.42918  0.16025  0.56651  1.0000
  H   H696      1.0  0.47427  0.22242  0.72225  1.0000
  H   H697      1.0  0.50880  0.20416  0.62464  1.0000
  C   C443      1.0  0.55026  0.19384  0.60605  1.0000
  N   N45       1.0  0.54617  0.19609  0.62609  1.0000
  H   H698      1.0  0.62434  0.19060  0.73603  1.0000
  H   H699      1.0  0.41199  0.00153  0.50809  1.0000
  H   H700      1.0  0.56870  0.22480  0.62681  1.0000
  C   C444      1.0  0.43759  0.21260  0.74573  1.0000
  H   H701      1.0  0.43140  0.21396  0.69967  1.0000
  C   C445      1.0  0.56241  0.17901  0.63593  1.0000
  H   H702      1.0  0.45356  0.14230  0.57538  1.0000
  H   H703      1.0  0.63238  0.15923  0.61602  1.0000
  H   H704      1.0  0.42322  0.12934  0.54485  1.0000
  H   H705      1.0  0.55981  0.18028  0.65112  1.0000
  H   H706      1.0  0.44828  0.11154  0.55275  1.0000
  Fe  Fe92      1.0  0.36660  0.08939  0.50605  1.0000
  H   H707      1.0  0.41767  0.19594  0.71709  1.0000
  C   C446      1.0  0.61173  0.02363  0.51086  1.0000
  H   H708      1.0  0.56855  0.19791  0.60173  1.0000
  S   S182      1.0  0.64921  0.22123  0.66419  1.0000
  H   H709      1.0  0.54789  0.17559  0.60179  1.0000
  H   H710      1.0  0.53814  0.20626  0.59817  1.0000
  H   H711      1.0  0.45820  0.24449  0.70866  1.0000
  N   N46       1.0  0.45472  0.14783  0.54598  1.0000
  C   C447      1.0  0.44718  0.16646  0.53229  1.0000
  C   C448      1.0  0.48047  0.14263  0.54394  1.0000
  C   C449      1.0  0.44264  0.12619  0.54299  1.0000
  C   C450      1.0  0.44852  0.15603  0.56468  1.0000
  H   H712      1.0  0.42783  0.17088  0.53348  1.0000
  H   H713      1.0  0.45126  0.16080  0.51802  1.0000
  H   H714      1.0  0.45607  0.18300  0.53401  1.0000
  H   H715      1.0  0.49025  0.15871  0.54536  1.0000
  H   H716      1.0  0.48690  0.12907  0.55433  1.0000
  H   H717      1.0  0.48552  0.13564  0.53019  1.0000
  Fe  Fe93      1.0  0.58678  0.09009  0.50542  1.0000
  H   H718      1.0  0.41557  0.25089  0.71267  1.0000
  C   C451      1.0  0.38198  0.02675  0.50711  1.0000
  H   H719      1.0  0.39944  0.23351  0.72933  1.0000
  C   C452      1.0  0.41648  0.24176  0.72649  1.0000
  H   H720      1.0  0.46269  0.00787  0.51281  1.0000
  C   C453      1.0  0.65891  0.17396  0.73067  1.0000
  H   H721      1.0  0.39231  0.04183  0.50842  1.0000
  S   S183      1.0  0.65857  0.17694  0.70616  1.0000
  C   C454      1.0  0.34439  0.01028  0.50404  1.0000
  C   C455      1.0  0.32771  0.17090  0.73577  1.0000
  C   C456      1.0  0.65862  0.24233  0.72314  1.0000
  H   H722      1.0  0.63553  0.13017  0.59121  1.0000
  H   H723      1.0  0.41785  0.25552  0.73676  1.0000
  S   S184      1.0  0.35181  0.12727  0.50679  1.0000
  C   C457      1.0  0.62383  0.00111  0.51175  1.0000
  C   C458      1.0  0.58854  0.02609  0.50505  1.0000
  H   H724      1.0  0.53297  0.11008  0.50427  1.0000
  C   C459      1.0  0.33207  0.21959  0.61829  1.0000
  H   H725      1.0  0.64175  0.99924  0.51625  1.0000
  H   H726      1.0  0.45248  0.19887  0.74658  1.0000
  S   S185      1.0  0.34318  0.05866  0.50649  1.0000
  S   S186      1.0  0.57251  0.05388  0.50303  1.0000
  H   H727      1.0  0.57057  0.14415  0.96820  1.0000
  C   C460      1.0  0.64253  0.10564  0.76173  1.0000
  H   H728      1.0  0.33703  0.04834  0.84302  1.0000
  H   H729      1.0  0.36857  0.18073  0.76670  1.0000
  H   H730      1.0  0.53504  0.15891  0.93990  1.0000
  H   H731      1.0  0.62613  0.18543  0.77002  1.0000
  Fe  Fe94      1.0  0.61660  0.12715  0.98215  1.0000
  S   S187      1.0  0.61572  0.14077  0.95201  1.0000
  S   S188      1.0  0.59891  0.09337  0.98778  1.0000
  C   C461      1.0  0.55221  0.13911  0.97091  1.0000
  H   H732      1.0  0.53934  0.13305  0.92634  1.0000
  C   C462      1.0  0.35256  0.17502  0.76135  1.0000
  H   H733      1.0  0.33039  0.01011  0.99116  1.0000
  H   H734      1.0  0.33973  0.16136  0.78785  1.0000
  C   C463      1.0  0.64107  0.17929  0.76140  1.0000
  Fe  Fe95      1.0  0.36206  0.11262  0.98138  1.0000
  H   H735      1.0  0.50738  0.13782  0.96158  1.0000
  S   S189      1.0  0.39972  0.09757  0.97895  1.0000
  C   C464      1.0  0.36351  0.02297  0.99809  1.0000
  H   H736      1.0  0.64327  0.14517  0.88693  1.0000
  N   N47       1.0  0.54368  0.12667  0.95533  1.0000
  C   C465      1.0  0.34248  0.02741  0.87654  1.0000
  C   C466      1.0  0.33620  0.16403  0.77342  1.0000
  C   C467      1.0  0.35668  0.12293  0.92461  1.0000
  C   C468      1.0  0.35662  0.12532  0.90523  1.0000
  H   H737      1.0  0.37248  0.12565  0.93178  1.0000
  H   H738      1.0  0.37250  0.12987  0.89763  1.0000
  C   C469      1.0  0.63746  0.13655  0.93383  1.0000
  H   H739      1.0  0.55690  0.09237  0.96530  1.0000
  C   C470      1.0  0.55821  0.10435  0.95286  1.0000
  C   C471      1.0  0.48728  0.14862  0.00222  1.0000
  H   H740      1.0  0.35923  0.03342  0.87012  1.0000
  H   H741      1.0  0.56427  0.14591  0.93527  1.0000
  C   C472      1.0  0.51884  0.12144  0.95922  1.0000
  C   C473      1.0  0.33613  0.12225  0.89568  1.0000
  H   H742      1.0  0.57718  0.10764  0.95034  1.0000
  H   H743      1.0  0.55215  0.12777  0.98369  1.0000
  H   H744      1.0  0.51701  0.10983  0.97183  1.0000
  S   S190      1.0  0.33651  0.12713  0.87136  1.0000
  C   C474      1.0  0.34800  0.00531  0.99566  1.0000
  H   H745      1.0  0.54113  0.15557  0.97369  1.0000
  H   H746      1.0  0.51165  0.11227  0.94770  1.0000
  H   H747      1.0  0.48469  0.16729  0.99874  1.0000
  H   H748      1.0  0.55260  0.09468  0.94100  1.0000
  C   C475      1.0  0.54560  0.14181  0.93844  1.0000
  H   H749      1.0  0.64588  0.11298  0.79770  1.0000
  C   C476      1.0  0.63138  0.14258  0.91559  1.0000
  H   H750      1.0  0.61358  0.14926  0.91286  1.0000
  C   C477      1.0  0.64820  0.14026  0.90081  1.0000
  C   C478      1.0  0.33613  0.11767  0.93469  1.0000
  H   H751      1.0  0.35788  0.04124  0.99529  1.0000
  H   H752      1.0  0.34108  0.00876  0.87280  1.0000
  H   H753      1.0  0.65320  0.99918  0.00214  1.0000
  H   H754      1.0  0.62891  0.08792  0.79499  1.0000
  H   H755      1.0  0.64099  0.05926  0.77081  1.0000
  H   H756      1.0  0.34396  0.02772  0.89172  1.0000
  S   S191      1.0  0.37103  0.14193  0.99929  1.0000
  S   S192      1.0  0.33432  0.11652  0.95915  1.0000
  Fe  Fe96      1.0  0.40803  0.12479  0.99894  1.0000
  H   H757      1.0  0.62436  0.09959  0.76190  1.0000
  C   C479      1.0  0.64699  0.09417  0.79371  1.0000
  H   H758      1.0  0.34068  0.07439  0.86910  1.0000
  S   S193      1.0  0.64651  0.11633  0.00061  1.0000
  H   H759      1.0  0.64104  0.12466  0.76509  1.0000
  N   N48       1.0  0.65735  0.09154  0.77490  1.0000
  C   C480      1.0  0.65872  0.06638  0.77027  1.0000
  H   H760      1.0  0.43988  0.22572  0.75633  1.0000
  S   S194      1.0  0.43963  0.14742  0.99745  1.0000
  H   H761      1.0  0.65781  0.08386  0.80402  1.0000
  C   C481      1.0  0.46793  0.13448  0.00260  1.0000
  H   H762      1.0  0.40421  0.86577  0.04322  1.0000
  C   C482      1.0  0.48169  0.89147  0.02135  1.0000
  Fe  Fe97      1.0  0.34931  0.87669  0.02212  1.0000
  H   H763      1.0  0.37963  0.90288  0.06882  1.0000
  S   S195      1.0  0.36778  0.90909  0.02743  1.0000
  H   H764      1.0  0.61395  0.93134  0.07584  1.0000
  Fe  Fe98      1.0  0.60560  0.89297  0.02242  1.0000
  S   S196      1.0  0.61029  0.88622  0.05347  1.0000
  S   S197      1.0  0.56947  0.91025  0.01718  1.0000
  N   N49       1.0  0.65415  0.92893  0.22809  1.0000
  H   H765      1.0  0.49899  0.96273  0.01993  1.0000
  H   H766      1.0  0.63233  0.99115  0.06066  1.0000
  C   C483      1.0  0.63373  0.88580  0.06903  1.0000
  H   H767      1.0  0.39617  0.84492  0.09186  1.0000
  S   S198      1.0  0.62412  0.91910  0.00399  1.0000
  C   C484      1.0  0.39347  0.99309  0.00744  1.0000
  H   H768      1.0  0.39835  0.87337  0.10143  1.0000
  H   H769      1.0  0.59152  0.93402  0.04808  1.0000
  H   H770      1.0  0.40729  0.90528  0.05644  1.0000
  C   C485      1.0  0.61589  0.98574  0.05481  1.0000
  H   H771      1.0  0.52947  0.95756  0.01288  1.0000
  H   H772      1.0  0.37617  0.86452  0.05505  1.0000
  H   H773      1.0  0.48001  0.89815  0.03507  1.0000
  C   C486      1.0  0.39891  0.89837  0.06947  1.0000
  H   H774      1.0  0.51105  0.93333  0.01571  1.0000
  C   C487      1.0  0.42992  0.86752  0.07283  1.0000
  H   H775      1.0  0.43457  0.84823  0.07456  1.0000
  Fe  Fe99      1.0  0.39775  0.89324  0.00974  1.0000
  H   H776      1.0  0.64161  0.88184  0.11558  1.0000
  H   H777      1.0  0.40542  0.90819  0.08092  1.0000
  C   C488      1.0  0.62836  0.88356  0.08805  1.0000
  H   H778      1.0  0.65536  0.92695  0.19866  1.0000
  H   H779      1.0  0.57717  0.96188  0.05419  1.0000
  C   C489      1.0  0.63289  0.83875  0.23506  1.0000
  H   H780      1.0  0.64619  0.89827  0.24487  1.0000
  S   S199      1.0  0.43346  0.89617  0.02224  1.0000
  C   C490      1.0  0.65716  0.88827  0.06314  1.0000
  C   C491      1.0  0.39248  0.86424  0.08937  1.0000
  N   N50       1.0  0.40417  0.87263  0.07205  1.0000
  H   H781      1.0  0.65260  0.96313  0.23988  1.0000
  H   H782      1.0  0.61849  0.83385  0.22709  1.0000
  H   H783      1.0  0.59996  0.95877  0.08316  1.0000
  H   H784      1.0  0.61032  0.88160  0.09280  1.0000
  C   C492      1.0  0.46133  0.88825  0.01173  1.0000
  H   H785      1.0  0.33834  0.80621  0.23950  1.0000
  H   H786      1.0  0.59287  0.95903  0.03244  1.0000
  C   C493      1.0  0.64608  0.88374  0.10104  1.0000
  H   H787      1.0  0.65239  0.95244  0.05159  1.0000
  N   N51       1.0  0.61495  0.95978  0.05555  1.0000
  H   H788      1.0  0.62773  0.92025  0.20961  1.0000
  H   H789      1.0  0.43914  0.87378  0.05991  1.0000
  C   C494      1.0  0.39535  0.86039  0.05647  1.0000
  H   H790      1.0  0.33591  0.90311  0.06027  1.0000
  H   H791      1.0  0.51980  0.88847  0.02093  1.0000
  C   C495      1.0  0.59315  0.95345  0.04722  1.0000
  C   C496      1.0  0.51141  0.95209  0.01084  1.0000
  H   H792      1.0  0.65265  0.89931  0.21090  1.0000
  H   H793      1.0  0.41100  0.98835  0.01212  1.0000
  H   H794      1.0  0.39314  0.83990  0.24841  1.0000
  C   C497      1.0  0.33119  0.89121  0.07155  1.0000
  S   S200      1.0  0.65298  0.85258  0.20155  1.0000
  H   H795      1.0  0.63484  0.92952  0.04481  1.0000
  C   C498      1.0  0.64196  0.91772  0.24413  1.0000
  C   C499      1.0  0.64764  0.95459  0.22726  1.0000
  H   H796      1.0  0.63649  0.95602  0.03075  1.0000
  C   C500      1.0  0.64713  0.91843  0.21109  1.0000
  H   H797      1.0  0.43725  0.87641  0.08444  1.0000
  H   H798      1.0  0.37299  0.86758  0.08903  1.0000
  H   H799      1.0  0.39828  0.84088  0.05819  1.0000
  H   H800      1.0  0.63162  0.95468  0.08155  1.0000
  C   C501      1.0  0.50427  0.88614  0.01333  1.0000
  H   H801      1.0  0.62249  0.92057  0.24340  1.0000
  C   C502      1.0  0.63560  0.94902  0.04523  1.0000
  C   C503      1.0  0.61514  0.95084  0.07489  1.0000
  S   S201      1.0  0.38006  0.85974  0.00561  1.0000
  C   C504      1.0  0.65251  0.84839  0.22595  1.0000
  H   H802      1.0  0.62838  0.95828  0.22568  1.0000
  H   H803      1.0  0.65678  0.96346  0.21532  1.0000
  C   C505      1.0  0.37801  0.97542  0.00494  1.0000
  H   H804      1.0  0.38368  0.95711  0.00767  1.0000
  S   S202      1.0  0.33053  0.85675  0.04569  1.0000
  C   C506      1.0  0.32919  0.89931  0.08960  1.0000
  H   H805      1.0  0.33271  0.91738  0.09206  1.0000
  C   C507      1.0  0.33338  0.82188  0.24710  1.0000
  H   H806      1.0  0.61532  0.99302  0.04039  1.0000
  H   H807      1.0  0.60067  0.99446  0.06258  1.0000
  Fe  Fe100     1.0  0.62604  0.82121  0.31178  1.0000
  S   S203      1.0  0.60444  0.78983  0.30965  1.0000
  S   S204      1.0  0.33817  0.80748  0.34778  1.0000
  Fe  Fe101     1.0  0.61818  0.82124  0.35458  1.0000
  S   S205      1.0  0.59754  0.78877  0.35496  1.0000
  S   S206      1.0  0.62361  0.84681  0.37746  1.0000
  Fe  Fe102     1.0  0.62505  0.77479  0.33389  1.0000
  H   H808      1.0  0.40724  0.82839  0.48245  1.0000
  Fe  Fe103     1.0  0.57871  0.80640  0.33083  1.0000
  S   S207      1.0  0.53871  0.81633  0.33370  1.0000
  H   H809      1.0  0.32840  0.82804  0.43832  1.0000
  S   S208      1.0  0.59907  0.83914  0.33091  1.0000
  Fe  Fe104     1.0  0.35541  0.81743  0.32018  1.0000
  S   S209      1.0  0.37018  0.78063  0.31449  1.0000
  C   C508      1.0  0.33748  0.82191  0.26610  1.0000
  Fe  Fe105     1.0  0.37264  0.81500  0.36001  1.0000
  S   S210      1.0  0.38818  0.77781  0.35689  1.0000
  S   S211      1.0  0.38266  0.83711  0.38387  1.0000
  Fe  Fe106     1.0  0.40230  0.78998  0.32918  1.0000
  S   S212      1.0  0.43884  0.77653  0.31812  1.0000
  Fe  Fe107     1.0  0.35490  0.77086  0.34262  1.0000
  C   C509      1.0  0.40360  0.83027  0.46756  1.0000
  S   S213      1.0  0.38865  0.82746  0.33274  1.0000
  H   H810      1.0  0.64717  0.92481  0.25728  1.0000
  S   S214      1.0  0.33805  0.84414  0.29963  1.0000
  H   H811      1.0  0.44447  0.71261  0.35303  1.0000
  H   H812      1.0  0.57203  0.86512  0.39969  1.0000
  H   H813      1.0  0.43151  0.68822  0.31830  1.0000
  H   H814      1.0  0.51836  0.84130  0.36719  1.0000
  N   N52       1.0  0.40746  0.84292  0.27510  1.0000
  Fe  Fe108     1.0  0.59672  0.87682  0.48576  1.0000
  S   S215      1.0  0.60032  0.84808  0.46432  1.0000
  S   S216      1.0  0.58489  0.91539  0.48224  1.0000
  Fe  Fe109     1.0  0.36198  0.87616  0.48782  1.0000
  S   S217      1.0  0.39591  0.89368  0.48302  1.0000
  S   S218      1.0  0.34278  0.85924  0.46531  1.0000
  C   C510      1.0  0.50533  0.88216  0.49517  1.0000
  H   H815      1.0  0.39128  0.73977  0.33070  1.0000
  H   H816      1.0  0.65167  0.78779  0.26763  1.0000
  C   C511      1.0  0.42074  0.68594  0.33129  1.0000
  C   C512      1.0  0.39969  0.81961  0.28153  1.0000
  H   H817      1.0  0.64395  0.75062  0.28588  1.0000
  C   C513      1.0  0.43315  0.72224  0.34274  1.0000
  H   H818      1.0  0.61638  0.82812  0.26117  1.0000
  H   H819      1.0  0.44717  0.83947  0.45684  1.0000
  C   C514      1.0  0.65003  0.84187  0.26490  1.0000
  H   H820      1.0  0.45762  0.80987  0.45121  1.0000
  H   H821      1.0  0.41054  0.81180  0.29291  1.0000
  H   H822      1.0  0.41842  0.83728  0.43214  1.0000
  C   C515      1.0  0.36999  0.84393  0.40595  1.0000
  C   C516      1.0  0.38009  0.86102  0.41603  1.0000
  C   C517      1.0  0.37199  0.86593  0.43414  1.0000
  C   C518      1.0  0.35338  0.85401  0.44236  1.0000
  C   C519      1.0  0.34294  0.83724  0.43217  1.0000
  C   C520      1.0  0.35125  0.83212  0.41411  1.0000
  H   H823      1.0  0.39444  0.87044  0.40980  1.0000
  H   H824      1.0  0.37994  0.87917  0.44163  1.0000
  S   S219      1.0  0.64087  0.73694  0.32994  1.0000
  N   N53       1.0  0.41258  0.70901  0.33878  1.0000
  H   H825      1.0  0.38617  0.86129  0.29580  1.0000
  H   H826      1.0  0.42935  0.77772  0.45417  1.0000
  C   C521      1.0  0.55782  0.86458  0.36536  1.0000
  H   H827      1.0  0.57869  0.82725  0.38245  1.0000
  C   C522      1.0  0.51129  0.80439  0.32944  1.0000
  C   C523      1.0  0.49020  0.81685  0.33529  1.0000
  C   C524      1.0  0.46799  0.80842  0.33222  1.0000
  C   C525      1.0  0.46649  0.78748  0.32299  1.0000
  C   C526      1.0  0.48755  0.77503  0.31707  1.0000
  C   C527      1.0  0.50980  0.78331  0.32037  1.0000
  H   H828      1.0  0.49100  0.83326  0.34217  1.0000
  H   H829      1.0  0.45204  0.81828  0.33683  1.0000
  H   H830      1.0  0.48669  0.75888  0.30984  1.0000
  H   H831      1.0  0.52577  0.77354  0.31570  1.0000
  C   C528      1.0  0.61754  0.84649  0.40169  1.0000
  C   C529      1.0  0.61037  0.82645  0.41159  1.0000
  C   C530      1.0  0.60514  0.82736  0.43068  1.0000
  C   C531      1.0  0.60684  0.84829  0.44015  1.0000
  C   C532      1.0  0.61381  0.86838  0.43023  1.0000
  C   C533      1.0  0.61925  0.86742  0.41116  1.0000
  H   H832      1.0  0.38499  0.82612  0.46596  1.0000
  C   C534      1.0  0.44459  0.82041  0.45986  1.0000
  H   H833      1.0  0.61534  0.88456  0.43729  1.0000
  H   H834      1.0  0.62482  0.88303  0.40368  1.0000
  H   H835      1.0  0.54419  0.88165  0.39855  1.0000
  H   H836      1.0  0.52334  0.87695  0.49124  1.0000
  C   C535      1.0  0.40482  0.85933  0.29042  1.0000
  H   H837      1.0  0.55507  0.81722  0.37012  1.0000
  H   H838      1.0  0.38250  0.71324  0.32167  1.0000
  H   H839      1.0  0.39691  0.81563  0.43398  1.0000
  C   C536      1.0  0.41695  0.78992  0.46204  1.0000
  S   S220      1.0  0.34164  0.73409  0.34978  1.0000
  H   H840      1.0  0.42710  0.80695  0.42805  1.0000
  N   N54       1.0  0.42018  0.81484  0.45656  1.0000
  H   H841      1.0  0.39870  0.78523  0.45956  1.0000
  H   H842      1.0  0.55326  0.81701  0.39479  1.0000
  H   H843      1.0  0.38217  0.69594  0.35329  1.0000
  H   H844      1.0  0.38106  0.82103  0.28676  1.0000
  H   H845      1.0  0.54658  0.85361  0.41100  1.0000
  H   H846      1.0  0.41004  0.87725  0.28602  1.0000
  H   H847      1.0  0.44430  0.72554  0.33008  1.0000
  H   H848      1.0  0.50405  0.97041  0.48376  1.0000
  H   H849      1.0  0.41999  0.78649  0.47695  1.0000
  H   H850      1.0  0.52659  0.99088  0.48177  1.0000
  H   H851      1.0  0.44384  0.83287  0.27993  1.0000
  H   H852      1.0  0.55448  0.85598  0.35234  1.0000
  H   H853      1.0  0.60921  0.81014  0.40463  1.0000
  H   H854      1.0  0.40832  0.69489  0.36651  1.0000
  H   H855      1.0  0.54994  0.88302  0.36434  1.0000
  H   H856      1.0  0.57726  0.86543  0.36604  1.0000
  H   H857      1.0  0.40489  0.84918  0.46336  1.0000
  S   S221      1.0  0.64972  0.83819  0.28932  1.0000
  H   H858      1.0  0.40850  0.72662  0.31224  1.0000
  H   H859      1.0  0.40559  0.67557  0.32818  1.0000
  C   C537      1.0  0.39815  0.72266  0.32516  1.0000
  H   H860      1.0  0.44897  0.81674  0.47451  1.0000
  H   H861      1.0  0.42759  0.73989  0.34820  1.0000
  H   H862      1.0  0.51331  0.86838  0.37907  1.0000
  C   C538      1.0  0.33127  0.84212  0.27608  1.0000
  C   C539      1.0  0.39286  0.85241  0.25981  1.0000
  C   C540      1.0  0.55282  0.86349  0.39844  1.0000
  H   H863      1.0  0.51444  0.84051  0.39178  1.0000
  N   N55       1.0  0.54804  0.85143  0.38151  1.0000
  C   C541      1.0  0.55921  0.82716  0.38229  1.0000
  C   C542      1.0  0.52237  0.85040  0.37986  1.0000
  H   H864      1.0  0.40090  0.80687  0.27027  1.0000
  C   C543      1.0  0.39819  0.70532  0.35589  1.0000
  H   H865      1.0  0.34321  0.81899  0.40655  1.0000
  H   H866      1.0  0.59995  0.81166  0.43824  1.0000
  H   H867      1.0  0.58081  0.96802  0.49788  1.0000
  C   C544      1.0  0.41549  0.81880  0.43683  1.0000
  H   H868      1.0  0.43178  0.67518  0.34119  1.0000
  S   S222      1.0  0.64701  0.80586  0.33557  1.0000
  H   H869      1.0  0.39179  0.72246  0.36189  1.0000
  H   H870      1.0  0.41582  0.85291  0.30213  1.0000
  C   C545      1.0  0.50718  0.98959  0.48302  1.0000
  C   C546      1.0  0.43245  0.84030  0.26872  1.0000
  H   H871      1.0  0.49316  0.84747  0.49203  1.0000
  C   C547      1.0  0.58949  0.98342  0.50154  1.0000
  H   H872      1.0  0.34546  0.80632  0.27296  1.0000
  C   C548      1.0  0.48818  0.86557  0.49537  1.0000
  H   H873      1.0  0.37413  0.85580  0.26448  1.0000
  H   H874      1.0  0.65599  0.78507  0.30095  1.0000
  S   S223      1.0  0.44382  0.85112  0.50269  1.0000
  C   C549      1.0  0.46472  0.87235  0.50019  1.0000
  C   C550      1.0  0.63163  0.83547  0.25440  1.0000
  H   H875      1.0  0.34534  0.97231  0.50192  1.0000
  C   C551      1.0  0.49912  0.90537  0.50015  1.0000
  H   H876      1.0  0.39889  0.86948  0.25403  1.0000
  H   H877      1.0  0.43906  0.85758  0.26399  1.0000
  H   H878      1.0  0.43495  0.82817  0.25706  1.0000
  H   H879      1.0  0.46709  0.98010  0.50170  1.0000
  Fe  Fe110     1.0  0.59128  0.87751  0.52881  1.0000
  S   S224      1.0  0.58966  0.85061  0.55331  1.0000
  S   S225      1.0  0.57877  0.91595  0.52817  1.0000
  Fe  Fe111     1.0  0.36328  0.87942  0.53019  1.0000
  S   S226      1.0  0.39780  0.89596  0.52799  1.0000
  S   S227      1.0  0.34491  0.87770  0.55873  1.0000
  H   H880      1.0  0.48246  0.84521  0.54957  1.0000
  Fe  Fe112     1.0  0.35409  0.81842  0.69588  1.0000
  S   S228      1.0  0.36864  0.78416  0.70822  1.0000
  H   H881      1.0  0.52481  0.88820  0.53163  1.0000
  Fe  Fe113     1.0  0.37143  0.80435  0.65668  1.0000
  S   S229      1.0  0.38643  0.76860  0.66723  1.0000
  S   S230      1.0  0.38004  0.81002  0.62587  1.0000
  Fe  Fe114     1.0  0.35257  0.76736  0.68449  1.0000
  H   H882      1.0  0.44021  0.90147  0.50730  1.0000
  Fe  Fe115     1.0  0.40099  0.78893  0.68970  1.0000
  S   S231      1.0  0.43707  0.78801  0.70289  1.0000
  C   C552      1.0  0.32890  0.78408  0.62535  1.0000
  S   S232      1.0  0.38718  0.82445  0.67861  1.0000
  Fe  Fe116     1.0  0.60632  0.82592  0.66099  1.0000
  S   S233      1.0  0.60357  0.78904  0.65240  1.0000
  S   S234      1.0  0.60420  0.85653  0.63967  1.0000
  Fe  Fe117     1.0  0.61108  0.80992  0.70200  1.0000
  S   S235      1.0  0.60697  0.77184  0.69543  1.0000
  S   S236      1.0  0.61666  0.81495  0.73261  1.0000
  Fe  Fe118     1.0  0.63266  0.77842  0.67178  1.0000
  H   H883      1.0  0.40756  0.82658  0.71656  1.0000
  Fe  Fe119     1.0  0.57798  0.78633  0.67689  1.0000
  S   S237      1.0  0.54269  0.77314  0.66912  1.0000
  S   S238      1.0  0.63725  0.81607  0.67874  1.0000
  S   S239      1.0  0.58025  0.82372  0.68508  1.0000
  S   S240      1.0  0.56739  0.86948  0.50638  1.0000
  H   H884      1.0  0.33701  0.92558  0.54334  1.0000
  H   H885      1.0  0.44288  0.81715  0.73446  1.0000
  H   H886      1.0  0.54188  0.84595  0.56956  1.0000
  C   C553      1.0  0.46620  0.78492  0.69279  1.0000
  C   C554      1.0  0.47086  0.77660  0.67509  1.0000
  C   C555      1.0  0.49434  0.77306  0.66816  1.0000
  C   C556      1.0  0.51347  0.77821  0.67862  1.0000
  C   C557      1.0  0.50878  0.78721  0.69610  1.0000
  C   C558      1.0  0.48533  0.79030  0.70318  1.0000
  H   H887      1.0  0.45643  0.77223  0.66695  1.0000
  H   H888      1.0  0.49769  0.76602  0.65464  1.0000
  H   H889      1.0  0.52324  0.79116  0.70438  1.0000
  H   H890      1.0  0.48204  0.79659  0.71692  1.0000
  H   H891      1.0  0.55139  0.86919  0.63688  1.0000
  C   C559      1.0  0.32996  0.84476  0.73797  1.0000
  H   H892      1.0  0.38489  0.94423  0.57177  1.0000
  C   C560      1.0  0.35499  0.85903  0.57739  1.0000
  C   C561      1.0  0.37429  0.84263  0.57528  1.0000
  C   C562      1.0  0.38165  0.82794  0.59032  1.0000
  C   C563      1.0  0.37002  0.82955  0.60769  1.0000
  C   C564      1.0  0.35076  0.84604  0.60987  1.0000
  C   C565      1.0  0.34327  0.86064  0.59476  1.0000
  H   H893      1.0  0.38344  0.84112  0.56202  1.0000
  H   H894      1.0  0.39650  0.81520  0.58845  1.0000
  H   H895      1.0  0.33904  0.98843  0.55390  1.0000
  C   C566      1.0  0.59394  0.85289  0.57723  1.0000
  C   C567      1.0  0.59174  0.83272  0.58889  1.0000
  C   C568      1.0  0.59483  0.83353  0.60797  1.0000
  C   C569      1.0  0.60015  0.85459  0.61568  1.0000
  C   C570      1.0  0.60212  0.87481  0.60406  1.0000
  C   C571      1.0  0.59907  0.87400  0.58495  1.0000
  C   C572      1.0  0.34084  0.94452  0.54174  1.0000
  H   H896      1.0  0.59301  0.81788  0.61669  1.0000
  H   H897      1.0  0.60621  0.89124  0.60985  1.0000
  H   H898      1.0  0.60083  0.88968  0.57620  1.0000
  H   H899      1.0  0.33429  0.71469  0.65741  1.0000
  H   H900      1.0  0.58770  0.81631  0.58308  1.0000
  C   C573      1.0  0.52250  0.84912  0.56808  1.0000
  H   H901      1.0  0.52079  0.89467  0.55545  1.0000
  H   H902      1.0  0.37352  0.91960  0.56118  1.0000
  N   N56       1.0  0.51708  0.85834  0.54936  1.0000
  C   C574      1.0  0.40238  0.80195  0.74880  1.0000
  H   H903      1.0  0.52927  0.80899  0.63938  1.0000
  C   C575      1.0  0.65909  0.75945  0.72021  1.0000
  H   H904      1.0  0.51885  0.82380  0.53803  1.0000
  H   H905      1.0  0.35217  0.94657  0.52905  1.0000
  H   H906      1.0  0.64261  0.77005  0.72423  1.0000
  H   H907      1.0  0.48332  0.87447  0.55807  1.0000
  H   H908      1.0  0.38001  0.83517  0.72785  1.0000
  H   H909      1.0  0.53293  0.88011  0.65577  1.0000
  H   H910      1.0  0.55689  0.85865  0.65981  1.0000
  H   H911      1.0  0.41004  0.79088  0.73745  1.0000
  C   C576      1.0  0.35603  0.97781  0.55570  1.0000
  C   C577      1.0  0.61276  0.98091  0.50711  1.0000
  C   C578      1.0  0.52666  0.84113  0.53581  1.0000
  C   C579      1.0  0.52795  0.88104  0.54581  1.0000
  H   H912      1.0  0.55516  0.81791  0.64943  1.0000
  H   H913      1.0  0.48675  0.86981  0.53397  1.0000
  H   H914      1.0  0.34165  0.84753  0.62314  1.0000
  H   H915      1.0  0.34579  0.95335  0.58719  1.0000
  H   H916      1.0  0.50679  0.85345  0.67312  1.0000
  H   H917      1.0  0.52302  0.84750  0.52151  1.0000
  C   C580      1.0  0.63472  0.83271  0.74508  1.0000
  H   H918      1.0  0.38300  0.80047  0.74919  1.0000
  H   H919      1.0  0.65018  0.76941  0.60199  1.0000
  H   H920      1.0  0.64951  0.85143  0.72159  1.0000
  H   H921      1.0  0.52712  0.99213  0.51551  1.0000
  H   H922      1.0  0.34209  0.80823  0.74134  1.0000
  H   H923      1.0  0.33204  0.58926  0.69052  1.0000
  H   H924      1.0  0.32831  0.87325  0.59655  1.0000
  H   H925      1.0  0.65791  0.75491  0.70556  1.0000
  H   H926      1.0  0.65938  0.74268  0.72864  1.0000
  S   S241      1.0  0.62165  0.88247  0.50838  1.0000
  H   H927      1.0  0.38726  0.94199  0.54721  1.0000
  H   H928      1.0  0.50325  0.82446  0.66519  1.0000
  N   N57       1.0  0.40838  0.82678  0.74602  1.0000
  H   H929      1.0  0.54614  0.83795  0.53662  1.0000
  C   C581      1.0  0.49128  0.86207  0.54774  1.0000
  H   H930      1.0  0.51446  0.83206  0.57125  1.0000
  C   C582      1.0  0.33758  0.94774  0.57463  1.0000
  H   H931      1.0  0.54832  0.82845  0.62667  1.0000
  S   S242      1.0  0.37500  0.85098  0.51050  1.0000
  H   H932      1.0  0.33517  0.78628  0.61073  1.0000
  H   H933      1.0  0.51588  0.86181  0.57864  1.0000
  H   H934      1.0  0.54736  0.87902  0.54725  1.0000
  N   N58       1.0  0.52679  0.84483  0.64823  1.0000
  C   C583      1.0  0.50788  0.85295  0.63571  1.0000
  C   C584      1.0  0.51619  0.83807  0.66639  1.0000
  C   C585      1.0  0.54259  0.86406  0.65025  1.0000
  C   C586      1.0  0.54043  0.82418  0.64052  1.0000
  H   H935      1.0  0.49582  0.83870  0.63375  1.0000
  H   H936      1.0  0.51527  0.85844  0.62194  1.0000
  H   H937      1.0  0.49701  0.86831  0.64126  1.0000
  H   H938      1.0  0.52977  0.83042  0.67588  1.0000
  H   H939      1.0  0.47051  0.93036  0.50772  1.0000
  H   H940      1.0  0.50461  0.97160  0.51760  1.0000
  N   N59       1.0  0.35250  0.95230  0.55795  1.0000
  C   C587      1.0  0.37558  0.93896  0.55963  1.0000
  C   C588      1.0  0.33551  0.82395  0.74828  1.0000
  C   C589      1.0  0.47551  0.91236  0.50413  1.0000
  H   H941      1.0  0.33476  0.92853  0.57660  1.0000
  S   S243      1.0  0.33500  0.84673  0.71366  1.0000
  Fe  Fe120     1.0  0.60723  0.92073  0.50632  1.0000
  C   C590      1.0  0.50768  0.99075  0.51606  1.0000
  H   H942      1.0  0.64365  0.82346  0.59512  1.0000
  C   C591      1.0  0.65949  0.81499  0.62903  1.0000
  H   H943      1.0  0.36753  0.98161  0.54334  1.0000
  H   H944      1.0  0.64830  0.77021  0.62664  1.0000
  S   S244      1.0  0.33682  0.80186  0.67269  1.0000
  H   H945      1.0  0.34437  0.77714  0.63327  1.0000
  S   S245      1.0  0.62850  0.95293  0.50783  1.0000
  C   C592      1.0  0.64930  0.84894  0.73638  1.0000
  H   H946      1.0  0.36453  0.98442  0.56778  1.0000
  H   H947      1.0  0.64123  0.82328  0.62924  1.0000
  C   C593      1.0  0.38002  0.98408  0.50516  1.0000
  S   S246      1.0  0.34706  0.90341  0.50788  1.0000
  Fe  Fe121     1.0  0.55744  0.90819  0.50424  1.0000
  C   C594      1.0  0.64705  0.78136  0.61371  1.0000
  Fe  Fe122     1.0  0.40812  0.86995  0.50641  1.0000
  S   S247      1.0  0.39520  0.95581  0.50598  1.0000
  C   C595      1.0  0.43426  0.82781  0.74570  1.0000
  H   H948      1.0  0.33319  0.73711  0.62843  1.0000
  H   H949      1.0  0.62863  0.78919  0.61310  1.0000
  C   C596      1.0  0.35559  0.98735  0.50358  1.0000
  H   H950      1.0  0.40287  0.85532  0.72596  1.0000
  C   C597      1.0  0.39934  0.83642  0.72834  1.0000
  Fe  Fe123     1.0  0.38254  0.91874  0.50491  1.0000
  H   H951      1.0  0.33028  0.59872  0.66674  1.0000
  H   H952      1.0  0.65212  0.71672  0.68169  1.0000
  H   H953      1.0  0.43948  0.84624  0.74338  1.0000
  C   C598      1.0  0.45832  0.89591  0.50402  1.0000
  S   S248      1.0  0.52067  0.92540  0.50287  1.0000
  C   C599      1.0  0.48634  0.87400  0.98607  1.0000
  C   C600      1.0  0.46373  0.87946  0.99404  1.0000
  C   C601      1.0  0.64476  0.94982  0.87372  1.0000
  S   S249      1.0  0.53480  0.87122  0.98483  1.0000
  Fe  Fe124     1.0  0.36390  0.87885  0.98070  1.0000
  H   H954      1.0  0.37564  0.93699  0.92336  1.0000
  S   S250      1.0  0.38423  0.91098  0.98384  1.0000
  C   C602      1.0  0.64857  0.88841  0.93546  1.0000
  H   H955      1.0  0.48808  0.86716  0.97239  1.0000
  H   H956      1.0  0.50174  0.98330  0.97080  1.0000
  C   C603      1.0  0.64797  0.88779  0.89647  1.0000
  C   C604      1.0  0.34829  0.86752  0.91597  1.0000
  Fe  Fe125     1.0  0.61918  0.89470  0.98076  1.0000
  H   H957      1.0  0.65455  0.81346  0.88612  1.0000
  S   S251      1.0  0.58429  0.91233  0.97309  1.0000
  S   S252      1.0  0.36486  0.86690  0.95101  1.0000
  H   H958      1.0  0.40346  0.83380  0.77482  1.0000
  H   H959      1.0  0.64147  0.93678  0.88520  1.0000
  N   N60       1.0  0.34536  0.94623  0.94100  1.0000
  S   S253      1.0  0.64653  0.88678  0.87214  1.0000
  Fe  Fe126     1.0  0.35277  0.92345  0.00109  1.0000
  C   C605      1.0  0.35801  0.96316  0.95115  1.0000
  C   C606      1.0  0.33273  0.82352  0.76764  1.0000
  C   C607      1.0  0.62716  0.88972  0.92661  1.0000
  C   C608      1.0  0.62689  0.88931  0.90726  1.0000
  H   H960      1.0  0.61077  0.89070  0.93471  1.0000
  H   H961      1.0  0.61019  0.89001  0.90063  1.0000
  C   C609      1.0  0.50671  0.87748  0.99561  1.0000
  Fe  Fe127     1.0  0.58797  0.93441  0.99742  1.0000
  C   C610      1.0  0.63470  0.82995  0.76440  1.0000
  H   H962      1.0  0.44820  0.87683  0.98651  1.0000
  S   S254      1.0  0.64995  0.88786  0.95987  1.0000
  S   S255      1.0  0.60310  0.86707  0.99979  1.0000
  Fe  Fe128     1.0  0.56827  0.88670  0.99351  1.0000
  H   H963      1.0  0.37239  0.91798  0.94346  1.0000
  H   H964      1.0  0.36655  0.86375  0.91172  1.0000
  C   C611      1.0  0.64884  0.84335  0.77492  1.0000
  C   C612      1.0  0.34221  0.86981  0.93478  1.0000
  H   H965      1.0  0.62352  0.81747  0.77132  1.0000
  H   H966      1.0  0.36803  0.95411  0.96250  1.0000
  H   H967      1.0  0.33853  0.92361  0.96461  1.0000
  H   H968      1.0  0.44171  0.82075  0.75885  1.0000
  H   H969      1.0  0.52231  0.92166  0.98425  1.0000
  H   H970      1.0  0.52409  0.98649  0.98704  1.0000
  H   H971      1.0  0.33756  0.80746  0.77548  1.0000
  C   C613      1.0  0.36251  0.92857  0.93273  1.0000
  H   H972      1.0  0.35357  0.91584  0.92466  1.0000
  N   N61       1.0  0.50514  0.95518  0.99136  1.0000
  H   H973      1.0  0.62925  0.96282  0.87334  1.0000
  C   C614      1.0  0.33192  0.95901  0.92634  1.0000
  C   C615      1.0  0.35519  0.98157  0.99921  1.0000
  C   C616      1.0  0.48108  0.94769  0.98929  1.0000
  H   H974      1.0  0.34558  0.97669  0.95765  1.0000
  H   H975      1.0  0.62478  0.96932  0.99648  1.0000
  H   H976      1.0  0.64546  0.93995  0.86076  1.0000
  C   C617      1.0  0.32891  0.93414  0.95378  1.0000
  C   C618      1.0  0.50613  0.98031  0.98549  1.0000
  S   S256      1.0  0.33565  0.95969  0.99605  1.0000
  H   H977      1.0  0.54028  0.94612  0.98074  1.0000
  H   H978      1.0  0.33593  0.86802  0.88820  1.0000
  H   H979      1.0  0.51752  0.94196  0.96512  1.0000
  H   H980      1.0  0.34376  0.96834  0.91643  1.0000
  H   H981      1.0  0.65062  0.98702  0.89437  1.0000
  H   H982      1.0  0.47559  0.95011  0.97482  1.0000
  S   S257      1.0  0.33167  0.89240  0.99685  1.0000
  C   C619      1.0  0.52201  0.94064  0.97985  1.0000
  H   H983      1.0  0.49353  0.99181  0.99383  1.0000
  H   H984      1.0  0.37074  0.97254  0.94206  1.0000
  H   H985      1.0  0.64842  0.84116  0.78975  1.0000
  H   H986      1.0  0.47995  0.92868  0.99323  1.0000
  C   C620      1.0  0.33096  0.86999  0.90258  1.0000
  H   H987      1.0  0.46788  0.95785  0.99812  1.0000
  S   S258      1.0  0.57359  0.97225  0.99789  1.0000
  C   C621      1.0  0.59417  0.99302  0.00134  1.0000
  C   C622      1.0  0.61839  0.98689  0.00020  1.0000
  H   H988      1.0  0.40913  0.79399  0.76191  1.0000
  H   H989      1.0  0.65545  0.99278  0.86026  1.0000
  C   C623      1.0  0.39756  0.84090  0.76118  1.0000
  H   H990      1.0  0.40205  0.85965  0.75969  1.0000
  H   H991      1.0  0.37800  0.84096  0.76149  1.0000
  Fe  Fe129     1.0  0.68627  0.14218  0.19211  1.0000
  S   S259      1.0  0.72388  0.12707  0.19391  1.0000
  H   H992      1.0  0.98930  0.32475  0.12848  1.0000
  Fe  Fe130     1.0  0.68357  0.12959  0.15154  1.0000
  S   S260      1.0  0.72085  0.11404  0.15023  1.0000
  C   C624      1.0  0.69058  0.08443  0.07043  1.0000
  Fe  Fe131     1.0  0.71282  0.09657  0.17781  1.0000
  S   S261      1.0  0.73079  0.05944  0.18212  1.0000
  Fe  Fe132     1.0  0.73030  0.14515  0.16627  1.0000
  S   S262      1.0  0.76597  0.15986  0.15789  1.0000
  S   S263      1.0  0.67478  0.11016  0.17838  1.0000
  S   S264      1.0  0.69345  0.16221  0.16518  1.0000
  Fe  Fe133     1.0  0.85658  0.37479  0.02823  1.0000
  S   S265      1.0  0.88461  0.40084  0.02632  1.0000
  S   S266      1.0  0.83532  0.36931  0.05513  1.0000
  H   H993      1.0  0.78820  0.10668  0.15693  1.0000
  Fe  Fe134     1.0  0.84803  0.27203  0.18023  1.0000
  S   S267      1.0  0.83845  0.30985  0.17135  1.0000
  S   S268      1.0  0.81540  0.25039  0.18396  1.0000
  Fe  Fe135     1.0  0.90030  0.28327  0.18499  1.0000
  S   S269      1.0  0.89303  0.32130  0.17675  1.0000
  S   S270      1.0  0.93768  0.26860  0.19143  1.0000
  Fe  Fe136     1.0  0.86005  0.31919  0.19496  1.0000
  S   S271      1.0  0.84842  0.34842  0.21471  1.0000
  Fe  Fe137     1.0  0.87227  0.30785  0.15421  1.0000
  S   S272      1.0  0.88324  0.31576  0.12429  1.0000
  S   S273      1.0  0.86843  0.28173  0.20454  1.0000
  S   S274      1.0  0.88081  0.26948  0.16179  1.0000
  C   C625      1.0  0.96476  0.28260  0.18819  1.0000
  H   H994      1.0  0.69221  0.10650  0.02632  1.0000
  C   C626      1.0  0.96545  0.30712  0.18594  1.0000
  C   C627      1.0  0.83189  0.36539  0.24811  1.0000
  H   H995      1.0  0.94922  0.31817  0.18576  1.0000
  H   H996      1.0  0.81126  0.31044  0.13581  1.0000
  C   C628      1.0  0.84024  0.34527  0.23852  1.0000
  H   H997      1.0  0.98694  0.30225  0.14634  1.0000
  H   H998      1.0  0.91522  0.46724  0.04286  1.0000
  H   H999      1.0  0.80170  0.24059  0.11908  1.0000
  C   C629      1.0  0.84871  0.35466  0.07443  1.0000
  C   C630      1.0  0.83627  0.35368  0.09154  1.0000
  C   C631      1.0  0.84654  0.34208  0.10707  1.0000
  C   C632      1.0  0.86927  0.33108  0.10552  1.0000
  C   C633      1.0  0.88157  0.33196  0.08839  1.0000
  C   C634      1.0  0.87144  0.34376  0.07298  1.0000
  H   H1000     1.0  0.81872  0.36220  0.09281  1.0000
  H   H1001     1.0  0.83697  0.34185  0.12019  1.0000
  H   H1002     1.0  0.89909  0.32347  0.08693  1.0000
  H   H1003     1.0  0.88121  0.34432  0.05992  1.0000
  C   C635      1.0  0.77944  0.18510  0.16537  1.0000
  C   C636      1.0  0.80193  0.19008  0.15803  1.0000
  C   C637      1.0  0.81336  0.20978  0.16360  1.0000
  C   C638      1.0  0.80237  0.22483  0.17661  1.0000
  C   C639      1.0  0.77987  0.21986  0.18388  1.0000
  C   C640      1.0  0.76849  0.20014  0.17836  1.0000
  H   H1004     1.0  0.81062  0.17858  0.14799  1.0000
  H   H1005     1.0  0.83067  0.21324  0.15790  1.0000
  H   H1006     1.0  0.77115  0.23135  0.19393  1.0000
  H   H1007     1.0  0.75123  0.19663  0.18416  1.0000
  Fe  Fe138     1.0  0.90574  0.37242  0.01127  1.0000
  C   C641      1.0  0.90974  0.28552  0.24170  1.0000
  N   N62       1.0  0.93394  0.45518  0.01832  1.0000
  C   C642      1.0  0.81708  0.08568  0.18206  1.0000
  C   C643      1.0  0.69396  0.02938  0.18189  1.0000
  C   C644      1.0  0.71830  0.03157  0.18071  1.0000
  C   C645      1.0  0.73336  0.01091  0.17917  1.0000
  H   H1008     1.0  0.82757  0.08552  0.19462  1.0000
  N   N63       1.0  0.79303  0.09653  0.18542  1.0000
  H   H1009     1.0  0.68211  0.04500  0.18318  1.0000
  H   H1010     1.0  0.75221  0.01229  0.17833  1.0000
  H   H1011     1.0  0.89232  0.32382  0.22288  1.0000
  H   H1012     1.0  0.78210  0.30169  0.13246  1.0000
  C   C646      1.0  0.97662  0.31594  0.13806  1.0000
  C   C647      1.0  0.94459  0.32436  0.11757  1.0000
  H   H1013     1.0  0.81665  0.06709  0.17785  1.0000
  C   C648      1.0  0.94585  0.30547  0.23908  1.0000
  N   N64       1.0  0.80996  0.27573  0.12534  1.0000
  C   C649      1.0  0.66105  0.08413  0.04771  1.0000
  H   H1014     1.0  0.79222  0.24953  0.14170  1.0000
  C   C650      1.0  0.79442  0.25590  0.12709  1.0000
  H   H1015     1.0  0.81924  0.26993  0.09686  1.0000
  H   H1016     1.0  0.83271  0.26108  0.14629  1.0000
  H   H1017     1.0  0.77813  0.07803  0.16391  1.0000
  C   C651      1.0  0.77981  0.09633  0.16841  1.0000
  H   H1018     1.0  0.79453  0.29087  0.10070  1.0000
  C   C652      1.0  0.96465  0.37921  0.00934  1.0000
  H   H1019     1.0  0.69216  0.04660  0.04914  1.0000
  H   H1020     1.0  0.68144  0.10028  0.07679  1.0000
  H   H1021     1.0  0.77653  0.26121  0.12214  1.0000
  H   H1022     1.0  0.84697  0.46181  0.01960  1.0000
  C   C653      1.0  0.94497  0.43409  0.02796  1.0000
  H   H1023     1.0  0.71803  0.06256  0.04412  1.0000
  H   H1024     1.0  0.95486  0.47926  0.03137  1.0000
  N   N65       1.0  0.68653  0.08431  0.05052  1.0000
  H   H1025     1.0  0.83029  0.38237  0.24083  1.0000
  H   H1026     1.0  0.79839  0.28933  0.15158  1.0000
  H   H1027     1.0  0.93356  0.41892  0.02822  1.0000
  H   H1028     1.0  0.68376  0.06864  0.07784  1.0000
  H   H1029     1.0  0.91516  0.27451  0.22970  1.0000
  C   C654      1.0  0.79997  0.29517  0.13679  1.0000
  H   H1030     1.0  0.94270  0.49037  0.01008  1.0000
  C   C655      1.0  0.79431  0.12118  0.19091  1.0000
  H   H1031     1.0  0.70964  0.08465  0.07312  1.0000
  H   H1032     1.0  0.91778  0.31106  0.21060  1.0000
  H   H1033     1.0  0.89878  0.44968  0.02873  1.0000
  H   H1034     1.0  0.84836  0.30777  0.24096  1.0000
  H   H1035     1.0  0.95411  0.32265  0.23731  1.0000
  C   C656      1.0  0.66605  0.15273  0.07767  1.0000
  C   C657      1.0  0.81195  0.28421  0.10591  1.0000
  H   H1036     1.0  0.96723  0.46862  0.00990  1.0000
  H   H1037     1.0  0.82667  0.09554  0.17091  1.0000
  H   H1038     1.0  0.92743  0.28606  0.13433  1.0000
  N   N66       1.0  0.95805  0.30552  0.12807  1.0000
  S   S275      1.0  0.87856  0.34566  0.01462  1.0000
  H   H1039     1.0  0.95229  0.29455  0.22726  1.0000
  H   H1040     1.0  0.68699  0.12205  0.04712  1.0000
  C   C658      1.0  0.66913  0.14724  0.09656  1.0000
  H   H1041     1.0  0.71492  0.10627  0.04282  1.0000
  H   H1042     1.0  0.82389  0.29894  0.10414  1.0000
  H   H1043     1.0  0.98761  0.33651  0.18262  1.0000
  H   H1044     1.0  0.67926  0.13290  0.24227  1.0000
  C   C659      1.0  0.96899  0.28804  0.11527  1.0000
  H   H1045     1.0  0.96899  0.32942  0.14770  1.0000
  N   N67       1.0  0.91984  0.30881  0.23991  1.0000
  H   H1046     1.0  0.89014  0.28738  0.24246  1.0000
  C   C660      1.0  0.66967  0.14817  0.24801  1.0000
  H   H1047     1.0  0.67839  0.16349  0.07013  1.0000
  C   C661      1.0  0.69563  0.10567  0.04129  1.0000
  H   H1048     1.0  0.84175  0.25303  0.12337  1.0000
  C   C662      1.0  0.78086  0.08291  0.20022  1.0000
  H   H1049     1.0  0.77643  0.12998  0.19337  1.0000
  H   H1050     1.0  0.77930  0.06429  0.19640  1.0000
  H   H1051     1.0  0.79023  0.08261  0.21332  1.0000
  H   H1052     1.0  0.76255  0.09049  0.20299  1.0000
  H   H1053     1.0  0.76167  0.10436  0.17057  1.0000
  H   H1054     1.0  0.98597  0.24971  0.19029  1.0000
  H   H1055     1.0  0.91889  0.33901  0.22106  1.0000
  H   H1056     1.0  0.95542  0.27974  0.10759  1.0000
  H   H1057     1.0  0.95622  0.33425  0.10784  1.0000
  H   H1058     1.0  0.69543  0.06236  0.02754  1.0000
  H   H1059     1.0  0.95139  0.27919  0.14944  1.0000
  C   C663      1.0  0.91196  0.46327  0.02839  1.0000
  C   C664      1.0  0.69867  0.06303  0.04251  1.0000
  S   S276      1.0  0.94251  0.36328  0.02037  1.0000
  H   H1060     1.0  0.68369  0.15383  0.10342  1.0000
  C   C665      1.0  0.98682  0.37858  0.01702  1.0000
  H   H1061     1.0  0.84573  0.28224  0.13064  1.0000
  H   H1062     1.0  0.80317  0.13203  0.17995  1.0000
  H   H1063     1.0  0.99031  0.36776  0.02930  1.0000
  C   C666      1.0  0.98621  0.26869  0.18844  1.0000
  H   H1064     1.0  0.80410  0.12214  0.20372  1.0000
  C   C667      1.0  0.91187  0.32123  0.22286  1.0000
  C   C668      1.0  0.98730  0.31750  0.18415  1.0000
  C   C669      1.0  0.83358  0.26766  0.13169  1.0000
  H   H1065     1.0  0.93362  0.30634  0.15137  1.0000
  S   S277      1.0  0.66178  0.16426  0.21176  1.0000
  C   C670      1.0  0.68490  0.00684  0.18195  1.0000
  C   C671      1.0  0.85349  0.47738  0.01264  1.0000
  C   C672      1.0  0.84225  0.32345  0.24815  1.0000
  C   C673      1.0  0.94196  0.29372  0.14137  1.0000
  C   C674      1.0  0.95041  0.47422  0.01738  1.0000
  H   H1066     1.0  0.94857  0.43762  0.04244  1.0000
  H   H1067     1.0  0.93098  0.31697  0.10935  1.0000
  H   H1068     1.0  0.98111  0.29639  0.10495  1.0000
  H   H1069     1.0  0.96207  0.42812  0.02109  1.0000
  H   H1070     1.0  0.93511  0.33728  0.12685  1.0000
  H   H1071     1.0  0.90359  0.47960  0.02178  1.0000
  H   H1072     1.0  0.66606  0.00542  0.18324  1.0000
  H   H1073     1.0  0.97940  0.27365  0.12276  1.0000
  H   H1074     1.0  0.95260  0.29636  0.25180  1.0000
  H   H1075     1.0  0.83924  0.43828  0.37438  1.0000
  Fe  Fe139     1.0  0.78263  0.41692  0.32799  1.0000
  S   S278      1.0  0.81311  0.39261  0.33764  1.0000
  S   S279      1.0  0.79412  0.45470  0.32231  1.0000
  Fe  Fe140     1.0  0.74898  0.37566  0.33135  1.0000
  S   S280      1.0  0.77718  0.35014  0.34220  1.0000
  S   S281      1.0  0.71180  0.36510  0.32590  1.0000
  Fe  Fe141     1.0  0.78749  0.37970  0.35945  1.0000
  S   S282      1.0  0.78959  0.38102  0.39078  1.0000
  Fe  Fe142     1.0  0.79996  0.36572  0.31918  1.0000
  S   S283      1.0  0.82006  0.33890  0.30059  1.0000
  S   S284      1.0  0.75728  0.40446  0.35010  1.0000
  S   S285      1.0  0.77142  0.39073  0.30796  1.0000
  Fe  Fe143     1.0  0.87232  0.38977  0.47571  1.0000
  S   S286      1.0  0.88723  0.42523  0.47677  1.0000
  S   S287      1.0  0.87217  0.37220  0.44803  1.0000
  H   H1076     1.0  0.74307  0.31798  0.30774  1.0000
  H   H1077     1.0  0.78360  0.32680  0.26704  1.0000
  H   H1078     1.0  0.91728  0.31408  0.26905  1.0000
  H   H1079     1.0  0.71392  0.34239  0.28942  1.0000
  H   H1080     1.0  0.77252  0.31145  0.29826  1.0000
  C   C675      1.0  0.97484  0.38806  0.49690  1.0000
  H   H1081     1.0  0.82476  0.45028  0.40520  1.0000
  C   C676      1.0  0.75960  0.48922  0.33364  1.0000
  C   C677      1.0  0.75728  0.32485  0.29850  1.0000
  H   H1082     1.0  0.76664  0.46121  0.38316  1.0000
  H   H1083     1.0  0.81936  0.43894  0.35583  1.0000
  C   C678      1.0  0.82789  0.34205  0.27673  1.0000
  H   H1084     1.0  0.83799  0.30496  0.27446  1.0000
  H   H1085     1.0  0.84891  0.28570  0.48377  1.0000
  C   C679      1.0  0.82069  0.43609  0.37098  1.0000
  C   C680      1.0  0.80928  0.47710  0.37592  1.0000
  H   H1086     1.0  0.68270  0.25292  0.40157  1.0000
  H   H1087     1.0  0.86490  0.32302  0.47123  1.0000
  Fe  Fe144     1.0  0.90677  0.41042  0.50132  1.0000
  C   C681      1.0  0.81324  0.37926  0.40610  1.0000
  C   C682      1.0  0.80846  0.38542  0.42448  1.0000
  C   C683      1.0  0.82644  0.38417  0.43729  1.0000
  C   C684      1.0  0.84940  0.37616  0.43197  1.0000
  C   C685      1.0  0.85421  0.37000  0.41359  1.0000
  C   C686      1.0  0.83632  0.37182  0.40065  1.0000
  H   H1088     1.0  0.79066  0.39114  0.42887  1.0000
  H   H1089     1.0  0.82242  0.38889  0.45136  1.0000
  H   H1090     1.0  0.87188  0.36366  0.40935  1.0000
  H   H1091     1.0  0.84028  0.36691  0.38660  1.0000
  H   H1092     1.0  0.81922  0.37947  0.27419  1.0000
  S   S288      1.0  0.83655  0.46819  0.49741  1.0000
  H   H1093     1.0  0.73414  0.36513  0.28739  1.0000
  H   H1094     1.0  0.68575  0.24796  0.37730  1.0000
  C   C687      1.0  0.87944  0.48670  0.49770  1.0000
  C   C688      1.0  0.69219  0.34176  0.32628  1.0000
  C   C689      1.0  0.69834  0.31798  0.33138  1.0000
  C   C690      1.0  0.68153  0.30060  0.33068  1.0000
  C   C691      1.0  0.82560  0.36380  0.26706  1.0000
  H   H1095     1.0  0.77498  0.35602  0.27418  1.0000
  H   H1096     1.0  0.71594  0.31302  0.33581  1.0000
  H   H1097     1.0  0.76331  0.34062  0.30494  1.0000
  H   H1098     1.0  0.85586  0.35017  0.48174  1.0000
  H   H1099     1.0  0.68643  0.28235  0.33434  1.0000
  C   C692      1.0  0.77969  0.44869  0.37624  1.0000
  C   C693      1.0  0.80645  0.44818  0.40106  1.0000
  H   H1100     1.0  0.81947  0.29863  0.48140  1.0000
  N   N68       1.0  0.74892  0.33081  0.27984  1.0000
  H   H1101     1.0  0.91922  0.34067  0.25497  1.0000
  H   H1102     1.0  0.73468  0.31321  0.25766  1.0000
  C   C694      1.0  0.76835  0.34009  0.26824  1.0000
  H   H1103     1.0  0.74751  0.47534  0.33506  1.0000
  H   H1104     1.0  0.76275  0.34511  0.25409  1.0000
  H   H1105     1.0  0.67892  0.29663  0.39497  1.0000
  C   C695      1.0  0.67275  0.25079  0.38899  1.0000
  C   C696      1.0  0.66928  0.34774  0.32065  1.0000
  C   C697      1.0  0.72901  0.34891  0.28092  1.0000
  C   C698      1.0  0.85542  0.48987  0.50238  1.0000
  C   C699      1.0  0.83630  0.32191  0.26715  1.0000
  C   C700      1.0  0.74107  0.30937  0.27177  1.0000
  H   H1106     1.0  0.77740  0.45107  0.36116  1.0000
  H   H1107     1.0  0.67375  0.13566  0.27620  1.0000
  H   H1108     1.0  0.77498  0.43048  0.38038  1.0000
  H   H1109     1.0  0.75568  0.29533  0.27083  1.0000
  H   H1110     1.0  0.80216  0.42987  0.40529  1.0000
  S   S289      1.0  0.89430  0.37399  0.49900  1.0000
  H   H1111     1.0  0.83540  0.33585  0.46884  1.0000
  H   H1112     1.0  0.79670  0.49006  0.38288  1.0000
  N   N69       1.0  0.80404  0.45253  0.38107  1.0000
  N   N70       1.0  0.84228  0.31968  0.49559  1.0000
  C   C701      1.0  0.83443  0.29653  0.49082  1.0000
  Fe  Fe145     1.0  0.85721  0.43314  0.49689  1.0000
  H   H1113     1.0  0.72246  0.35419  0.26708  1.0000
  C   C702      1.0  0.66648  0.14978  0.26730  1.0000
  C   C703      1.0  0.84989  0.33263  0.47863  1.0000
  H   H1114     1.0  0.80722  0.33653  0.49595  1.0000
  S   S290      1.0  0.84065  0.39879  0.49426  1.0000
  C   C704      1.0  0.78298  0.48385  0.32772  1.0000
  H   H1115     1.0  0.79434  0.46044  0.40912  1.0000
  H   H1116     1.0  0.66603  0.05517  0.43763  1.0000
  H   H1117     1.0  0.81710  0.41738  0.37439  1.0000
  H   H1118     1.0  0.96006  0.37836  0.49345  1.0000
  H   H1119     1.0  0.66327  0.23429  0.39105  1.0000
  H   H1120     1.0  0.72639  0.30197  0.28025  1.0000
  H   H1121     1.0  0.80796  0.48064  0.36085  1.0000
  C   C705      1.0  0.66930  0.29297  0.38252  1.0000
  H   H1122     1.0  0.68247  0.29127  0.37082  1.0000
  H   H1123     1.0  0.66419  0.36588  0.31666  1.0000
  H   H1124     1.0  0.82742  0.48073  0.37956  1.0000
  H   H1125     1.0  0.88640  0.47093  0.49107  1.0000
  H   H1126     1.0  0.67903  0.06276  0.46881  1.0000
  H   H1127     1.0  0.87748  0.30591  0.50146  1.0000
  C   C706      1.0  0.91186  0.32300  0.25587  1.0000
  H   H1128     1.0  0.91560  0.27547  0.25430  1.0000
  H   H1129     1.0  0.89228  0.32606  0.25665  1.0000
  H   H1130     1.0  0.66641  0.02291  0.46165  1.0000
  Fe  Fe146     1.0  0.86342  0.38603  0.51776  1.0000
  S   S291      1.0  0.87742  0.42117  0.52162  1.0000
  S   S292      1.0  0.85030  0.36233  0.54167  1.0000
  Fe  Fe147     1.0  0.79698  0.38927  0.64751  1.0000
  S   S293      1.0  0.75839  0.39784  0.65419  1.0000
  S   S294      1.0  0.80973  0.40209  0.61870  1.0000
  Fe  Fe148     1.0  0.80521  0.37053  0.68768  1.0000
  S   S295      1.0  0.76704  0.37733  0.69616  1.0000
  S   S296      1.0  0.83471  0.35694  0.70674  1.0000
  Fe  Fe149     1.0  0.75891  0.36216  0.66907  1.0000
  S   S297      1.0  0.73602  0.33257  0.66084  1.0000
  Fe  Fe150     1.0  0.77017  0.41241  0.68036  1.0000
  S   S298      1.0  0.75631  0.44643  0.69432  1.0000
  S   S299      1.0  0.79738  0.35322  0.66144  1.0000
  S   S300      1.0  0.80850  0.40594  0.67296  1.0000
  H   H1131     1.0  0.73810  0.48171  0.71810  1.0000
  H   H1132     1.0  0.83439  0.44994  0.71382  1.0000
  H   H1133     1.0  0.69386  0.15673  0.73029  1.0000
  C   C707      1.0  0.79528  0.40976  0.72782  1.0000
  C   C708      1.0  0.83408  0.34883  0.73066  1.0000
  H   H1134     1.0  0.69392  0.20872  0.72713  1.0000
  H   H1135     1.0  0.98739  0.44033  0.51397  1.0000
  C   C709      1.0  0.81337  0.35076  0.74168  1.0000
  C   C710      1.0  0.97085  0.41058  0.50401  1.0000
  C   C711      1.0  0.76144  0.47715  0.69434  1.0000
  C   C712      1.0  0.83986  0.37358  0.56325  1.0000
  C   C713      1.0  0.83446  0.39772  0.56548  1.0000
  C   C714      1.0  0.82548  0.40597  0.58258  1.0000
  C   C715      1.0  0.82198  0.39034  0.59776  1.0000
  C   C716      1.0  0.82769  0.36619  0.59563  1.0000
  C   C717      1.0  0.83634  0.35787  0.57842  1.0000
  H   H1136     1.0  0.83691  0.41005  0.55398  1.0000
  H   H1137     1.0  0.82115  0.42468  0.58402  1.0000
  H   H1138     1.0  0.82575  0.35395  0.60724  1.0000
  H   H1139     1.0  0.84068  0.33919  0.57693  1.0000
  H   H1140     1.0  0.87136  0.33908  0.73053  1.0000
  H   H1141     1.0  0.77986  0.41742  0.72022  1.0000
  H   H1142     1.0  0.91119  0.44013  0.56571  1.0000
  H   H1143     1.0  0.81264  0.46164  0.74235  1.0000
  C   C718      1.0  0.68195  0.28863  0.66344  1.0000
  C   C719      1.0  0.70333  0.29918  0.65907  1.0000
  C   C720      1.0  0.70884  0.31997  0.66740  1.0000
  C   C721      1.0  0.69257  0.33007  0.68025  1.0000
  H   H1144     1.0  0.79687  0.35646  0.73555  1.0000
  H   H1145     1.0  0.71569  0.29116  0.64910  1.0000
  H   H1146     1.0  0.69639  0.34610  0.68673  1.0000
  H   H1147     1.0  0.85707  0.30665  0.52108  1.0000
  C   C722      1.0  0.66557  0.29884  0.67615  1.0000
  C   C723      1.0  0.83171  0.41681  0.74160  1.0000
  H   H1148     1.0  0.91627  0.43567  0.54160  1.0000
  H   H1149     1.0  0.91510  0.48008  0.57785  1.0000
  C   C724      1.0  0.77626  0.48883  0.68153  1.0000
  H   H1150     1.0  0.88115  0.47246  0.55887  1.0000
  C   C725      1.0  0.86221  0.31612  0.50801  1.0000
  H   H1151     1.0  0.70578  0.23957  0.69293  1.0000
  H   H1152     1.0  0.84513  0.42962  0.74380  1.0000
  N   N71       1.0  0.68367  0.24396  0.71744  1.0000
  H   H1153     1.0  0.67803  0.27274  0.65679  1.0000
  H   H1154     1.0  0.92531  0.46939  0.52032  1.0000
  C   C726      1.0  0.67903  0.16308  0.73893  1.0000
  H   H1155     1.0  0.78571  0.45626  0.73176  1.0000
  H   H1156     1.0  0.84085  0.40133  0.73470  1.0000
  C   C727      1.0  0.92150  0.44598  0.55324  1.0000
  H   H1157     1.0  0.70891  0.27051  0.71496  1.0000
  H   H1158     1.0  0.71743  0.22820  0.72511  1.0000
  C   C728      1.0  0.85522  0.34072  0.73891  1.0000
  C   C729      1.0  0.67107  0.31963  0.68450  1.0000
  C   C730      1.0  0.89217  0.47764  0.54659  1.0000
  H   H1159     1.0  0.95033  0.47304  0.53366  1.0000
  N   N72       1.0  0.81235  0.42760  0.73049  1.0000
  H   H1160     1.0  0.78846  0.40220  0.74115  1.0000
  H   H1161     1.0  0.78547  0.47897  0.67070  1.0000
  H   H1162     1.0  0.82796  0.35118  0.50848  1.0000
  H   H1163     1.0  0.94045  0.44079  0.55530  1.0000
  C   C731      1.0  0.93125  0.47831  0.53248  1.0000
  N   N73       1.0  0.75550  0.35233  0.60596  1.0000
  C   C732      1.0  0.76508  0.36050  0.58782  1.0000
  C   C733      1.0  0.74107  0.37192  0.61447  1.0000
  C   C734      1.0  0.77516  0.34467  0.61789  1.0000
  C   C735      1.0  0.74075  0.33229  0.60381  1.0000
  H   H1164     1.0  0.77652  0.34638  0.58112  1.0000
  H   H1165     1.0  0.77608  0.37580  0.58915  1.0000
  H   H1166     1.0  0.75078  0.36630  0.57837  1.0000
  H   H1167     1.0  0.73411  0.36657  0.62844  1.0000
  H   H1168     1.0  0.75159  0.38752  0.61592  1.0000
  H   H1169     1.0  0.72571  0.37781  0.60609  1.0000
  H   H1170     1.0  0.78721  0.33078  0.61151  1.0000
  H   H1171     1.0  0.76865  0.33730  0.63137  1.0000
  H   H1172     1.0  0.78577  0.35969  0.62076  1.0000
  H   H1173     1.0  0.73322  0.32600  0.61740  1.0000
  H   H1174     1.0  0.75115  0.31706  0.59767  1.0000
  H   H1175     1.0  0.72571  0.33734  0.59487  1.0000
  H   H1176     1.0  0.67906  0.28126  0.71147  1.0000
  C   C736      1.0  0.68725  0.23786  0.69795  1.0000
  H   H1177     1.0  0.67583  0.24961  0.68899  1.0000
  C   C737      1.0  0.69839  0.22726  0.72891  1.0000
  C   C738      1.0  0.82201  0.43588  0.71241  1.0000
  H   H1178     1.0  0.86849  0.33327  0.51191  1.0000
  H   H1179     1.0  0.80772  0.44329  0.70340  1.0000
  C   C739      1.0  0.69033  0.26833  0.71970  1.0000
  N   N74       1.0  0.91750  0.47164  0.54931  1.0000
  C   C740      1.0  0.92513  0.48470  0.56491  1.0000
  H   H1180     1.0  0.80349  0.39495  0.71974  1.0000
  H   H1181     1.0  0.94419  0.48066  0.56728  1.0000
  H   H1182     1.0  0.69571  0.23085  0.74378  1.0000
  H   H1183     1.0  0.83182  0.42117  0.70508  1.0000
  H   H1184     1.0  0.68287  0.21939  0.69580  1.0000
  H   H1185     1.0  0.68820  0.27341  0.73429  1.0000
  S   S301      1.0  0.94212  0.42410  0.50783  1.0000
  H   H1186     1.0  0.88591  0.46849  0.53469  1.0000
  H   H1187     1.0  0.81673  0.32459  0.51797  1.0000
  C   C741      1.0  0.80030  0.44781  0.74002  1.0000
  C   C742      1.0  0.99027  0.42292  0.50847  1.0000
  C   C743      1.0  0.74961  0.49033  0.70815  1.0000
  C   C744      1.0  0.82262  0.33352  0.50487  1.0000
  H   H1188     1.0  0.82854  0.28628  0.50332  1.0000
  Fe  Fe151     1.0  0.68713  0.14481  0.81386  1.0000
  S   S302      1.0  0.71952  0.12379  0.80377  1.0000
  H   H1189     1.0  0.79786  0.34700  0.76911  1.0000
  Fe  Fe152     1.0  0.69653  0.13044  0.85482  1.0000
  S   S303      1.0  0.72917  0.10803  0.84624  1.0000
  C   C745      1.0  0.96021  0.39323  0.99348  1.0000
  Fe  Fe153     1.0  0.73736  0.13910  0.82733  1.0000
  S   S304      1.0  0.77469  0.15222  0.82504  1.0000
  Fe  Fe154     1.0  0.70803  0.09492  0.82384  1.0000
  S   S305      1.0  0.70116  0.05829  0.81347  1.0000
  S   S306      1.0  0.70557  0.16185  0.83643  1.0000
  H   H1190     1.0  0.82764  0.38445  0.96195  1.0000
  Fe  Fe155     1.0  0.86531  0.36121  0.98765  1.0000
  S   S307      1.0  0.89458  0.38543  0.98332  1.0000
  S   S308      1.0  0.85208  0.33847  0.96552  1.0000
  H   H1191     1.0  0.76949  0.14401  0.86530  1.0000
  H   H1192     1.0  0.90524  0.30261  0.89705  1.0000
  H   H1193     1.0  0.77336  0.28262  0.77557  1.0000
  S   S309      1.0  0.67489  0.11567  0.83333  1.0000
  H   H1194     1.0  0.82525  0.45007  0.95871  1.0000
  Fe  Fe156     1.0  0.89932  0.28263  0.83305  1.0000
  S   S310      1.0  0.88950  0.32162  0.83027  1.0000
  S   S311      1.0  0.93757  0.26709  0.83556  1.0000
  Fe  Fe157     1.0  0.84754  0.27072  0.84203  1.0000
  S   S312      1.0  0.83604  0.30949  0.84121  1.0000
  S   S313      1.0  0.81497  0.24923  0.84771  1.0000
  Fe  Fe158     1.0  0.85808  0.31171  0.81489  1.0000
  S   S314      1.0  0.83438  0.33014  0.79306  1.0000
  Fe  Fe159     1.0  0.86811  0.31576  0.85665  1.0000
  S   S315      1.0  0.87443  0.34207  0.87873  1.0000
  S   S316      1.0  0.86939  0.27276  0.81559  1.0000
  S   S317      1.0  0.87814  0.27699  0.85967  1.0000
  C   C746      1.0  0.83512  0.33712  0.76898  1.0000
  H   H1195     1.0  0.82677  0.41542  0.91620  1.0000
  H   H1196     1.0  0.82507  0.41026  0.75533  1.0000
  C   C747      1.0  0.96527  0.27910  0.82996  1.0000
  C   C748      1.0  0.96770  0.29775  0.81704  1.0000
  H   H1197     1.0  0.69610  0.15256  0.76427  1.0000
  H   H1198     1.0  0.95231  0.30566  0.81035  1.0000
  C   C749      1.0  0.97787  0.40676  0.98543  1.0000
  C   C750      1.0  0.85955  0.33890  0.94156  1.0000
  C   C751      1.0  0.84958  0.32293  0.93036  1.0000
  C   C752      1.0  0.85413  0.32341  0.91115  1.0000
  C   C753      1.0  0.86835  0.34024  0.90288  1.0000
  C   C754      1.0  0.87837  0.35619  0.91409  1.0000
  C   C755      1.0  0.87431  0.35529  0.93334  1.0000
  H   H1199     1.0  0.83816  0.31014  0.93658  1.0000
  H   H1200     1.0  0.84631  0.31101  0.90274  1.0000
  H   H1201     1.0  0.88957  0.36915  0.90786  1.0000
  H   H1202     1.0  0.88251  0.36730  0.94183  1.0000
  H   H1203     1.0  0.78187  0.15790  0.91326  1.0000
  H   H1204     1.0  0.79994  0.43268  0.96166  1.0000
  H   H1205     1.0  0.68106  0.11836  0.77881  1.0000
  H   H1206     1.0  0.82815  0.24172  0.80290  1.0000
  C   C756      1.0  0.81952  0.43176  0.96060  1.0000
  H   H1207     1.0  0.77221  0.13035  0.90606  1.0000
  H   H1208     1.0  0.91911  0.46436  0.99208  1.0000
  C   C757      1.0  0.78540  0.17962  0.83090  1.0000
  C   C758      1.0  0.80969  0.18279  0.82869  1.0000
  C   C759      1.0  0.81910  0.20394  0.83360  1.0000
  C   C760      1.0  0.80431  0.22221  0.84094  1.0000
  C   C761      1.0  0.77999  0.21910  0.84304  1.0000
  C   C762      1.0  0.77056  0.19807  0.83791  1.0000
  H   H1209     1.0  0.82137  0.16866  0.82327  1.0000
  H   H1210     1.0  0.83783  0.20594  0.83194  1.0000
  H   H1211     1.0  0.76833  0.23312  0.84862  1.0000
  H   H1212     1.0  0.75183  0.19606  0.83952  1.0000
  H   H1213     1.0  0.94577  0.31322  0.85672  1.0000
  C   C763      1.0  0.72444  0.02301  0.83530  1.0000
  C   C764      1.0  0.70874  0.02859  0.82125  1.0000
  C   C765      1.0  0.69885  0.00996  0.81273  1.0000
  H   H1214     1.0  0.95713  0.27420  0.87197  1.0000
  H   H1215     1.0  0.78269  0.18222  0.87476  1.0000
  H   H1216     1.0  0.73231  0.03704  0.84196  1.0000
  H   H1217     1.0  0.68676  0.01396  0.80180  1.0000
  C   C766      1.0  0.77758  0.14805  0.90107  1.0000
  C   C767      1.0  0.92257  0.30899  0.90041  1.0000
  C   C768      1.0  0.94350  0.27848  0.88291  1.0000
  H   H1218     1.0  0.82605  0.42488  0.97411  1.0000
  C   C769      1.0  0.67149  0.13223  0.90414  1.0000
  H   H1219     1.0  0.94326  0.39357  0.98738  1.0000
  C   C770      1.0  0.68029  0.16055  0.75825  1.0000
  N   N75       1.0  0.80308  0.26562  0.78915  1.0000
  C   C771      1.0  0.82041  0.27587  0.77602  1.0000
  C   C772      1.0  0.78038  0.26466  0.78018  1.0000
  C   C773      1.0  0.67753  0.12618  0.92237  1.0000
  C   C774      1.0  0.81181  0.24150  0.79503  1.0000
  C   C775      1.0  0.85574  0.33470  0.75791  1.0000
  H   H1220     1.0  0.73112  0.14712  0.90795  1.0000
  C   C776      1.0  0.81397  0.34520  0.76072  1.0000
  C   C777      1.0  0.79965  0.28046  0.80538  1.0000
  H   H1221     1.0  0.68912  0.10000  0.75972  1.0000
  H   H1222     1.0  0.91966  0.32825  0.90263  1.0000
  H   H1223     1.0  0.81402  0.29380  0.77094  1.0000
  H   H1224     1.0  0.76690  0.25709  0.78978  1.0000
  H   H1225     1.0  0.86210  0.40775  0.95773  1.0000
  H   H1226     1.0  0.79853  0.23282  0.80412  1.0000
  H   H1227     1.0  0.86261  0.40555  0.93320  1.0000
  H   H1228     1.0  0.79325  0.29889  0.80152  1.0000
  C   C778      1.0  0.68128  0.10007  0.77396  1.0000
  H   H1229     1.0  0.94884  0.26865  0.89574  1.0000
  S   S318      1.0  0.69411  0.13065  0.88641  1.0000
  H   H1230     1.0  0.80162  0.39230  0.94949  1.0000
  N   N76       1.0  0.82888  0.41670  0.94552  1.0000
  H   H1231     1.0  0.78233  0.25351  0.76791  1.0000
  C   C779      1.0  0.82007  0.42653  0.92782  1.0000
  H   H1232     1.0  0.73967  0.15638  0.86629  1.0000
  C   C780      1.0  0.82114  0.39253  0.94878  1.0000
  H   H1233     1.0  0.69341  0.08893  0.78281  1.0000
  N   N77       1.0  0.75878  0.16095  0.89056  1.0000
  H   H1234     1.0  0.81643  0.28162  0.81244  1.0000
  H   H1235     1.0  0.83748  0.27777  0.78255  1.0000
  H   H1236     1.0  0.82579  0.44468  0.92485  1.0000
  H   H1237     1.0  0.86141  0.43399  0.94338  1.0000
  H   H1238     1.0  0.91580  0.30992  0.86411  1.0000
  H   H1239     1.0  0.92964  0.33573  0.86984  1.0000
  N   N78       1.0  0.94049  0.30419  0.88553  1.0000
  C   C781      1.0  0.93269  0.31633  0.86830  1.0000
  C   C782      1.0  0.75367  0.14713  0.87463  1.0000
  H   H1240     1.0  0.74733  0.12962  0.87909  1.0000
  C   C783      1.0  0.96315  0.31295  0.89047  1.0000
  H   H1241     1.0  0.75276  0.19438  0.87609  1.0000
  H   H1242     1.0  0.82404  0.26483  0.76382  1.0000
  H   H1243     1.0  0.69544  0.11993  0.92517  1.0000
  H   H1244     1.0  0.74013  0.17524  0.91441  1.0000
  C   C784      1.0  0.73724  0.16433  0.90247  1.0000
  H   H1245     1.0  0.72239  0.17315  0.89473  1.0000
  C   C785      1.0  0.76664  0.18418  0.88400  1.0000
  H   H1246     1.0  0.79405  0.14521  0.89240  1.0000
  H   H1247     1.0  0.80048  0.42742  0.92785  1.0000
  H   H1248     1.0  0.92778  0.30023  0.91370  1.0000
  H   H1249     1.0  0.87215  0.32849  0.76400  1.0000
  H   H1250     1.0  0.98405  0.25445  0.84831  1.0000
  H   H1251     1.0  0.82794  0.38062  0.93770  1.0000
  C   C786      1.0  0.98562  0.26898  0.83839  1.0000
  H   H1252     1.0  0.96961  0.30417  0.90342  1.0000
  H   H1253     1.0  0.97702  0.30965  0.87945  1.0000
  H   H1254     1.0  0.77090  0.19508  0.89561  1.0000
  C   C787      1.0  0.85489  0.41596  0.94486  1.0000
  H   H1255     1.0  0.78692  0.27313  0.81575  1.0000
  Fe  Fe160     1.0  0.87078  0.41193  0.99867  1.0000
  C   C788      1.0  0.92846  0.44921  0.99948  1.0000
  H   H1256     1.0  0.81582  0.23005  0.78311  1.0000
  H   H1257     1.0  0.97451  0.41745  0.97308  1.0000
  H   H1258     1.0  0.92688  0.27146  0.87858  1.0000
  S   S319      1.0  0.86988  0.44836  0.98441  1.0000
  C   C789      1.0  0.73043  0.99917  0.84048  1.0000
  H   H1259     1.0  0.96142  0.33232  0.89255  1.0000
  C   C790      1.0  0.86553  0.47552  0.99558  1.0000
  C   C791      1.0  0.66113  0.16828  0.76967  1.0000
  H   H1260     1.0  0.66564  0.12344  0.95100  1.0000
  H   H1261     1.0  0.94470  0.44411  0.99120  1.0000
  H   H1262     1.0  0.91694  0.43414  0.99961  1.0000
  S   S320      1.0  0.84059  0.38836  0.00155  1.0000
  C   C792      1.0  0.99024  0.30551  0.81215  1.0000
  H   H1263     1.0  0.99191  0.31940  0.80167  1.0000
  S   S321      1.0  0.66080  0.16388  0.79414  1.0000
  H   H1264     1.0  0.66980  0.05540  0.78010  1.0000
  H   H1265     1.0  0.79250  0.44216  0.75361  1.0000
  H   H1266     1.0  0.66674  0.06374  0.75624  1.0000
  C   C793      1.0  0.66063  0.12810  0.93709  1.0000
  H   H1267     1.0  0.74287  0.99512  0.85117  1.0000
  Fe  Fe161     1.0  0.69303  0.88571  0.14242  1.0000
  S   S322      1.0  0.72314  0.90571  0.15144  1.0000
  H   H1268     1.0  0.90049  0.73744  0.22736  1.0000
  Fe  Fe162     1.0  0.67999  0.87139  0.18305  1.0000
  S   S323      1.0  0.70945  0.89030  0.19398  1.0000
  H   H1269     1.0  0.98486  0.64397  0.02682  1.0000
  Fe  Fe163     1.0  0.69867  0.92011  0.17389  1.0000
  S   S324      1.0  0.68728  0.95819  0.18189  1.0000
  Fe  Fe164     1.0  0.73134  0.87404  0.17043  1.0000
  S   S325      1.0  0.76975  0.85916  0.17244  1.0000
  H   H1270     1.0  0.68641  0.86156  0.22966  1.0000
  S   S326      1.0  0.70239  0.85347  0.16058  1.0000
  H   H1271     1.0  0.78561  0.72529  0.13863  1.0000
  H   H1272     1.0  0.91788  0.76056  0.23430  1.0000
  H   H1273     1.0  0.78621  0.71576  0.10551  1.0000
  Fe  Fe165     1.0  0.88242  0.62906  0.02602  1.0000
  S   S327      1.0  0.88001  0.65912  0.04632  1.0000
  S   S328      1.0  0.89828  0.59226  0.03134  1.0000
  Fe  Fe166     1.0  0.85338  0.73662  0.16493  1.0000
  S   S329      1.0  0.84762  0.69875  0.17345  1.0000
  S   S330      1.0  0.81886  0.75664  0.15620  1.0000
  Fe  Fe167     1.0  0.90762  0.72736  0.16835  1.0000
  S   S331      1.0  0.90456  0.68917  0.17659  1.0000
  S   S332      1.0  0.94253  0.74553  0.16638  1.0000
  Fe  Fe168     1.0  0.87848  0.68952  0.15396  1.0000
  S   S333      1.0  0.87654  0.65912  0.13440  1.0000
  Fe  Fe169     1.0  0.87390  0.70205  0.19519  1.0000
  S   S334      1.0  0.87258  0.69430  0.22642  1.0000
  S   S335      1.0  0.88327  0.72701  0.14457  1.0000
  S   S336      1.0  0.87803  0.74054  0.18779  1.0000
  C   C794      1.0  0.97209  0.73441  0.17037  1.0000
  H   H1274     1.0  0.92469  0.63293  0.04535  1.0000
  C   C795      1.0  0.75897  0.85191  0.09431  1.0000
  C   C796      1.0  0.95968  0.74102  0.22118  1.0000
  H   H1275     1.0  0.83857  0.71117  0.13444  1.0000
  H   H1276     1.0  0.77221  0.86037  0.08503  1.0000
  C   C797      1.0  0.85357  0.67732  0.24097  1.0000
  C   C798      1.0  0.69993  0.98617  0.18041  1.0000
  H   H1277     1.0  0.82634  0.67159  0.14325  1.0000
  H   H1278     1.0  0.96392  0.69892  0.17826  1.0000
  H   H1279     1.0  0.83743  0.66039  0.21932  1.0000
  H   H1280     1.0  0.95156  0.69706  0.21327  1.0000
  C   C799      1.0  0.87948  0.65848  0.07083  1.0000
  C   C800      1.0  0.87771  0.63759  0.08148  1.0000
  C   C801      1.0  0.87704  0.63812  0.10087  1.0000
  C   C802      1.0  0.87849  0.65942  0.10989  1.0000
  C   C803      1.0  0.88073  0.68023  0.09923  1.0000
  C   C804      1.0  0.88099  0.67977  0.07985  1.0000
  H   H1281     1.0  0.87653  0.62106  0.07481  1.0000
  H   H1282     1.0  0.87535  0.62189  0.10896  1.0000
  H   H1283     1.0  0.88216  0.69671  0.10590  1.0000
  H   H1284     1.0  0.88245  0.69605  0.07178  1.0000
  C   C805      1.0  0.81563  0.67252  0.13076  1.0000
  C   C806      1.0  0.78707  0.84450  0.11829  1.0000
  C   C807      1.0  0.79284  0.69744  0.10948  1.0000
  H   H1285     1.0  0.82719  0.66488  0.11947  1.0000
  H   H1286     1.0  0.74661  0.82423  0.12406  1.0000
  H   H1287     1.0  0.68962  0.93292  0.21775  1.0000
  H   H1288     1.0  0.82142  0.73058  0.11958  1.0000
  C   C808      1.0  0.78259  0.82987  0.16945  1.0000
  C   C809      1.0  0.80690  0.82520  0.17188  1.0000
  C   C810      1.0  0.81816  0.80271  0.16856  1.0000
  C   C811      1.0  0.80531  0.78465  0.16241  1.0000
  C   C812      1.0  0.78099  0.78930  0.16001  1.0000
  C   C813      1.0  0.76962  0.81159  0.16377  1.0000
  H   H1289     1.0  0.81716  0.83912  0.17628  1.0000
  H   H1290     1.0  0.83689  0.79954  0.17039  1.0000
  H   H1291     1.0  0.77079  0.77549  0.15536  1.0000
  H   H1292     1.0  0.75085  0.81458  0.16222  1.0000
  C   C814      1.0  0.99045  0.74976  0.16792  1.0000
  H   H1293     1.0  0.94972  0.68731  0.02485  1.0000
  C   C815      1.0  0.83829  0.66191  0.23403  1.0000
  S   S337      1.0  0.66795  0.90174  0.16389  1.0000
  C   C816      1.0  0.72426  0.98839  0.17882  1.0000
  H   H1294     1.0  0.75952  0.83286  0.09120  1.0000
  H   H1295     1.0  0.76578  0.88370  0.13204  1.0000
  C   C817      1.0  0.94656  0.66796  0.05907  1.0000
  C   C818      1.0  0.82720  0.71170  0.12241  1.0000
  H   H1296     1.0  0.98754  0.64313  0.05125  1.0000
  Fe  Fe170     1.0  0.87069  0.58000  0.01341  1.0000
  C   C819      1.0  0.74544  0.84369  0.12551  1.0000
  H   H1297     1.0  0.98647  0.76778  0.16305  1.0000
  C   C820      1.0  0.85729  0.52011  0.01154  1.0000
  H   H1298     1.0  0.94836  0.62224  0.03025  1.0000
  H   H1299     1.0  0.95338  0.68586  0.05882  1.0000
  S   S338      1.0  0.69287  0.88546  0.11081  1.0000
  H   H1300     1.0  0.83839  0.70539  0.11049  1.0000
  H   H1301     1.0  0.83931  0.50105  0.03345  1.0000
  H   H1302     1.0  0.95174  0.62083  0.05465  1.0000
  N   N79       1.0  0.95333  0.65561  0.04197  1.0000
  H   H1303     1.0  0.92705  0.67026  0.06106  1.0000
  H   H1304     1.0  0.94799  0.66044  0.01298  1.0000
  S   S339      1.0  0.85010  0.54798  0.02120  1.0000
  H   H1305     1.0  0.81289  0.63602  0.24058  1.0000
  H   H1306     1.0  0.72732  0.85048  0.12200  1.0000
  H   H1307     1.0  0.93388  0.71700  0.19890  1.0000
  N   N80       1.0  0.93793  0.72899  0.22599  1.0000
  H   H1308     1.0  0.68591  0.93283  0.24235  1.0000
  C   C821      1.0  0.67492  0.88824  0.07613  1.0000
  H   H1309     1.0  0.92367  0.67124  0.02745  1.0000
  S   S340      1.0  0.85273  0.61649  0.01027  1.0000
  H   H1310     1.0  0.92015  0.69971  0.21680  1.0000
  H   H1311     1.0  0.73610  0.97273  0.17779  1.0000
  C   C822      1.0  0.97762  0.71116  0.17667  1.0000
  C   C823      1.0  0.82439  0.64806  0.24615  1.0000
  H   H1312     1.0  0.91651  0.75449  0.21039  1.0000
  C   C824      1.0  0.91730  0.74614  0.22448  1.0000
  H   H1313     1.0  0.77734  0.68664  0.11175  1.0000
  H   H1314     1.0  0.80352  0.69023  0.09755  1.0000
  H   H1315     1.0  0.80243  0.70682  0.15430  1.0000
  C   C825      1.0  0.79221  0.70666  0.14160  1.0000
  N   N81       1.0  0.80695  0.69707  0.12607  1.0000
  C   C826      1.0  0.94326  0.66926  0.02612  1.0000
  H   H1316     1.0  0.78850  0.82512  0.11632  1.0000
  H   H1317     1.0  0.74120  0.85992  0.09071  1.0000
  H   H1318     1.0  0.79095  0.84714  0.13292  1.0000
  H   H1319     1.0  0.80091  0.66085  0.13350  1.0000
  H   H1320     1.0  0.77536  0.89005  0.10869  1.0000
  H   H1321     1.0  0.77676  0.69609  0.14485  1.0000
  H   H1322     1.0  0.74445  0.88919  0.11458  1.0000
  C   C827      1.0  0.84915  0.49965  0.02046  1.0000
  H   H1323     1.0  0.74746  0.84712  0.14022  1.0000
  N   N82       1.0  0.76347  0.85518  0.11384  1.0000
  C   C828      1.0  0.67101  0.85455  0.23644  1.0000
  C   C829      1.0  0.76223  0.88067  0.11741  1.0000
  H   H1324     1.0  0.80117  0.85249  0.10960  1.0000
  C   C830      1.0  0.97928  0.65333  0.03956  1.0000
  H   H1325     1.0  0.95338  0.65792  0.07139  1.0000
  C   C831      1.0  0.93583  0.70982  0.21319  1.0000
  H   H1326     1.0  0.69300  0.88988  0.07138  1.0000
  H   H1327     1.0  0.95403  0.70570  0.24653  1.0000
  H   H1328     1.0  0.68543  0.90575  0.23052  1.0000
  C   C832      1.0  0.94417  0.63187  0.04311  1.0000
  Fe  Fe171     1.0  0.91842  0.59796  0.00461  1.0000
  H   H1329     1.0  0.95929  0.74900  0.20694  1.0000
  H   H1330     1.0  0.96205  0.75547  0.23065  1.0000
  C   C833      1.0  0.93878  0.71890  0.24498  1.0000
  H   H1331     1.0  0.97562  0.72851  0.22169  1.0000
  C   C834      1.0  0.66954  0.88594  0.09515  1.0000
  H   H1332     1.0  0.81416  0.58445  0.00508  1.0000
  H   H1333     1.0  0.66166  0.88988  0.04859  1.0000
  C   C835      1.0  0.67990  0.92493  0.22978  1.0000
  H   H1334     1.0  0.77555  0.56400  0.25032  1.0000
  H   H1335     1.0  0.98686  0.67089  0.03843  1.0000
  H   H1336     1.0  0.92247  0.70977  0.24888  1.0000
  H   H1337     1.0  0.67263  0.77201  0.25267  1.0000
  S   S341      1.0  0.95614  0.58372  0.00413  1.0000
  Fe  Fe172     1.0  0.76237  0.65079  0.33997  1.0000
  S   S342      1.0  0.80042  0.65697  0.33280  1.0000
  S   S343      1.0  0.74158  0.68532  0.34805  1.0000
  Fe  Fe173     1.0  0.77283  0.59631  0.33715  1.0000
  S   S344      1.0  0.81124  0.59997  0.33032  1.0000
  S   S345      1.0  0.75541  0.56088  0.33868  1.0000
  Fe  Fe174     1.0  0.80895  0.62647  0.35284  1.0000
  S   S346      1.0  0.83756  0.62983  0.37373  1.0000
  Fe  Fe175     1.0  0.79899  0.63020  0.31105  1.0000
  S   S347      1.0  0.80796  0.63094  0.27993  1.0000
  S   S348      1.0  0.77117  0.62116  0.36079  1.0000
  S   S349      1.0  0.76036  0.62555  0.31713  1.0000
  Fe  Fe176     1.0  0.86236  0.61760  0.48429  1.0000
  S   S350      1.0  0.89934  0.60093  0.48253  1.0000
  S   S351      1.0  0.83502  0.61907  0.46176  1.0000
  H   H1338     1.0  0.84854  0.51149  0.46337  1.0000
  H   H1339     1.0  0.67951  0.76704  0.31098  1.0000
  S   S352      1.0  0.94213  0.65000  0.49295  1.0000
  C   C836      1.0  0.66922  0.72320  0.33476  1.0000
  C   C837      1.0  0.79052  0.52569  0.32994  1.0000
  H   H1340     1.0  0.84135  0.66664  0.28703  1.0000
  H   H1341     1.0  0.86669  0.51632  0.44292  1.0000
  H   H1342     1.0  0.76670  0.60224  0.27908  1.0000
  H   H1343     1.0  0.80277  0.53943  0.32886  1.0000
  H   H1344     1.0  0.68104  0.79693  0.26474  1.0000
  H   H1345     1.0  0.80460  0.58369  0.29075  1.0000
  N   N83       1.0  0.77708  0.56510  0.27972  1.0000
  H   H1346     1.0  0.86622  0.69067  0.26577  1.0000
  C   C838      1.0  0.82530  0.64961  0.26538  1.0000
  H   H1347     1.0  0.77933  0.52714  0.28264  1.0000
  H   H1348     1.0  0.70561  0.74670  0.26619  1.0000
  C   C839      1.0  0.83679  0.62558  0.39816  1.0000
  C   C840      1.0  0.85701  0.62942  0.40783  1.0000
  C   C841      1.0  0.85696  0.62731  0.42723  1.0000
  C   C842      1.0  0.83650  0.62164  0.43726  1.0000
  C   C843      1.0  0.81632  0.61768  0.42759  1.0000
  C   C844      1.0  0.81650  0.61937  0.40820  1.0000
  H   H1349     1.0  0.87282  0.63423  0.40025  1.0000
  H   H1350     1.0  0.87263  0.63046  0.43441  1.0000
  H   H1351     1.0  0.80040  0.61320  0.43517  1.0000
  H   H1352     1.0  0.80090  0.61593  0.40105  1.0000
  C   C845      1.0  0.84033  0.66527  0.27232  1.0000
  N   N84       1.0  0.67767  0.76528  0.28161  1.0000
  C   C846      1.0  0.76693  0.53125  0.33523  1.0000
  C   C847      1.0  0.75162  0.51279  0.33717  1.0000
  C   C848      1.0  0.85446  0.67888  0.26019  1.0000
  H   H1353     1.0  0.79688  0.58277  0.25823  1.0000
  H   H1354     1.0  0.73334  0.51679  0.34128  1.0000
  H   H1355     1.0  0.80254  0.55125  0.25963  1.0000
  H   H1356     1.0  0.83516  0.54405  0.48247  1.0000
  H   H1357     1.0  0.68414  0.85623  0.26372  1.0000
  C   C849      1.0  0.67520  0.70019  0.32877  1.0000
  C   C850      1.0  0.69734  0.68847  0.33235  1.0000
  C   C851      1.0  0.71379  0.69955  0.34217  1.0000
  C   C852      1.0  0.70789  0.72265  0.34799  1.0000
  H   H1358     1.0  0.74523  0.58394  0.27080  1.0000
  C   C853      1.0  0.70266  0.75680  0.27895  1.0000
  H   H1359     1.0  0.70149  0.67070  0.32783  1.0000
  H   H1360     1.0  0.72040  0.73144  0.35561  1.0000
  H   H1361     1.0  0.83987  0.57379  0.47544  1.0000
  H   H1362     1.0  0.80833  0.55220  0.29359  1.0000
  H   H1363     1.0  0.68540  0.79406  0.29827  1.0000
  C   C854      1.0  0.67048  0.78111  0.26593  1.0000
  H   H1364     1.0  0.70856  0.74497  0.29070  1.0000
  N   N85       1.0  0.79092  0.69064  0.38891  1.0000
  C   C855      1.0  0.77289  0.70983  0.39316  1.0000
  C   C856      1.0  0.80944  0.68945  0.40262  1.0000
  C   C857      1.0  0.80165  0.69516  0.37038  1.0000
  C   C858      1.0  0.77970  0.66796  0.38936  1.0000
  H   H1365     1.0  0.75876  0.71103  0.38292  1.0000
  H   H1366     1.0  0.78066  0.72728  0.39293  1.0000
  H   H1367     1.0  0.76427  0.70685  0.40697  1.0000
  H   H1368     1.0  0.80212  0.68557  0.41674  1.0000
  H   H1369     1.0  0.82334  0.67519  0.39954  1.0000
  H   H1370     1.0  0.81823  0.70631  0.40279  1.0000
  H   H1371     1.0  0.81532  0.68092  0.36672  1.0000
  H   H1372     1.0  0.81024  0.71217  0.36946  1.0000
  H   H1373     1.0  0.78818  0.69597  0.35967  1.0000
  H   H1374     1.0  0.79252  0.65340  0.38509  1.0000
  H   H1375     1.0  0.76489  0.66854  0.37984  1.0000
  H   H1376     1.0  0.77253  0.66322  0.40336  1.0000
  H   H1377     1.0  0.98868  0.66539  0.48475  1.0000
  H   H1378     1.0  0.87815  0.51956  0.46522  1.0000
  C   C859      1.0  0.87269  0.56219  0.44814  1.0000
  H   H1379     1.0  0.68158  0.75210  0.34900  1.0000
  C   C860      1.0  0.76605  0.54247  0.28322  1.0000
  H   H1380     1.0  0.94038  0.73283  0.25508  1.0000
  C   C861      1.0  0.86216  0.52273  0.45693  1.0000
  C   C862      1.0  0.83268  0.55161  0.44531  1.0000
  H   H1381     1.0  0.66400  0.73494  0.27013  1.0000
  H   H1382     1.0  0.71431  0.77179  0.27788  1.0000
  C   C863      1.0  0.75886  0.58484  0.28118  1.0000
  N   N86       1.0  0.85388  0.54799  0.45639  1.0000
  H   H1383     1.0  0.87716  0.55755  0.43366  1.0000
  C   C864      1.0  0.68585  0.73446  0.34424  1.0000
  C   C865      1.0  0.79834  0.50227  0.32591  1.0000
  H   H1384     1.0  0.75716  0.54172  0.29715  1.0000
  H   H1385     1.0  0.82601  0.57054  0.44482  1.0000
  H   H1386     1.0  0.86399  0.55509  0.48354  1.0000
  H   H1387     1.0  0.78670  0.56866  0.30750  1.0000
  H   H1388     1.0  0.83644  0.54637  0.43088  1.0000
  C   C866      1.0  0.84799  0.55549  0.47529  1.0000
  C   C867      1.0  0.79499  0.56746  0.29348  1.0000
  H   H1389     1.0  0.74971  0.58465  0.29502  1.0000
  C   C868      1.0  0.67463  0.77840  0.29872  1.0000
  H   H1390     1.0  0.81652  0.49833  0.32149  1.0000
  H   H1391     1.0  0.75252  0.53992  0.27303  1.0000
  C   C869      1.0  0.78849  0.56575  0.26112  1.0000
  H   H1392     1.0  0.88908  0.55957  0.45601  1.0000
  H   H1393     1.0  0.81814  0.54121  0.45124  1.0000
  C   C870      1.0  0.99043  0.65007  0.49403  1.0000
  C   C871      1.0  0.66970  0.85140  0.25577  1.0000
  H   H1394     1.0  0.86726  0.58139  0.44809  1.0000
  S   S353      1.0  0.87273  0.64858  0.49977  1.0000
  Fe  Fe177     1.0  0.90925  0.63028  0.49985  1.0000
  H   H1395     1.0  0.91302  0.50190  0.49719  1.0000
  H   H1396     1.0  0.66817  0.73237  0.29446  1.0000
  C   C872      1.0  0.89454  0.50419  0.50128  1.0000
  C   C873      1.0  0.66282  0.74491  0.28300  1.0000
  H   H1397     1.0  0.66250  0.69124  0.32146  1.0000
  C   C874      1.0  0.97024  0.63864  0.50008  1.0000
  Fe  Fe178     1.0  0.86555  0.62709  0.52597  1.0000
  S   S354      1.0  0.90289  0.61148  0.52709  1.0000
  S   S355      1.0  0.84428  0.64568  0.54930  1.0000
  Fe  Fe179     1.0  0.78068  0.59331  0.68844  1.0000
  S   S356      1.0  0.81736  0.60506  0.68433  1.0000
  S   S357      1.0  0.76811  0.55759  0.69927  1.0000
  Fe  Fe180     1.0  0.75847  0.64289  0.67881  1.0000
  S   S358      1.0  0.79377  0.65826  0.67325  1.0000
  S   S359      1.0  0.71989  0.65791  0.68009  1.0000
  Fe  Fe181     1.0  0.80460  0.62463  0.65860  1.0000
  S   S360      1.0  0.83293  0.61928  0.63547  1.0000
  Fe  Fe182     1.0  0.80517  0.63807  0.69913  1.0000
  S   S361      1.0  0.83163  0.65568  0.71624  1.0000
  S   S362      1.0  0.76842  0.61072  0.66197  1.0000
  S   S363      1.0  0.76941  0.62484  0.70556  1.0000
  C   C875      1.0  0.83301  0.66010  0.74032  1.0000
  H   H1398     1.0  0.89727  0.66921  0.56115  1.0000
  S   S364      1.0  0.90528  0.54589  0.51456  1.0000
  H   H1399     1.0  0.90914  0.71992  0.54989  1.0000
  C   C876      1.0  0.68828  0.78859  0.61376  1.0000
  C   C877      1.0  0.88161  0.61643  0.66288  1.0000
  Fe  Fe183     1.0  0.89057  0.58326  0.50984  1.0000
  C   C878      1.0  0.76674  0.52653  0.69659  1.0000
  C   C879      1.0  0.75231  0.51458  0.70932  1.0000
  H   H1400     1.0  0.89003  0.66119  0.53870  1.0000
  H   H1401     1.0  0.68843  0.61893  0.67161  1.0000
  H   H1402     1.0  0.74294  0.52420  0.72020  1.0000
  C   C880      1.0  0.84043  0.63687  0.57297  1.0000
  C   C881      1.0  0.85570  0.61986  0.58153  1.0000
  C   C882      1.0  0.85290  0.61457  0.60058  1.0000
  C   C883      1.0  0.83456  0.62580  0.61129  1.0000
  C   C884      1.0  0.81908  0.64256  0.60269  1.0000
  C   C885      1.0  0.82217  0.64819  0.58370  1.0000
  H   H1403     1.0  0.86986  0.61102  0.57353  1.0000
  H   H1404     1.0  0.86500  0.60159  0.60705  1.0000
  H   H1405     1.0  0.80499  0.65149  0.61069  1.0000
  H   H1406     1.0  0.81029  0.66143  0.57726  1.0000
  H   H1407     1.0  0.72137  0.55021  0.68310  1.0000
  H   H1408     1.0  0.88011  0.68958  0.54669  1.0000
  H   H1409     1.0  0.88177  0.62190  0.64801  1.0000
  C   C886      1.0  0.67066  0.71380  0.67801  1.0000
  H   H1410     1.0  0.70280  0.74099  0.72653  1.0000
  C   C887      1.0  0.68276  0.73203  0.66935  1.0000
  H   H1411     1.0  0.67271  0.67730  0.68770  1.0000
  C   C888      1.0  0.68241  0.69140  0.68137  1.0000
  C   C889      1.0  0.70645  0.68697  0.67640  1.0000
  C   C890      1.0  0.71868  0.70540  0.66818  1.0000
  C   C891      1.0  0.70686  0.72771  0.66459  1.0000
  H   H1412     1.0  0.90431  0.65589  0.65601  1.0000
  H   H1413     1.0  0.95301  0.67310  0.53250  1.0000
  H   H1414     1.0  0.73713  0.70232  0.66421  1.0000
  H   H1415     1.0  0.71647  0.74163  0.65789  1.0000
  C   C892      1.0  0.84657  0.51045  0.51093  1.0000
  H   H1416     1.0  0.86554  0.60654  0.66561  1.0000
  C   C893      1.0  0.77877  0.51354  0.68257  1.0000
  H   H1417     1.0  0.67435  0.82848  0.59489  1.0000
  H   H1418     1.0  0.70156  0.75260  0.70330  1.0000
  H   H1419     1.0  0.93980  0.71303  0.54415  1.0000
  N   N87       1.0  0.68010  0.77258  0.72296  1.0000
  H   H1420     1.0  0.73568  0.57041  0.66774  1.0000
  N   N88       1.0  0.88152  0.63703  0.67466  1.0000
  C   C894      1.0  0.86071  0.65325  0.67088  1.0000
  S   S365      1.0  0.66870  0.76030  0.66374  1.0000
  N   N89       1.0  0.91710  0.68566  0.53885  1.0000
  C   C895      1.0  0.68049  0.77890  0.74244  1.0000
  H   H1421     1.0  0.89713  0.60384  0.66519  1.0000
  H   H1422     1.0  0.67082  0.56894  0.67580  1.0000
  C   C896      1.0  0.92337  0.70546  0.54981  1.0000
  H   H1423     1.0  0.95740  0.60984  0.51681  1.0000
  H   H1424     1.0  0.88039  0.64405  0.70353  1.0000
  H   H1425     1.0  0.85979  0.66889  0.67969  1.0000
  C   C897      1.0  0.85209  0.67157  0.74670  1.0000
  C   C898      1.0  0.71807  0.56478  0.67264  1.0000
  H   H1426     1.0  0.67429  0.87517  0.74006  1.0000
  H   H1427     1.0  0.84417  0.64435  0.67375  1.0000
  H   H1428     1.0  0.70981  0.55731  0.66080  1.0000
  C   C899      1.0  0.91333  0.69420  0.51969  1.0000
  H   H1429     1.0  0.86554  0.67739  0.73698  1.0000
  C   C900      1.0  0.66335  0.86242  0.74692  1.0000
  H   H1430     1.0  0.66296  0.80581  0.71437  1.0000
  H   H1431     1.0  0.78997  0.52246  0.67259  1.0000
  H   H1432     1.0  0.69037  0.59718  0.65416  1.0000
  H   H1433     1.0  0.68273  0.56193  0.69798  1.0000
  H   H1434     1.0  0.86057  0.65950  0.65619  1.0000
  H   H1435     1.0  0.91920  0.63788  0.67340  1.0000
  H   H1436     1.0  0.93199  0.65142  0.53141  1.0000
  H   H1437     1.0  0.67911  0.79024  0.69633  1.0000
  H   H1438     1.0  0.90349  0.66524  0.67934  1.0000
  H   H1439     1.0  0.70475  0.60934  0.70198  1.0000
  H   H1440     1.0  0.86430  0.61969  0.69777  1.0000
  H   H1441     1.0  0.80104  0.64385  0.74851  1.0000
  C   C901      1.0  0.88059  0.62894  0.69421  1.0000
  C   C902      1.0  0.90313  0.64956  0.67067  1.0000
  H   H1442     1.0  0.89589  0.61654  0.69761  1.0000
  N   N90       1.0  0.70321  0.58462  0.68043  1.0000
  C   C903      1.0  0.89525  0.67608  0.54674  1.0000
  C   C904      1.0  0.71515  0.59403  0.69591  1.0000
  H   H1443     1.0  0.85504  0.54352  0.52176  1.0000
  C   C905      1.0  0.69933  0.60353  0.66612  1.0000
  C   C906      1.0  0.67915  0.79435  0.71115  1.0000
  H   H1444     1.0  0.90784  0.67988  0.51118  1.0000
  H   H1445     1.0  0.66874  0.59074  0.69315  1.0000
  C   C907      1.0  0.93644  0.66689  0.53912  1.0000
  H   H1446     1.0  0.66431  0.78992  0.74658  1.0000
  H   H1447     1.0  0.66464  0.80359  0.58352  1.0000
  S   S366      1.0  0.85271  0.59722  0.51058  1.0000
  H   H1448     1.0  0.67162  0.82954  0.62882  1.0000
  C   C908      1.0  0.68033  0.57619  0.68713  1.0000
  H   H1449     1.0  0.71626  0.61042  0.66087  1.0000
  H   H1450     1.0  0.94024  0.66040  0.55336  1.0000
  H   H1451     1.0  0.73251  0.60031  0.69130  1.0000
  H   H1452     1.0  0.69580  0.78932  0.74499  1.0000
  H   H1453     1.0  0.69446  0.80500  0.71312  1.0000
  H   H1454     1.0  0.71856  0.58028  0.70700  1.0000
  H   H1455     1.0  0.92975  0.70053  0.51292  1.0000
  C   C909      1.0  0.86182  0.52780  0.51487  1.0000
  H   H1456     1.0  0.92631  0.69962  0.56436  1.0000
  H   H1457     1.0  0.70164  0.80200  0.61353  1.0000
  H   H1458     1.0  0.82800  0.51283  0.51471  1.0000
  C   C910      1.0  0.70153  0.75765  0.71795  1.0000
  C   C911      1.0  0.88579  0.52469  0.50990  1.0000
  H   H1459     1.0  0.71775  0.76702  0.71975  1.0000
  H   H1460     1.0  0.69245  0.77707  0.60189  1.0000
  H   H1461     1.0  0.88851  0.49694  0.54381  1.0000
  C   C912      1.0  0.97275  0.61884  0.51206  1.0000
  H   H1462     1.0  0.89930  0.70880  0.51895  1.0000
  H   H1463     1.0  0.69056  0.77733  0.62656  1.0000
  N   N91       1.0  0.66412  0.79985  0.61308  1.0000
  H   H1464     1.0  0.92229  0.50414  0.56232  1.0000
  C   C913      1.0  0.66162  0.81444  0.59590  1.0000
  H   H1465     1.0  0.68136  0.76293  0.75180  1.0000
  H   H1466     1.0  0.66171  0.80466  0.64222  1.0000
  H   H1467     1.0  0.92933  0.49770  0.52942  1.0000
  Fe  Fe184     1.0  0.67678  0.88523  0.85049  1.0000
  S   S367      1.0  0.71390  0.88972  0.85755  1.0000
  C   C914      1.0  0.72066  0.98054  0.83188  1.0000
  Fe  Fe185     1.0  0.69013  0.88118  0.80902  1.0000
  S   S368      1.0  0.72850  0.88625  0.81398  1.0000
  C   C915      1.0  0.66968  0.88701  0.92464  1.0000
  Fe  Fe186     1.0  0.72424  0.86053  0.83811  1.0000
  S   S369      1.0  0.74488  0.82660  0.84831  1.0000
  Fe  Fe187     1.0  0.71450  0.91521  0.83292  1.0000
  S   S370      1.0  0.72869  0.95082  0.83927  1.0000
  S   S371      1.0  0.68650  0.85442  0.83241  1.0000
  H   H1468     1.0  0.87622  0.53363  0.98767  1.0000
  H   H1469     1.0  0.68828  0.93436  0.86256  1.0000
  H   H1470     1.0  0.68859  0.81148  0.91787  1.0000
  C   C916      1.0  0.66941  0.88687  0.90526  1.0000
  Fe  Fe188     1.0  0.87606  0.62019  0.98459  1.0000
  S   S372      1.0  0.85682  0.63187  0.95841  1.0000
  S   S373      1.0  0.89223  0.58292  0.98713  1.0000
  Fe  Fe189     1.0  0.86563  0.74281  0.83248  1.0000
  S   S374      1.0  0.84786  0.71118  0.84430  1.0000
  S   S375      1.0  0.84783  0.77987  0.82748  1.0000
  Fe  Fe190     1.0  0.91210  0.71311  0.82288  1.0000
  S   S376      1.0  0.89610  0.67957  0.83306  1.0000
  S   S377      1.0  0.95009  0.70692  0.81126  1.0000
  Fe  Fe191     1.0  0.86326  0.69340  0.81872  1.0000
  S   S378      1.0  0.83760  0.67369  0.80235  1.0000
  Fe  Fe192     1.0  0.88244  0.70021  0.85751  1.0000
  S   S379      1.0  0.89509  0.68725  0.88600  1.0000
  S   S380      1.0  0.88018  0.72525  0.80671  1.0000
  S   S381      1.0  0.89921  0.73357  0.84749  1.0000
  C   C917      1.0  0.97710  0.71877  0.81665  1.0000
  H   H1471     1.0  0.96594  0.68524  0.89585  1.0000
  C   C918      1.0  0.97785  0.73922  0.82664  1.0000
  C   C919      1.0  0.66318  0.85984  0.76626  1.0000
  H   H1472     1.0  0.96158  0.74867  0.83108  1.0000
  C   C920      1.0  0.83681  0.66816  0.77842  1.0000
  C   C921      1.0  0.83271  0.57632  0.97124  1.0000
  C   C922      1.0  0.70464  0.98613  0.81804  1.0000
  H   H1473     1.0  0.80724  0.61481  0.95930  1.0000
  N   N92       1.0  0.96712  0.68081  0.86670  1.0000
  C   C923      1.0  0.86786  0.64711  0.93831  1.0000
  C   C924      1.0  0.89081  0.65448  0.93683  1.0000
  C   C925      1.0  0.89872  0.66668  0.92072  1.0000
  C   C926      1.0  0.88388  0.67164  0.90584  1.0000
  C   C927      1.0  0.86097  0.66414  0.90728  1.0000
  C   C928      1.0  0.85303  0.65199  0.92343  1.0000
  H   H1474     1.0  0.90242  0.65093  0.94813  1.0000
  H   H1475     1.0  0.91643  0.67244  0.91982  1.0000
  H   H1476     1.0  0.84933  0.66782  0.89600  1.0000
  H   H1477     1.0  0.83523  0.64644  0.92439  1.0000
  H   H1478     1.0  0.72731  0.82640  0.88973  1.0000
  H   H1479     1.0  0.71628  0.79272  0.87294  1.0000
  H   H1480     1.0  0.70818  0.84573  0.87638  1.0000
  C   C929      1.0  0.79252  0.57072  0.96432  1.0000
  H   H1481     1.0  0.68680  0.98799  0.86201  1.0000
  H   H1482     1.0  0.82907  0.73374  0.81135  1.0000
  C   C930      1.0  0.77349  0.81388  0.84207  1.0000
  C   C931      1.0  0.78080  0.79151  0.84969  1.0000
  C   C932      1.0  0.80342  0.78082  0.84544  1.0000
  C   C933      1.0  0.81911  0.79245  0.83354  1.0000
  C   C934      1.0  0.81176  0.81477  0.82588  1.0000
  C   C935      1.0  0.78909  0.82539  0.83002  1.0000
  H   H1483     1.0  0.76898  0.78245  0.85908  1.0000
  H   H1484     1.0  0.80881  0.76374  0.85155  1.0000
  H   H1485     1.0  0.82376  0.82403  0.81674  1.0000
  H   H1486     1.0  0.78383  0.84263  0.82410  1.0000
  H   H1487     1.0  0.79590  0.57581  0.94956  1.0000
  H   H1488     1.0  0.69701  0.97208  0.81123  1.0000
  H   H1489     1.0  0.84375  0.76360  0.78980  1.0000
  S   S382      1.0  0.90448  0.63563  0.00000  1.0000
  H   H1490     1.0  0.77356  0.57525  0.96772  1.0000
  H   H1491     1.0  0.68577  0.88590  0.89718  1.0000
  H   H1492     1.0  0.68634  0.88606  0.93133  1.0000
  C   C936      1.0  0.97901  0.68233  0.88421  1.0000
  H   H1493     1.0  0.83724  0.58154  0.95668  1.0000
  H   H1494     1.0  0.70396  0.95157  0.87725  1.0000
  N   N93       1.0  0.69191  0.81564  0.88845  1.0000
  C   C937      1.0  0.66783  0.82682  0.88679  1.0000
  H   H1495     1.0  0.95216  0.62819  0.98316  1.0000
  C   C938      1.0  0.69308  0.80078  0.90555  1.0000
  H   H1496     1.0  0.79569  0.55119  0.96587  1.0000
  H   H1497     1.0  0.81162  0.71254  0.77610  1.0000
  H   H1498     1.0  0.97643  0.67549  0.83822  1.0000
  C   C939      1.0  0.98609  0.64258  0.98448  1.0000
  C   C940      1.0  0.95262  0.70296  0.86308  1.0000
  H   H1499     1.0  0.68204  0.98222  0.89584  1.0000
  H   H1500     1.0  0.66259  0.83801  0.89868  1.0000
  N   N94       1.0  0.66684  0.96144  0.87600  1.0000
  H   H1501     1.0  0.94168  0.65993  0.85523  1.0000
  S   S383      1.0  0.68103  0.87782  0.77872  1.0000
  C   C941      1.0  0.82530  0.76794  0.78562  1.0000
  H   H1502     1.0  0.80217  0.75078  0.81609  1.0000
  H   H1503     1.0  0.68052  0.78663  0.90562  1.0000
  H   H1504     1.0  0.99001  0.66585  0.88744  1.0000
  H   H1505     1.0  0.94321  0.70229  0.85007  1.0000
  C   C942      1.0  0.70883  0.83413  0.88901  1.0000
  H   H1506     1.0  0.81449  0.61841  0.98254  1.0000
  N   N95       1.0  0.81126  0.74698  0.78735  1.0000
  C   C943      1.0  0.82193  0.72853  0.77527  1.0000
  C   C944      1.0  0.87371  0.49594  0.98669  1.0000
  C   C945      1.0  0.81093  0.73774  0.80660  1.0000
  H   H1507     1.0  0.98114  0.65841  0.97641  1.0000
  H   H1508     1.0  0.78421  0.58018  0.00004  1.0000
  C   C946      1.0  0.81771  0.65674  0.77202  1.0000
  H   H1509     1.0  0.93873  0.66242  0.87964  1.0000
  C   C947      1.0  0.97611  0.60515  0.99884  1.0000
  C   C948      1.0  0.68688  0.94351  0.87579  1.0000
  H   H1510     1.0  0.77582  0.73824  0.78335  1.0000
  H   H1511     1.0  0.93899  0.70633  0.87424  1.0000
  H   H1512     1.0  0.83713  0.55703  0.97333  1.0000
  C   C949      1.0  0.80319  0.60871  0.97375  1.0000
  H   H1513     1.0  0.84012  0.72270  0.77934  1.0000
  H   H1514     1.0  0.86885  0.68432  0.77023  1.0000
  H   H1515     1.0  0.70508  0.84547  0.90103  1.0000
  H   H1516     1.0  0.81780  0.78219  0.79464  1.0000
  H   H1517     1.0  0.77850  0.76767  0.79088  1.0000
  C   C950      1.0  0.95183  0.66077  0.86792  1.0000
  H   H1518     1.0  0.80427  0.65094  0.78177  1.0000
  H   H1519     1.0  0.80174  0.72107  0.80828  1.0000
  H   H1520     1.0  0.68496  0.92984  0.88701  1.0000
  H   H1521     1.0  0.99074  0.69726  0.88360  1.0000
  S   S384      1.0  0.67671  0.91172  0.82658  1.0000
  C   C951      1.0  0.78690  0.75366  0.78200  1.0000
  H   H1522     1.0  0.84450  0.58552  0.97983  1.0000
  N   N96       1.0  0.80779  0.58286  0.97626  1.0000
  H   H1523     1.0  0.78647  0.76057  0.76750  1.0000
  H   H1524     1.0  0.80659  0.55628  0.99816  1.0000
  H   H1525     1.0  0.71108  0.79219  0.90722  1.0000
  H   H1526     1.0  0.66641  0.83841  0.87412  1.0000
  C   C952      1.0  0.85402  0.67556  0.76559  1.0000
  H   H1527     1.0  0.78453  0.61440  0.97728  1.0000
  H   H1528     1.0  0.96223  0.64362  0.86986  1.0000
  H   H1529     1.0  0.67161  0.97036  0.84719  1.0000
  C   C953      1.0  0.69795  0.80091  0.87242  1.0000
  C   C954      1.0  0.80287  0.57565  0.99569  1.0000
  H   H1530     1.0  0.96354  0.71848  0.86176  1.0000
  H   H1531     1.0  0.82610  0.77536  0.77127  1.0000
  H   H1532     1.0  0.82299  0.73484  0.76063  1.0000
  H   H1533     1.0  0.69706  0.81167  0.85930  1.0000
  C   C955      1.0  0.96966  0.62561  0.98843  1.0000
  H   H1534     1.0  0.68578  0.78656  0.87159  1.0000
  C   C956      1.0  0.98494  0.67724  0.85155  1.0000
  C   C957      1.0  0.86990  0.51808  0.99472  1.0000
  C   C958      1.0  0.66558  0.97335  0.89371  1.0000
  C   C959      1.0  0.67024  0.97895  0.86072  1.0000
  H   H1535     1.0  0.66312  0.96051  0.90550  1.0000
  H   H1536     1.0  0.88300  0.49468  0.97346  1.0000
  C   C960      1.0  0.81581  0.65271  0.75313  1.0000
