data_image0
_chemical_formula_structural       FeS2FeS2FeSFeS3FeS2FeS2FeSFeS3FeS2FeS2FeSFeS3FeS2FeS2FeSFeS3FeS2FeS2FeSFeS3FeS2FeS2FeSFeS3FeS2FeS2FeSFeS3FeS2FeS2FeSFeS3FeS2FeS2FeSFeS3FeS2FeS2FeSFeS3FeS2FeS2FeSFeS3FeS2FeS2FeSFeS3FeS2FeS2FeSFeS3FeS2FeS2FeSFeS3FeS2FeS2FeSFeS3FeS2FeS2FeSFeS3FeS2FeS2FeSFeS3FeS2FeS2FeSFeS3FeS2FeS2FeSFeS3FeS2FeS2FeSFeS3FeS2FeS2FeSFeS3FeS2FeS2FeSFeS3FeS2FeS2FeSFeS3FeS2FeS2FeSFeS3C6H4C6H4C6H4C6H4C6H4C6H4C6H4C6H4C6H4C6H4C6H4C6H4C6H4C6H4C6H4C6H4C6H4C6H4C6H4C6H4C6H4C6H4C6H4C6H4C6H4C6H4C6H4C6H4C6H4C6H4C6H4C6H4C6H4C6H4C6H4C6H4C6H4C6H4C6H4C6H4C6H4C6H4C6H4C6H4C6H4C6H4C6H4C6H4NC4H12NC4H12NC4H12NC4H12NC4H12NC4H12NC4H12NC4H12NC4H12NC4H12NC4H12NC4H12NC4H12NC4H12NC4H12NC4H12NC4H12NC4H12NC4H12NC4H12NC4H12NC4H12NC4H12NC4H12NC4H12NC4H12NC4H12NC4H12NC4H12NC4H12NC4H12NC4H12NC4H12NC4H12NC4H12NC4H12NC4H12NC4H12NC4H12NC4H12NC4H12NC4H12NC4H12NC4H12NC4H12NC4H12NC4H12NC4H12
_chemical_formula_sum              "Fe96 S192 C480 H768 N48"
_cell_length_a       56.53207290958477
_cell_length_b       56.527336899219485
_cell_length_c       42.205107629327806
_cell_angle_alpha    90.21006625597657
_cell_angle_beta     90.21423610664566
_cell_angle_gamma    120.00310753475779

_space_group_name_H-M_alt    "P 1"
_space_group_IT_number       1

loop_
  _space_group_symop_operation_xyz
  'x, y, z'

loop_
  _atom_site_type_symbol
  _atom_site_label
  _atom_site_symmetry_multiplicity
  _atom_site_fract_x
  _atom_site_fract_y
  _atom_site_fract_z
  _atom_site_occupancy
  Fe  Fe1       1.0  0.9719061774952062  0.20815075189989354  0.6103799794421624  1.0000
  S   S1        1.0  0.9888762080552765  0.18357992897072042  0.6325948756280215  1.0000
  S   S2        1.0  0.9529949538188366  0.20284774377185535  0.5615333070758535  1.0000
  Fe  Fe2       1.0  0.9731903109669371  0.23718283635248485  0.6733333739324303  1.0000
  S   S3        1.0  0.9909794315225517  0.21547350128975395  0.7004748846109919  1.0000
  S   S4        1.0  0.9532088781305174  0.26190446390490674  0.6884821621308534  1.0000
  Fe  Fe3       1.0  0.017919488438360564  0.22296586067009644  0.657741450336159  1.0000
  S   S5        1.0  0.06429636403321658  0.24227342606737756  0.6588008724882118  1.0000
  Fe  Fe4       1.0  0.960863520430074  0.17788339693170105  0.6732978502282556  1.0000
  S   S6        1.0  0.9312686998519624  0.13878543496036624  0.6980146220569182  1.0000
  S   S7        1.0  0.00242769833179748  0.24795257008081587  0.6326483908591614  1.0000
  S   S8        1.0  0.9416464919682056  0.19900050768877484  0.6491110801471733  1.0000
  Fe  Fe5       1.0  0.22140855359699582  0.18526034790003  0.6377501154204068  1.0000
  S   S9        1.0  0.2542870187177427  0.22958352611920535  0.6350249733302479  1.0000
  S   S10       1.0  0.23348147291739618  0.15440411272305332  0.6226952710848852  1.0000
  Fe  Fe6       1.0  0.17765341548682256  0.199228704064327  0.6577040809209134  1.0000
  S   S11       1.0  0.20734576946028638  0.24401109941889768  0.6559188084706374  1.0000
  S   S12       1.0  0.13318142824323584  0.1814777813776575  0.672012634204441  1.0000
  Fe  Fe7       1.0  0.22166217407606711  0.2346189742165084  0.6102550777932402  1.0000
  S   S13       1.0  0.22189844857889418  0.25716064415890155  0.5656234242060543  1.0000
  Fe  Fe8       1.0  0.2367512500516855  0.23421888013046568  0.6811221042038257  1.0000
  S   S14       1.0  0.25423120490246576  0.25509344360031416  0.7290429068313967  1.0000
  S   S15       1.0  0.1899410789210598  0.19021513656962702  0.6106753268856691  1.0000
  S   S16       1.0  0.2059485002276117  0.18943435353071525  0.6850339416220886  1.0000
  Fe  Fe9       1.0  0.19369295147738633  0.007690276499129475  0.6570313313467382  1.0000
  S   S17       1.0  0.239100250152555  0.027359099847620423  0.6536794152832955  1.0000
  S   S18       1.0  0.17414924920216268  0.03238502628014572  0.6718456092426535  1.0000
  Fe  Fe10      1.0  0.18448582585579046  0.9505670000496332  0.642208960355498  1.0000
  S   S19       1.0  0.22995820000770867  0.9663421341216025  0.6390422560045338  1.0000
  S   S20       1.0  0.15538683719316948  0.9059632355563574  0.6286772539753279  1.0000
  Fe  Fe11      1.0  0.2345042039650917  0.9920126489442673  0.6825519514141389  1.0000
  S   S21       1.0  0.2550558128698006  4.170266211331022e-05  0.7316125440527754  1.0000
  Fe  Fe12      1.0  0.23056703889993332  0.000405434479902933  0.6107262743253182  1.0000
  S   S22       1.0  0.2523578215870852  0.020498361950637367  0.565067644658326  1.0000
  S   S23       1.0  0.1887900889942845  0.973144860288662  0.6876514098380837  1.0000
  S   S24       1.0  0.18529023147111726  0.9836331550569191  0.6120328254332384  1.0000
  Fe  Fe13      1.0  0.0014903694212862607  0.7882549343588332  0.6477173791519845  1.0000
  S   S25       1.0  0.017510677068622867  0.7592890727666127  0.6451411318927657  1.0000
  S   S26       1.0  0.02894284112743828  0.8327618559707093  0.6623248220117947  1.0000
  Fe  Fe14      1.0  0.9429930009024031  0.7425972816457467  0.6335599468031208  1.0000
  S   S27       1.0  0.955325753800442  0.7104045769065747  0.6300909688936396  1.0000
  S   S28       1.0  0.8981483197490231  0.7272129552293186  0.6247779036671269  1.0000
  Fe  Fe15      1.0  0.9805999508807743  0.7304562846849298  0.6738179421367461  1.0000
  S   S29       1.0  0.9879129400367145  0.7138218020248029  0.7200311154347486  1.0000
  Fe  Fe16      1.0  0.9905451552620759  0.7422516419796267  0.6019089168974555  1.0000
  S   S30       1.0  0.008715558537347989  0.7362650209234272  0.5568026542649553  1.0000
  S   S31       1.0  0.9659039222243553  0.7606419985403914  0.6788024660195833  1.0000
  S   S32       1.0  0.9767202580312798  0.773173340550218  0.6026577511442269  1.0000
  Fe  Fe17      1.0  0.7946698161562528  0.7752345666388484  0.6534066893405835  1.0000
  S   S33       1.0  0.7663616242957424  0.7297875185061163  0.6515865872626444  1.0000
  S   S34       1.0  0.8408091950201495  0.7965399838736679  0.6554717169767587  1.0000
  Fe  Fe18      1.0  0.7477733160981139  0.7878779642730588  0.6548695241777419  1.0000
  S   S35       1.0  0.7163049969684906  0.7431894140289615  0.6525411724811023  1.0000
  S   S36       1.0  0.728437295904639  0.814765190164333  0.6578593105734077  1.0000
  Fe  Fe19      1.0  0.7418671131039871  0.7368315074522134  0.688727584963558  1.0000
  S   S37       1.0  0.7288110607348924  0.7194126720438344  0.7386665710299911  1.0000
  Fe  Fe20      1.0  0.743539691965854  0.7405164703305079  0.6155765242601171  1.0000
  S   S38       1.0  0.7252840258822635  0.7177949035694446  0.5692652214348982  1.0000
  S   S39       1.0  0.7720769195636235  0.7819327005054599  0.6927792341121776  1.0000
  S   S40       1.0  0.7731608798808765  0.785582571245791  0.6156278607212253  1.0000
  Fe  Fe21      1.0  0.7869540949502891  0.030247091727796296  0.6335879043815792  1.0000
  S   S41       1.0  0.7438806109256599  0.02272741518034179  0.6337653407437945  1.0000
  S   S42       1.0  0.8228448789535507  0.07009786388898345  0.6174575537671706  1.0000
  Fe  Fe22      1.0  0.7694066815265916  0.9703191636528833  0.6465165796709427  1.0000
  S   S43       1.0  0.7250832489247792  0.9582016942956556  0.6478289456387417  1.0000
  S   S44       1.0  0.7903186441348046  0.9447598395040104  0.6501425867525429  1.0000
  Fe  Fe23      1.0  0.7342058733524796  0.9852400562298121  0.6050222438711607  1.0000
  S   S45       1.0  0.7082501452892962  0.9700256175800924  0.5602569845872793  1.0000
  Fe  Fe24      1.0  0.738530083358584  0.9968334394523245  0.6767170527770743  1.0000
  S   S46       1.0  0.717199723899399  0.9940995518276116  0.7238885033434382  1.0000
  S   S47       1.0  0.7774323638170018  0.9946042169514843  0.6019291493530232  1.0000
  S   S48       1.0  0.7826523470176172  0.0070764975846622225  0.6782043856612989  1.0000
  Fe  Fe25      1.0  0.21561629088877682  0.9747367784857591  0.3898563226516777  1.0000
  S   S49       1.0  0.18651093851643158  0.9909053469043646  0.390626433687247  1.0000
  S   S50       1.0  0.22779918101024965  0.9586991190783694  0.43232763559163406  1.0000
  Fe  Fe26      1.0  0.22383136297386672  0.9807024069392202  0.3176661782980099  1.0000
  S   S51       1.0  0.19448355176404497  0.9964691356177924  0.3129587394698655  1.0000
  S   S52       1.0  0.2513676455560524  0.985802854084117  0.27560683480710435  1.0000
  Fe  Fe27      1.0  0.21503476285386516  0.022322824441123067  0.3557809346362571  1.0000
  S   S53       1.0  0.23482449010650808  0.06872382238326749  0.3556014836541685  1.0000
  Fe  Fe28      1.0  0.16825356380381712  0.9637621423758784  0.3477070296696632  1.0000
  S   S54       1.0  0.12265352098628411  0.9395481016376047  0.33958858549263937  1.0000
  S   S55       1.0  0.24584025255902092  0.008257640115527601  0.3589984801837938  1.0000
  S   S56       1.0  0.19563849792506277  0.9456226570704993  0.34878166747726674  1.0000
  Fe  Fe29      1.0  0.9647343130796537  0.7343969351646916  0.38319942843580107  1.0000
  S   S57       1.0  0.9784580661883999  0.7786314530852888  0.3893108579814914  1.0000
  S   S58       1.0  0.9455053977026525  0.7060255080941681  0.4247576525030389  1.0000
  Fe  Fe30      1.0  0.9788549754215223  0.7406060408541116  0.31239306193349753  1.0000
  S   S59       1.0  0.9932252831686661  0.7857878414703424  0.3135029354508697  1.0000
  S   S60       1.0  0.9765629662955233  0.7184441849357189  0.2658249069377706  1.0000
  Fe  Fe31      1.0  0.013993827649462191  0.785894294264888  0.35910694834707607  1.0000
  S   S61       1.0  0.05745936945210927  0.8138820076830974  0.37578345872458174  1.0000
  Fe  Fe32      1.0  0.9560039791350918  0.7744434838368115  0.34362618192319166  1.0000
  S   S62       1.0  0.930021244839554  0.7949862270750673  0.3442485165443787  1.0000
  S   S63       1.0  0.001840903442608031  0.7414023133925939  0.3562987194725342  1.0000
  S   S64       1.0  0.9400151139162755  0.7294489977928589  0.3391781009885445  1.0000
  Fe  Fe33      1.0  0.7515876950270114  0.7737044298376784  0.389684277761659  1.0000
  S   S65       1.0  0.7908765604896333  0.7974542721702946  0.3627530784697631  1.0000
  S   S66       1.0  0.7572590897452014  0.7858921735717536  0.441786808291415  1.0000
  Fe  Fe34      1.0  0.7185603405576333  0.7478881809696603  0.32823693388723885  1.0000
  S   S67       1.0  0.7555443136728295  0.7704036286309449  0.2977254298140984  1.0000
  S   S68       1.0  0.6762803871906866  0.71695277976311  0.3088044017143141  1.0000
  Fe  Fe35      1.0  0.7771606648937658  0.759177638763757  0.3344366511552527  1.0000
  S   S69       1.0  0.8022633337003572  0.740536714955159  0.3169071795942121  1.0000
  Fe  Fe36      1.0  0.7658922261659066  0.8066223176339613  0.32897803391357244  1.0000
  S   S70       1.0  0.783510545226988  0.8489550273674933  0.3081626893954575  1.0000
  S   S71       1.0  0.7395307362578474  0.7343940480685224  0.3636866422926091  1.0000
  S   S72       1.0  0.7272161501178063  0.7850829763774985  0.35703618446888546  1.0000
  Fe  Fe37      1.0  0.18687383012719164  0.2322605287057926  0.3549938057857983  1.0000
  S   S73       1.0  0.23172078593748213  0.26319584558085773  0.35831934825318207  1.0000
  S   S74       1.0  0.1595177507357406  0.25022116055938054  0.36346609445395245  1.0000
  Fe  Fe38      1.0  0.19765718376326705  0.18513284148243483  0.3408619324875361  1.0000
  S   S75       1.0  0.2429899008314934  0.21298006129665298  0.34190919394291597  1.0000
  S   S76       1.0  0.17632267894797377  0.1389644899990561  0.33454719805845584  1.0000
  Fe  Fe39      1.0  0.2347248826380302  0.23068748322330695  0.3857879357444656  1.0000
  S   S77       1.0  0.2573031869369739  0.23317311930212106  0.4314217613800861  1.0000
  Fe  Fe40      1.0  0.23533268491376055  0.24279448021562755  0.3142236212470151  1.0000
  S   S78       1.0  0.2541435673054209  0.2621261864198388  0.26645529056082967  1.0000
  S   S79       1.0  0.1897119462813744  0.20145860486834802  0.3857987631792897  1.0000
  S   S80       1.0  0.19013261066061418  0.21319272360974792  0.3099043610595952  1.0000
  Fe  Fe41      1.0  0.00274863063871833  0.23939051147060475  0.3855130602981478  1.0000
  S   S81       1.0  0.9862831706821759  0.19856844010667254  0.36131789725694385  1.0000
  S   S82       1.0  0.0212408531245889  0.24803783278425526  0.43503982358175963  1.0000
  Fe  Fe42      1.0  0.0033434011209974024  0.26851532463957983  0.3229729776383706  1.0000
  S   S83       1.0  0.9866511049267084  0.22961350922817111  0.2947555651072667  1.0000
  S   S84       1.0  0.021815663675134767  0.31198413849219636  0.30421141731907136  1.0000
  Fe  Fe43      1.0  0.9581835401640725  0.20975336882161102  0.3360094232594369  1.0000
  S   S85       1.0  0.912321105344341  0.18202271614003862  0.3289552319351991  1.0000
  Fe  Fe44      1.0  0.016149165589306364  0.22198144110166365  0.3226891283402946  1.0000
  S   S86       1.0  0.04342223929741045  0.20807716191995482  0.2996569914737554  1.0000
  S   S87       1.0  0.9729865988987426  0.2496131405022767  0.3627081913789738  1.0000
  S   S88       1.0  0.03432812902395033  0.26180636619973296  0.348384054332181  1.0000
  Fe  Fe45      1.0  0.7406042752600493  0.9945818067849717  0.3169893608551234  1.0000
  S   S89       1.0  0.7751924880770202  0.9853306301166784  0.3179993760580018  1.0000
  S   S90       1.0  0.7202166112360037  0.9855441359671895  0.2677956976646494  1.0000
  Fe  Fe46      1.0  0.751066619646081  0.013715130547645137  0.38661702922561875  1.0000
  S   S91       1.0  0.785139640801546  0.004805481799642324  0.3918380581480333  1.0000
  S   S92       1.0  0.7471453160124979  0.03502113374304175  0.4303232621659101  1.0000
  Fe  Fe47      1.0  0.7992669806237647  0.025080166377519607  0.34465279161948786  1.0000
  S   S93       1.0  0.8454575785713162  0.05241902352762446  0.34246290444541155  1.0000
  Fe  Fe48      1.0  0.7583199253906596  0.9663174937310655  0.36491925730871394  1.0000
  S   S94       1.0  0.7513001684885894  0.9259117379961194  0.38366496015524837  1.0000
  S   S95       1.0  0.7663875430075231  0.03612207616729989  0.340253746851541  1.0000
  S   S96       1.0  0.7224808380840063  0.9732786012546446  0.36320588875065063  1.0000
  Fe  Fe49      1.0  0.5819073612848067  0.918414376824533  0.16117822298718043  1.0000
  S   S97       1.0  0.6013081614913612  0.9168657862394789  0.11510059515424194  1.0000
  S   S98       1.0  0.5986296666822095  0.9336207147190315  0.21135545937653835  1.0000
  Fe  Fe50      1.0  0.5237606651287646  0.8889046234217878  0.13301992446063252  1.0000
  S   S99       1.0  0.5386276385185242  0.8839522744483606  0.0855252736203586  1.0000
  S   S100      1.0  0.47889708685679255  0.8718170150163298  0.147191646811447  1.0000
  Fe  Fe51      1.0  0.5667135440512668  0.873037884303855  0.11152966246818029  1.0000
  S   S101      1.0  0.5781153767537479  0.8424308761891308  0.0908631021362175  1.0000
  Fe  Fe52      1.0  0.5721554975450068  0.9278068182805982  0.09131563881244668  1.0000
  S   S102      1.0  0.574925042611736  0.9528647935123055  0.04739822404936223  1.0000
  S   S103      1.0  0.5490889629964435  0.8740259148961096  0.1587513777367642  1.0000
  S   S104      1.0  0.5555617868327817  0.9331454269071977  0.13770853384495926  1.0000
  Fe  Fe53      1.0  0.31627958477326384  0.92534239169046  0.09430193846860031  1.0000
  S   S105      1.0  0.34031349835968844  0.9351697473309623  0.1399407001386607  1.0000
  S   S106      1.0  0.3246259937958236  0.9636835093596675  0.06655006162632009  1.0000
  Fe  Fe54      1.0  0.28780979853533417  0.8634420507396001  0.10755126815673861  1.0000
  S   S107      1.0  0.3116358353415377  0.8699122538651779  0.15291360488125574  1.0000
  S   S108      1.0  0.25848036751932196  0.8205151435892257  0.08757023666923641  1.0000
  Fe  Fe55      1.0  0.30142269559691715  0.9032976643613994  0.16249562106510854  1.0000
  S   S109      1.0  0.2839190176157686  0.9034568520242778  0.2115112107043324  1.0000
  Fe  Fe56      1.0  0.34878364486388264  0.901379374973789  0.12638123457779366  1.0000
  S   S110      1.0  0.395030715995092  0.9158025155464996  0.12451771449660283  1.0000
  S   S111      1.0  0.27645554685801826  0.895631446464368  0.11797452664789723  1.0000
  S   S112      1.0  0.3256949322645986  0.8926083710890342  0.08001458700148718  1.0000
  Fe  Fe57      1.0  0.04852743677404656  0.6428336332660081  0.09142880185481408  1.0000
  S   S113      1.0  0.043720354791951035  0.6180429455345215  0.13541936596743184  1.0000
  S   S114      1.0  0.021070418614711293  0.6164560762923366  0.05047076981025732  1.0000
  Fe  Fe58      1.0  0.10154062835589293  0.6929248261126559  0.11761181127302826  1.0000
  S   S115      1.0  0.09992149335442137  0.6698346475783706  0.1613361602562047  1.0000
  S   S116      1.0  0.1332975492846576  0.7384752499792726  0.12326536939420471  1.0000
  Fe  Fe59      1.0  0.0885361606229496  0.6332357161480681  0.1302881023926862  1.0000
  S   S117      1.0  0.11122177610281674  0.6089727646694026  0.1297408515706487  1.0000
  Fe  Fe60      1.0  0.055327345507085325  0.6570233796818727  0.16266348685492132  1.0000
  S   S118      1.0  0.043445941924161825  0.6632765507680636  0.2125580170306087  1.0000
  S   S119      1.0  0.09348412915110933  0.6573577136654426  0.08596722147771718  1.0000
  S   S120      1.0  0.05677783973667164  0.6806264550765546  0.11928168668190452  1.0000
  Fe  Fe61      1.0  0.060532354856158106  0.3897804238735345  0.13670042094641002  1.0000
  S   S121      1.0  0.0861659892693498  0.3896280898401297  0.09597777126006127  1.0000
  S   S122      1.0  0.029704526606634637  0.3499686424818358  0.1607312670133181  1.0000
  Fe  Fe62      1.0  0.07899762711580466  0.4512145010134097  0.12839343108920095  1.0000
  S   S123      1.0  0.10654295475223736  0.4554062257727349  0.08778264287509227  1.0000
  S   S124      1.0  0.06543990920761422  0.4805101126191698  0.14864112502842192  1.0000
  Fe  Fe63      1.0  0.07140951935289101  0.4149849130189679  0.07042289545860524  1.0000
  S   S125      1.0  0.056723324823131374  0.41048217843304474  0.019015827832764346  1.0000
  Fe  Fe64      1.0  0.11922716202504316  0.42958249136881166  0.11647455982192532  1.0000
  S   S126      1.0  0.16295669020045864  0.44029294868247587  0.13053697652454438  1.0000
  S   S127      1.0  0.04361906553613876  0.412195501427945  0.10941957292057448  1.0000
  S   S128      1.0  0.09395760335091878  0.4283296650920494  0.1586653042379009  1.0000
  Fe  Fe65      1.0  0.34869202431786583  0.45343311804225717  0.12322824371454895  1.0000
  S   S129      1.0  0.3282526058670529  0.43076692730081545  0.07823952970657858  1.0000
  S   S130      1.0  0.37557702834866735  0.4999242413858714  0.11688837081623688  1.0000
  Fe  Fe66      1.0  0.31663948157949545  0.40013809170230896  0.16269614432146462  1.0000
  S   S131      1.0  0.29443674830757666  0.3747961029265847  0.11990830421339899  1.0000
  S   S132      1.0  0.31250420896990916  0.38405448583119545  0.21335869405340815  1.0000
  Fe  Fe67      1.0  0.33538199159694887  0.397255598610751  0.09556139705319604  1.0000
  S   S133      1.0  0.3598782820651684  0.37960272711925475  0.07232684379796071  1.0000
  Fe  Fe68      1.0  0.2892031150782892  0.410760453218778  0.10662990384036257  1.0000
  S   S134      1.0  0.2504806210687393  0.4070486747149414  0.08392867674263985  1.0000
  S   S135      1.0  0.35794593784878925  0.4210953712101367  0.13928418934967668  1.0000
  S   S136      1.0  0.30920262526863007  0.434825804215506  0.15081399793020434  1.0000
  Fe  Fe69      1.0  0.5931504426155935  0.6743952782961085  0.13964650890081148  1.0000
  S   S137      1.0  0.5908518440625633  0.6971816443128888  0.09697026883003032  1.0000
  S   S138      1.0  0.6346363056290867  0.6984838589156367  0.16491323107278352  1.0000
  Fe  Fe70      1.0  0.5340471194606139  0.6262204315446182  0.12744562312841207  1.0000
  S   S139      1.0  0.5282259484120077  0.6475153323731481  0.0859414626037751  1.0000
  S   S140      1.0  0.5040679793834171  0.5813182265497052  0.14009197657510272  1.0000
  Fe  Fe71      1.0  0.5704026579318605  0.6564284972658281  0.07166589669443152  1.0000
  S   S141      1.0  0.5753603318676129  0.6474901340286926  0.01983201824908899  1.0000
  Fe  Fe72      1.0  0.5494631244596119  0.6863635750277993  0.11523459340435172  1.0000
  S   S142      1.0  0.5349054008638536  0.7169520526935435  0.12594458323556446  1.0000
  S   S143      1.0  0.5760047360692987  0.6345888944357506  0.1126319317606657  1.0000
  S   S144      1.0  0.5519818031437801  0.6641384792067346  0.1584403519962474  1.0000
  Fe  Fe73      1.0  0.90370156129806  0.5837347577420073  0.8368463250270455  1.0000
  S   S145      1.0  0.8873241935893719  0.5967922603983731  0.8778031474896656  1.0000
  S   S146      1.0  0.9098228892543356  0.5985197715917762  0.7855029230405479  1.0000
  Fe  Fe74      1.0  0.9018957610834822  0.5358430678483748  0.8738725463987577  1.0000
  S   S147      1.0  0.8851694657463747  0.5453600644157229  0.9176431340867921  1.0000
  S   S148      1.0  0.9198052366824694  0.5072715151532748  0.8693188036556547  1.0000
  Fe  Fe75      1.0  0.8575148963063657  0.5521037994330683  0.884321821501037  1.0000
  S   S149      1.0  0.8120907989946672  0.5339024532557569  0.8963654939920579  1.0000
  Fe  Fe76      1.0  0.9159797845957962  0.5894197266786075  0.9085298855515972  1.0000
  S   S150      1.0  0.9396347382117175  0.620665515228025  0.9477146257936419  1.0000
  S   S151      1.0  0.8718873411224368  0.5390575310447002  0.8415036619784627  1.0000
  S   S152      1.0  0.9345630613379151  0.5799926055456391  0.8669038103903943  1.0000
  Fe  Fe77      1.0  0.9266106952030307  0.3226828711011826  0.8491869665813101  1.0000
  S   S153      1.0  0.9087299702021899  0.29326768453953433  0.8894525160093022  1.0000
  S   S154      1.0  0.9588528940183896  0.31704073334682153  0.8228333350453257  1.0000
  Fe  Fe78      1.0  0.894413999547321  0.3518013399909061  0.8683245348090091  1.0000
  S   S155      1.0  0.8751541687490167  0.3236050144326393  0.90989171496205  1.0000
  S   S156      1.0  0.8753687192025493  0.3783987179950196  0.8560489821945881  1.0000
  Fe  Fe79      1.0  0.9174129490599431  0.330055210276449  0.9189110582599773  1.0000
  S   S157      1.0  0.9348804721951797  0.3330944378658269  0.9687296186015146  1.0000
  Fe  Fe80      1.0  0.868345849457734  0.28951658635742195  0.8765921227174277  1.0000
  S   S158      1.0  0.8308622449319432  0.2480750689511394  0.8637275976457331  1.0000
  S   S159      1.0  0.9371751159836456  0.36009824060751433  0.8793342523648042  1.0000
  S   S160      1.0  0.8859565271619892  0.31720522422486197  0.8344815758195252  1.0000
  Fe  Fe81      1.0  0.40050980932333163  0.10712444810840242  0.8869913676444391  1.0000
  S   S161      1.0  0.4251164523652391  0.1099731258041615  0.8440479318319045  1.0000
  S   S162      1.0  0.38533166856453166  0.13736879077958677  0.8972805047310336  1.0000
  Fe  Fe82      1.0  0.3902749109691117  0.04933539180838609  0.9032618384495775  1.0000
  S   S163      1.0  0.41404990151742277  0.04888768046760609  0.8606031510209211  1.0000
  S   S164      1.0  0.370519582343235  0.00761045782105465  0.9277008843793229  1.0000
  Fe  Fe83      1.0  0.44509317148795086  0.09176135548198847  0.8743567546263987  1.0000
  S   S165      1.0  0.4918266589579325  0.1104869099261161  0.8714305936292401  1.0000
  Fe  Fe84      1.0  0.3922616286624335  0.06670517379005977  0.8337134585670442  1.0000
  S   S166      1.0  0.3779912460001251  0.05279393032306133  0.7828155378735978  1.0000
  S   S167      1.0  0.42257293047727845  0.09179223226693857  0.9186772289445254  1.0000
  S   S168      1.0  0.3664445438921913  0.06428545797624519  0.8749574176566164  1.0000
  Fe  Fe85      1.0  0.6676708223693462  0.07725831135898546  0.8399219615212814  1.0000
  S   S169      1.0  0.6936320025969674  0.09170179595938399  0.8839847234779952  1.0000
  S   S170      1.0  0.6811108421700006  0.07336600437487924  0.7899143417198854  1.0000
  Fe  Fe86      1.0  0.619455640626475  0.07916266145008483  0.8714584977263149  1.0000
  S   S171      1.0  0.6420294997648153  0.09408109455934001  0.9180735923729427  1.0000
  S   S172      1.0  0.5742649283747326  0.06355135339723328  0.858519221435258  1.0000
  Fe  Fe87      1.0  0.6793981312141029  0.12207163983501879  0.8891543725500046  1.0000
  S   S173      1.0  0.7086897135937061  0.16495848791948994  0.908782213098263  1.0000
  Fe  Fe88      1.0  0.6553565106520738  0.06303767981397863  0.9109361562190291  1.0000
  S   S174      1.0  0.6624470494551691  0.041310435792878526  0.9525354328542535  1.0000
  S   S175      1.0  0.6556253824878402  0.10979586163018248  0.8432497320998192  1.0000
  S   S176      1.0  0.6306210734054661  0.04598494745540731  0.8661825697472971  1.0000
  Fe  Fe89      1.0  0.6437166869774293  0.5760295535050541  0.9133832693959272  1.0000
  S   S177      1.0  0.6132204088759974  0.5594107580086873  0.8730875796866876  1.0000
  S   S178      1.0  0.6368588541750285  0.5875042516673165  0.9633143155627654  1.0000
  Fe  Fe90      1.0  0.6869055124577536  0.5680423707327865  0.8776617882879978  1.0000
  S   S179      1.0  0.6587438465819594  0.5500471409284249  0.8358956734329572  1.0000
  S   S180      1.0  0.7324191023092734  0.5821431422552392  0.8706185624820881  1.0000
  Fe  Fe91      1.0  0.6495694249180256  0.5840534173878175  0.8413470360684756  1.0000
  S   S181      1.0  0.6472420433018187  0.6004616853258643  0.7926710408232228  1.0000
  Fe  Fe92      1.0  0.6241827478363335  0.5263190641471773  0.8698662217782881  1.0000
  S   S182      1.0  0.5940136395301154  0.4822402925733434  0.8535829345895147  1.0000
  S   S183      1.0  0.6791319950037065  0.6034371447928125  0.8818276190133695  1.0000
  S   S184      1.0  0.6532820573267288  0.5415308129105381  0.9117270526808583  1.0000
  Fe  Fe93      1.0  0.38855346374436606  0.310572882751522  0.8391703270747494  1.0000
  S   S185      1.0  0.3721353363535227  0.28070530936034876  0.8793248863756215  1.0000
  S   S186      1.0  0.3733615846160611  0.2978019870976503  0.7883036822978126  1.0000
  Fe  Fe94      1.0  0.43601572163726504  0.354971633029042  0.8805541573495066  1.0000
  S   S187      1.0  0.4223197862727761  0.32733331094539897  0.92304922715753  1.0000
  S   S188      1.0  0.46976579551792386  0.39899080008444215  0.8918408501850756  1.0000
  Fe  Fe95      1.0  0.41607549206773137  0.29340946366750054  0.8893758196222837  1.0000
  S   S189      1.0  0.4368633376465475  0.26766201692227715  0.8947598503104671  1.0000
  Fe  Fe96      1.0  0.37986237705639647  0.3173115583598746  0.9093472999179165  1.0000
  S   S190      1.0  0.3473699359076874  0.3184412009559423  0.9403040133828074  1.0000
  S   S191      1.0  0.43243312027839764  0.32188558146293594  0.8477788324713011  1.0000
  S   S192      1.0  0.3935069492660227  0.34627985968537783  0.8681446075764797  1.0000
  C   C1        1.0  0.559374263011056  0.45956657133209583  0.8643183557972387  1.0000
  C   C2        1.0  0.5448314720834779  0.43397908475662894  0.8489687001150016  1.0000
  C   C3        1.0  0.5173533787822396  0.41530669425929756  0.8566373555066727  1.0000
  C   C4        1.0  0.504090213885224  0.421908101420453  0.8800492308416135  1.0000
  C   C5        1.0  0.5186171589669112  0.4475176062414341  0.8952939713763318  1.0000
  C   C6        1.0  0.546013039305403  0.46626033941479045  0.8874555012486189  1.0000
  H   H1        1.0  0.5549031624021646  0.4286021146890013  0.8309298369121788  1.0000
  H   H2        1.0  0.5064540289892528  0.3959540583016589  0.8442667970892758  1.0000
  H   H3        1.0  0.5086748251530596  0.45292199281656337  0.9134593681440143  1.0000
  H   H4        1.0  0.556867948289598  0.48579404824623057  0.8995391948924496  1.0000
  C   C7        1.0  0.4001861763237059  0.17364589070470868  0.8954294515875453  1.0000
  C   C8        1.0  0.38341982216212156  0.1851460859322841  0.9007200383213126  1.0000
  C   C9        1.0  0.3941349448587215  0.21371908021511768  0.9000621507227379  1.0000
  C   C10       1.0  0.4219589332056935  0.2313189660065449  0.8944489165840587  1.0000
  C   C11       1.0  0.43872646132941695  0.21985533182090544  0.8890273653707929  1.0000
  C   C12       1.0  0.42792451059116055  0.19123967489823848  0.8892819963937966  1.0000
  H   H5        1.0  0.36200318401747816  0.17180444779993748  0.9058194683233857  1.0000
  H   H6        1.0  0.3809788861176644  0.22209907961974468  0.9047756013982924  1.0000
  H   H7        1.0  0.46029600596882947  0.23316895776992835  0.8848190900257172  1.0000
  H   H8        1.0  0.4411552892356247  0.18281385863744626  0.8853452134883766  1.0000
  C   C13       1.0  0.5141572696407393  0.09653982074581172  0.870132758018465  1.0000
  C   C14       1.0  0.5046137858187552  0.06869696718111012  0.8650061387374113  1.0000
  C   C15       1.0  0.5232662968887425  0.05903586340114116  0.8618742450918346  1.0000
  C   C16       1.0  0.5517072880821228  0.07683445292400361  0.8645998333504922  1.0000
  C   C17       1.0  0.5612044461572248  0.10458487874241923  0.8703058322591178  1.0000
  C   C18       1.0  0.5425824207975514  0.11434299161427026  0.872723427858611  1.0000
  H   H9        1.0  0.48288578336984694  0.05462224364569941  0.8631209883281405  1.0000
  H   H10       1.0  0.5155771778330739  0.03752757484077761  0.8575399956244362  1.0000
  H   H11       1.0  0.5829348389006851  0.1186381636647019  0.8723389151364062  1.0000
  H   H12       1.0  0.5503168074591481  0.13591012775397848  0.8767085791624795  1.0000
  C   C19       1.0  0.7973194711197742  0.22507632393620045  0.8777035080748194  1.0000
  C   C20       1.0  0.7812503453078199  0.20048111660773357  0.8609520018089102  1.0000
  C   C21       1.0  0.7542404600964823  0.18184637854786637  0.8702073287098067  1.0000
  C   C22       1.0  0.7427572677228435  0.18770969661442527  0.8962233416331532  1.0000
  C   C23       1.0  0.7588111316489478  0.21228585480942444  0.913076580965374  1.0000
  C   C24       1.0  0.785965692691457  0.2308112160217146  0.904018856650425  1.0000
  H   H13       1.0  0.7897376818571042  0.19579120553461202  0.8405429933131222  1.0000
  H   H14       1.0  0.7422324592651982  0.1630692697084503  0.856975573391114  1.0000
  H   H15       1.0  0.7501961851354827  0.2169917972685712  0.9333443584853368  1.0000
  H   H16       1.0  0.7980427793469527  0.2494566440865811  0.9173980582130257  1.0000
  C   C25       1.0  0.7900386260374737  0.5472592619256144  0.8881595591575384  1.0000
  C   C26       1.0  0.762411898172186  0.5322161120802875  0.8971572175128818  1.0000
  C   C27       1.0  0.7444054647618565  0.5423877512582146  0.891932549783864  1.0000
  C   C28       1.0  0.7539139110215588  0.5679471079852891  0.8779071318645348  1.0000
  C   C29       1.0  0.7816296005928376  0.583087963823971  0.8692285775599514  1.0000
  C   C30       1.0  0.799509861238868  0.572766487744135  0.874042831130921  1.0000
  H   H17       1.0  0.7548243104617867  0.5124740573509677  0.9081327047732757  1.0000
  H   H18       1.0  0.7232168594366282  0.5304799444548025  0.898825704273742  1.0000
  H   H19       1.0  0.7894327671197043  0.6029977143645281  0.858716552076811  1.0000
  H   H20       1.0  0.8206490910315267  0.5846155479399444  0.8669265261627148  1.0000
  C   C31       1.0  0.9064577985944942  0.4711451527290912  0.867318235935511  1.0000
  C   C32       1.0  0.8789580901326342  0.4525669231001649  0.8606483540169685  1.0000
  C   C33       1.0  0.869843893016745  0.4243451703060093  0.8575581472727839  1.0000
  C   C34       1.0  0.8879066264935691  0.41416527386891194  0.8615690977714496  1.0000
  C   C35       1.0  0.9153100551642696  0.43270486555057697  0.868702484161954  1.0000
  C   C36       1.0  0.9245099151611439  0.460960507121042  0.8712628142525939  1.0000
  H   H21       1.0  0.8647916927876224  0.4599664387904536  0.8573944937552648  1.0000
  H   H22       1.0  0.8486263020200517  0.41032041716296863  0.8519593348217792  1.0000
  H   H23       1.0  0.9295300918110209  0.4253484189750839  0.8717759213839688  1.0000
  H   H24       1.0  0.9458248698758063  0.4750422184787349  0.876387028301243  1.0000
  C   C37       1.0  0.5932563363122435  0.6314841481782767  0.004464039952986462  1.0000
  C   C38       1.0  0.607616243399502  0.6230302861420756  0.0240583152805613  1.0000
  C   C39       1.0  0.6207304830071906  0.6096172785738344  0.01096958188583197  1.0000
  C   C40       1.0  0.6198979602178553  0.604626562956613  0.9781518182735359  1.0000
  C   C41       1.0  0.6055222742500985  0.6130653650787303  0.9585304980336475  1.0000
  C   C42       1.0  0.5922704212051219  0.6263719890741253  0.9716537974088351  1.0000
  H   H25       1.0  0.6088563627032166  0.6270181509829742  0.04926953761048871  1.0000
  H   H26       1.0  0.631873517386704  0.6032878055549391  0.02635942526943791  1.0000
  H   H27       1.0  0.6047035036738984  0.6094261465111049  0.9332695287678414  1.0000
  H   H28       1.0  0.5812818809459127  0.6328601878585896  0.9562386163855432  1.0000
  C   C43       1.0  0.35570815844165565  0.36243904885617695  0.035591985490030856  1.0000
  C   C44       1.0  0.3324772316965043  0.3535840998515369  0.0164972691392949  1.0000
  C   C45       1.0  0.3301045979760281  0.33977337957916165  0.9876811973121212  1.0000
  C   C46       1.0  0.35103360851734633  0.33500715267935605  0.9773949783457386  1.0000
  C   C47       1.0  0.37428611110036225  0.3439201794209736  0.9964844510551699  1.0000
  C   C48       1.0  0.3765195788642563  0.35744253615522753  0.025444536105674764  1.0000
  H   H29       1.0  0.31621118195735415  0.3570951719803562  0.02406290783136372  1.0000
  H   H30       1.0  0.31193902278819263  0.3328050171666629  0.9732163076758347  1.0000
  H   H31       1.0  0.3904064879984911  0.34012693105060815  0.9891163341918825  1.0000
  H   H32       1.0  0.39451088518309163  0.3640706948188439  0.040113167300703356  1.0000
  C   C49       1.0  0.41153911914935204  0.521987669285857  0.12269227787000847  1.0000
  C   C50       1.0  0.42360792172763584  0.5496408100452996  0.11380503819731863  1.0000
  C   C51       1.0  0.451813267032356  0.568032951243728  0.11862918411689473  1.0000
  C   C52       1.0  0.4683741354765614  0.5590833914849384  0.13277194257411337  1.0000
  C   C53       1.0  0.45637512844466743  0.5313696554542373  0.1412986159601147  1.0000
  C   C54       1.0  0.42823531007643123  0.5129273940565544  0.13620791157921003  1.0000
  H   H33       1.0  0.41099762734753115  0.5570055497345642  0.10341899331306662  1.0000
  H   H34       1.0  0.4605917233647938  0.5892423580014735  0.11199224692282399  1.0000
  H   H35       1.0  0.4688870061244443  0.5241505082463219  0.15231054063627952  1.0000
  H   H36       1.0  0.4193778488535353  0.49182685833473655  0.1433184294503911  1.0000
  C   C55       1.0  0.02192581316177229  0.3906519825402184  0.007102051310900423  1.0000
  C   C56       1.0  0.013652405468742903  0.39602498843561945  0.977804342725102  1.0000
  C   C57       1.0  0.9866720659587117  0.3795697321142603  0.9665082679177426  1.0000
  C   C58       1.0  0.967869635430564  0.3569067929640972  0.9838817801244295  1.0000
  C   C59       1.0  0.9759706119082021  0.35191898150241974  0.013509746941482659  1.0000
  C   C60       1.0  0.002772474676027109  0.36875496895194176  0.025160825767045977  1.0000
  H   H37       1.0  0.028222178302993617  0.4130869928671928  0.9638159617702194  1.0000
  H   H38       1.0  0.9805376211807764  0.38427402550016343  0.9442000543728881  1.0000
  H   H39       1.0  0.9615859621104353  0.3345824494703229  0.027294407423426037  1.0000
  H   H40       1.0  0.008828943460741515  0.36432080507429887  0.04771169600709334  1.0000
  C   C61       1.0  0.2251263249638017  0.4143433180857855  0.09855358243564412  1.0000
  C   C62       1.0  0.22715500788127405  0.4261308715467159  0.12840959029556087  1.0000
  C   C63       1.0  0.20782011086493563  0.433642695225473  0.13777766407633538  1.0000
  C   C64       1.0  0.18569554512977626  0.42879699831942253  0.117955137564971  1.0000
  C   C65       1.0  0.18324333768579934  0.41632537166884165  0.0884648146121849  1.0000
  C   C66       1.0  0.20295843117129006  0.4094010815728312  0.0787703436466171  1.0000
  H   H41       1.0  0.2436387948399512  0.42960416948946917  0.14429536918254737  1.0000
  H   H42       1.0  0.2099070869886587  0.44318185394202214  0.16067943659537334  1.0000
  H   H43       1.0  0.1664880937755864  0.41256906834489177  0.07283457951208833  1.0000
  H   H44       1.0  0.2010703233219557  0.40028865768460387  0.05563779820639865  1.0000
  C   C67       1.0  0.9986042759039595  0.6183904843795368  0.02223414138389206  1.0000
  C   C68       1.0  0.9852060783975894  0.5969218888956783  0.00012707556572166823  1.0000
  C   C69       1.0  0.9671992240878123  0.5973187877723736  0.9771648710512489  1.0000
  C   C70       1.0  0.9623311104154174  0.6192496519081986  0.9760301725857643  1.0000
  C   C71       1.0  0.9756534754362794  0.6406902221501141  0.9981953190838612  1.0000
  C   C72       1.0  0.9937101980386569  0.6403125814068726  0.021164280282339864  1.0000
  H   H45       1.0  0.9887742762543531  0.5798396566344414  0.0006857519483078889  1.0000
  H   H46       1.0  0.957121531264921  0.5806768441272082  0.9603254383453165  1.0000
  H   H47       1.0  0.9720897686576511  0.6577842512706955  0.9975057367512478  1.0000
  H   H48       1.0  0.0038533031652405736  0.65698370742764  0.03793401157218151  1.0000
  C   C73       1.0  0.09755410107009355  0.5729698627731068  0.1341166071221174  1.0000
  C   C74       1.0  0.07308114223906846  0.5564268597898411  0.15010309228627286  1.0000
  C   C75       1.0  0.06359132438344062  0.5282658286625408  0.15410716671478522  1.0000
  C   C76       1.0  0.0781289076689545  0.516057875930002  0.14184650588946462  1.0000
  C   C77       1.0  0.10228612983800126  0.5324861242833908  0.1252623979683918  1.0000
  C   C78       1.0  0.1120146194946018  0.5607548528721971  0.12169565622014768  1.0000
  H   H49       1.0  0.06180470002375431  0.5654430189047347  0.16012875764186532  1.0000
  H   H50       1.0  0.04496183668669292  0.5158860303605926  0.16710592635265678  1.0000
  H   H51       1.0  0.11379729129795585  0.5235197643735238  0.11576245771521065  1.0000
  H   H52       1.0  0.13100363478228555  0.5732392115714154  0.10937338695793578  1.0000
  C   C79       1.0  0.33689189850340595  0.9752733789522013  0.027575590184147913  1.0000
  C   C80       1.0  0.33759468673951315  0.9580429467259872  0.004167972591556  1.0000
  C   C81       1.0  0.34804786470751586  0.9683927942710988  0.9738736532410378  1.0000
  C   C82       1.0  0.35794573434512245  0.9960495144370469  0.9665238982085921  1.0000
  C   C83       1.0  0.3572582390216295  0.013292488344374815  0.9898868431426922  1.0000
  C   C84       1.0  0.3466840582948469  0.0029026676852494937  0.020154502179458637  1.0000
  H   H53       1.0  0.3298542213033836  0.9366783002993218  0.009326541687770647  1.0000
  H   H54       1.0  0.34841330197392567  0.9548144026706679  0.9560025820285949  1.0000
  H   H55       1.0  0.3646870436561646  0.03457882206088777  0.9846172972818096  1.0000
  H   H56       1.0  0.34612246716782913  0.0164087906557564  0.03800038871306252  1.0000
  C   C85       1.0  0.22371560445632338  0.7979620514512727  0.09788669034017274  1.0000
  C   C86       1.0  0.2108208952858387  0.8039487751043624  0.12229744265938568  1.0000
  C   C87       1.0  0.18326715236055693  0.7854503043865901  0.12970204858618725  1.0000
  C   C88       1.0  0.16817562982152126  0.7606684869814538  0.11294227689158731  1.0000
  C   C89       1.0  0.1810223154592132  0.7546720991227254  0.08845289171690453  1.0000
  C   C90       1.0  0.20863248420592276  0.7731453156058943  0.08112458952073102  1.0000
  H   H57       1.0  0.22209172607582975  0.8229335168790574  0.13538797214292686  1.0000
  H   H58       1.0  0.17367350694656  0.790521381057231  0.14857055463345314  1.0000
  H   H59       1.0  0.16955334095508148  0.7362280088237192  0.07457382177840519  1.0000
  H   H60       1.0  0.21829765504694434  0.7684658689856203  0.06193591071754939  1.0000
  C   C91       1.0  0.5999235790734052  0.9778223234712773  0.021874718052834516  1.0000
  C   C92       1.0  0.5910566596595862  0.9876150039672092  0.9964979882223151  1.0000
  C   C93       1.0  0.609840252040917  0.007071865301085706  0.9751891677778644  1.0000
  C   C94       1.0  0.6378336561419772  0.016901555890875625  0.9788693193934482  1.0000
  C   C95       1.0  0.6467333767920215  0.007010005302139355  0.004160512296359942  1.0000
  C   C96       1.0  0.6279351388077146  0.9876515990062015  0.025609974598692853  1.0000
  H   H61       1.0  0.5694568652819222  0.9802193665323109  0.9933751110586887  1.0000
  H   H62       1.0  0.6026305489811502  0.014458280729546906  0.9559389884379164  1.0000
  H   H63       1.0  0.6683328024995456  0.014461843038841238  0.007274783999596135  1.0000
  H   H64       1.0  0.6351335455709006  0.980472738249451  0.045066210827116926  1.0000
  C   C97       1.0  0.5660076003904947  0.8076434189350721  0.10130634483313576  1.0000
  C   C98       1.0  0.5447608146360422  0.7936656087627273  0.12285016651640485  1.0000
  C   C99       1.0  0.5354143775254623  0.7659333600112345  0.12974156912921053  1.0000
  C   C100      1.0  0.5472564418065132  0.7517847380627084  0.11547782458620202  1.0000
  C   C101      1.0  0.5687346160803654  0.765851234025279  0.09420332884826878  1.0000
  C   C102      1.0  0.5779452927141495  0.7935369162815038  0.0871242883535966  1.0000
  H   H65       1.0  0.535250755361927  0.8040951264002131  0.13389458933261073  1.0000
  H   H66       1.0  0.5187718205003907  0.7553263455772221  0.1462024118353315  1.0000
  H   H67       1.0  0.5779793760528651  0.7553110834515728  0.08281795472588038  1.0000
  H   H68       1.0  0.5943220690854366  0.8040442535395299  0.07033797927606004  1.0000
  C   C103      1.0  0.45560819795860097  0.8838303983602946  0.13911244590603578  1.0000
  C   C104      1.0  0.42801350559585627  0.8676400430656827  0.1478785175509983  1.0000
  C   C105      1.0  0.40905406222223745  0.8767372880888561  0.1431520714829304  1.0000
  C   C106      1.0  0.41753047374694785  0.9024231424287918  0.12996712533643393  1.0000
  C   C107      1.0  0.4451846079786141  0.91868044415606  0.1213807376447145  1.0000
  C   C108      1.0  0.4640440018512799  0.9094305016263263  0.1256939282208457  1.0000
  H   H69       1.0  0.4211800594356726  0.8478338383498868  0.1583540950889236  1.0000
  H   H70       1.0  0.38794949905660353  0.8639729928199078  0.14999218889503207  1.0000
  H   H71       1.0  0.45209298432558526  0.9385862336038225  0.11120642344748438  1.0000
  H   H72       1.0  0.48512782966460805  0.9221890562360032  0.1187873009840606  1.0000
  C   C109      1.0  0.6860999428807104  0.9708661467657846  0.25296765068247373  1.0000
  C   C110      1.0  0.6636036014828155  0.9631739945531489  0.27270912853689194  1.0000
  C   C111      1.0  0.6370401176217974  0.9516877630799312  0.2595754695559854  1.0000
  C   C112      1.0  0.6325194951800653  0.9473640266906804  0.22665436737274983  1.0000
  C   C113      1.0  0.6549703367272723  0.9545521746419122  0.20701623928004625  1.0000
  C   C114      1.0  0.6815460919095512  0.9663396674769017  0.22009646975206945  1.0000
  H   H73       1.0  0.666685260320725  0.9664860121181639  0.29800690762400167  1.0000
  H   H74       1.0  0.6198843684046109  0.9462699219480184  0.2750407834108227  1.0000
  H   H75       1.0  0.6519319181359143  0.9515117500260459  0.18167869886585417  1.0000
  H   H76       1.0  0.6987515681670328  0.9722103322299809  0.2045431788459949  1.0000
  C   C115      1.0  0.8944649074560604  0.1458626530044022  0.3310819134852247  1.0000
  C   C116      1.0  0.8663325808876472  0.1313616823328143  0.3240652651905001  1.0000
  C   C117      1.0  0.8511419002181607  0.1026770863219728  0.3266356806513713  1.0000
  C   C118      1.0  0.8639242308063635  0.08823809892250385  0.33656897380338197  1.0000
  C   C119      1.0  0.8921202205506881  0.10268777367575856  0.34316338962103793  1.0000
  C   C120      1.0  0.9073357448880743  0.13135929289409176  0.34049589610120234  1.0000
  H   H77       1.0  0.8562693039168214  0.1424047630198643  0.3164800813669988  1.0000
  H   H78       1.0  0.8295796670736147  0.09175419639481365  0.320869841879531  1.0000
  H   H79       1.0  0.902216923032694  0.09165593564739609  0.3506495262424545  1.0000
  H   H80       1.0  0.9289626218284002  0.14223462584301322  0.3458600235507882  1.0000
  C   C121      1.0  0.024521969852334406  0.32165920745633486  0.2639050849462242  1.0000
  C   C122      1.0  0.045312827670218395  0.34780387675805263  0.2549474573278863  1.0000
  C   C123      1.0  0.04779387646761995  0.3565364035838948  0.22327494203002404  1.0000
  C   C124      1.0  0.0290444738936545  0.3393764679581835  0.20036566413439885  1.0000
  C   C125      1.0  0.008290455613194189  0.31320818406884277  0.20932759528891554  1.0000
  C   C126      1.0  0.0061493887112872535  0.30427807616868285  0.24086877273099658  1.0000
  H   H81       1.0  0.05962769661466627  0.3613786522691648  0.27264079286851556  1.0000
  H   H82       1.0  0.06406072304629297  0.37660381367725515  0.21670766844751654  1.0000
  H   H83       1.0  0.9935661156825558  0.29985943967074835  0.1918108295092425  1.0000
  H   H84       1.0  0.9897945205812342  0.2842761615089055  0.24754357978261624  1.0000
  C   C127      1.0  0.12835112092075485  0.23890416612251916  0.3432616718711139  1.0000
  C   C128      1.0  0.11671978983513286  0.21574208220025218  0.32367036255911796  1.0000
  C   C129      1.0  0.0909601466036524  0.20681992915479475  0.309515309061047  1.0000
  C   C130      1.0  0.07672489859716668  0.22087415349172185  0.3151416417998876  1.0000
  C   C131      1.0  0.08895869380389872  0.2445276713132845  0.3338041430512809  1.0000
  C   C132      1.0  0.11463289051716857  0.2535170612869979  0.3477078519138596  1.0000
  H   H85       1.0  0.12723834137373707  0.20438538180964552  0.31995666420272856  1.0000
  H   H86       1.0  0.08172068278641498  0.18854314770598143  0.2949337244081995  1.0000
  H   H87       1.0  0.0787161849892368  0.2559583760961343  0.3377589080634494  1.0000
  H   H88       1.0  0.12367253750879453  0.271647536337721  0.36254002804333374  1.0000
  C   C133      1.0  0.29416232332085285  0.35008167993131656  0.2280187828494301  1.0000
  C   C134      1.0  0.27860435790106564  0.32756062500498656  0.20823385943968495  1.0000
  C   C135      1.0  0.26636558703155944  0.30083766859621847  0.22047883795434775  1.0000
  C   C136      1.0  0.2687031374197822  0.2962752821270624  0.25281384398297024  1.0000
  C   C137      1.0  0.2835378317900786  0.3188168578655033  0.27280127907609414  1.0000
  C   C138      1.0  0.2962828977130256  0.34552293941733464  0.2604082227059526  1.0000
  H   H89       1.0  0.276141818437363  0.3306730911030024  0.18345408900479318  1.0000
  H   H90       1.0  0.25491050282877287  0.2835418171645214  0.20480420662481733  1.0000
  H   H91       1.0  0.2859846300069858  0.3156571014266161  0.2975984027116146  1.0000
  H   H92       1.0  0.3083337577243206  0.36277030636801183  0.275940542215646  1.0000
  C   C139      1.0  0.7754223869845717  0.8708953251006388  0.3294524972733897  1.0000
  C   C140      1.0  0.7833786528840285  0.8971045755346043  0.31792151575434763  1.0000
  C   C141      1.0  0.7765153931531225  0.9144975608816979  0.3345209820121372  1.0000
  C   C142      1.0  0.7614548804230544  0.9055759079026268  0.36252745293120314  1.0000
  C   C143      1.0  0.7538680226724347  0.8795807111044316  0.3741629134510371  1.0000
  C   C144      1.0  0.7609278644977135  0.8623798998765385  0.35780087778763975  1.0000
  H   H93       1.0  0.7949322717192212  0.903983089250631  0.2962140139867894  1.0000
  H   H94       1.0  0.7830368335344332  0.9347930783601537  0.32581811007128886  1.0000
  H   H95       1.0  0.7424374903701584  0.8726193187530052  0.3959500277738725  1.0000
  H   H96       1.0  0.7552553787856282  0.842570272620294  0.3673450926388404  1.0000
  C   C145      1.0  0.6645854994237543  0.7131985918952021  0.2688832276588709  1.0000
  C   C146      1.0  0.6373614599036241  0.6935159238510235  0.26157487939872304  1.0000
  C   C147      1.0  0.6276233333606629  0.6889090633139742  0.23000287688648696  1.0000
  C   C148      1.0  0.6451933599516947  0.7037094640821906  0.20530330303610955  1.0000
  C   C149      1.0  0.6723604815847077  0.7234899975709903  0.21264836628529418  1.0000
  C   C150      1.0  0.6819647744170444  0.7283893524644348  0.24421696298723589  1.0000
  H   H97       1.0  0.6237310141157939  0.6815970731795362  0.28044866638284915  1.0000
  H   H98       1.0  0.6066961394560371  0.6735705258419078  0.2247580883673939  1.0000
  H   H99       1.0  0.6861063923957668  0.7351071432326493  0.19372096550081394  1.0000
  H   H100      1.0  0.7028708245801252  0.7437696505939233  0.2493731297455539  1.0000
  C   C151      1.0  0.8940327788817996  0.7777828206732201  0.339072608454811  1.0000
  C   C152      1.0  0.8792425798869137  0.7893624721824695  0.3521064481587798  1.0000
  C   C153      1.0  0.8509700422286189  0.777584613313211  0.3464588561581162  1.0000
  C   C154      1.0  0.8372930465917527  0.7544582910329095  0.3270209904252754  1.0000
  C   C155      1.0  0.8519567897232503  0.7425867549847701  0.3144177012162471  1.0000
  C   C156      1.0  0.8801515781589639  0.75404998171315  0.32059816862218865  1.0000
  H   H101      1.0  0.8897790156061848  0.8075901017370302  0.3666196094141135  1.0000
  H   H102      1.0  0.8398058601629252  0.7864749887924696  0.3570001500170263  1.0000
  H   H103      1.0  0.8415742573253393  0.7246387648997487  0.2994526317615169  1.0000
  H   H104      1.0  0.8913187548273224  0.7450375409073323  0.3102630076188829  1.0000
  C   C157      1.0  0.026357423055167802  0.680682306999453  0.22585854481323017  1.0000
  C   C158      1.0  0.007513577965452455  0.6833754932186793  0.20688527528079623  1.0000
  C   C159      1.0  0.9929199434308567  0.695500694632387  0.21934712865798522  1.0000
  C   C160      1.0  0.9973705790885503  0.7056382337371715  0.25062592865758976  1.0000
  C   C161      1.0  0.01709891586448076  0.704017177352249  0.26914797878653496  1.0000
  C   C162      1.0  0.031105312339022553  0.6911639162912122  0.2570033122359601  1.0000
  H   H105      1.0  0.003446378089528451  0.6752378557374372  0.18298332227982542  1.0000
  H   H106      1.0  0.9777478058252896  0.6966607898730864  0.20475885900596053  1.0000
  H   H107      1.0  0.021158524850655065  0.7120990187846771  0.29305656273320413  1.0000
  H   H108      1.0  0.04568344674221009  0.6892467953984383  0.27188435762776886  1.0000
  C   C163      1.0  0.10477833321216626  0.9045783478645602  0.34953913135898196  1.0000
  C   C164      1.0  0.11758134777676853  0.8926007052928338  0.36603409429278866  1.0000
  C   C165      1.0  0.10281664062434524  0.8647382853055773  0.3738358118377221  1.0000
  C   C166      1.0  0.07522930492478823  0.8486425346254446  0.3650668278072371  1.0000
  C   C167      1.0  0.06235822447424076  0.860593031249568  0.3487113270846667  1.0000
  C   C168      1.0  0.0771031466487308  0.8885214830065797  0.34106782142329684  1.0000
  H   H109      1.0  0.13882765554657361  0.9048111810425484  0.37279818454667435  1.0000
  H   H110      1.0  0.11289512713768866  0.855589321113843  0.3864381844069745  1.0000
  H   H111      1.0  0.0410750968251033  0.8483779546792005  0.34196142138121305  1.0000
  H   H112      1.0  0.06707824437474871  0.8976980884527628  0.3283777370799578  1.0000
  C   C169      1.0  0.21805749752090528  0.08762586473796534  0.34867870192426564  1.0000
  C   C170      1.0  0.23378643357871853  0.11626628611124444  0.34731135884119274  1.0000
  C   C171      1.0  0.22135460958667258  0.1322115219324809  0.3423193858581682  1.0000
  C   C172      1.0  0.19299610947528667  0.11964160553601338  0.33875830474851426  1.0000
  C   C173      1.0  0.17730917741978452  0.09096464620404651  0.33964135135586965  1.0000
  C   C174      1.0  0.1897548661074132  0.07499134935896468  0.34456120233645904  1.0000
  H   H113      1.0  0.2557291611365966  0.12620500951797012  0.35022487510310546  1.0000
  H   H114      1.0  0.23369325854996445  0.15422001307468886  0.3413300864139275  1.0000
  H   H115      1.0  0.15535158552292846  0.08104676853884099  0.33682896312038413  1.0000
  H   H116      1.0  0.17740133940097427  0.052952262661665264  0.34545357706803714  1.0000
  C   C175      1.0  0.25811035066309285  0.9617298778958806  0.25628698328358324  1.0000
  C   C176      1.0  0.2466369595137919  0.9346671222889763  0.2663994763607728  1.0000
  C   C177      1.0  0.2544841012036424  0.9170402008397056  0.252120486874431  1.0000
  C   C178      1.0  0.2731356901723859  0.925887964924504  0.22685111141699213  1.0000
  C   C179      1.0  0.2838813604880206  0.9526775586183927  0.2160401908772188  1.0000
  C   C180      1.0  0.27659980852778693  0.970532749290085  0.23089021008965968  1.0000
  H   H117      1.0  0.231748659655565  0.9272680599169364  0.2851711880922289  1.0000
  H   H118      1.0  0.2458878986221044  0.8962906628713094  0.2604775381685693  1.0000
  H   H119      1.0  0.29831989549213006  0.9598158055741819  0.19673211613080094  1.0000
  H   H120      1.0  0.2855577762295861  0.9913613097027325  0.22272275199298003  1.0000
  C   C181      1.0  0.7190233248576947  0.9890884596851935  0.5248239923250938  1.0000
  C   C182      1.0  0.7025991189695938  0.9788764470831404  0.49754681730826206  1.0000
  C   C183      1.0  0.7111782364416701  0.9926982776130043  0.4684781712926752  1.0000
  C   C184      1.0  0.7362033934438218  0.017049285502688027  0.4665060119113638  1.0000
  C   C185      1.0  0.7523762981701279  0.027591494473739733  0.49397232474204533  1.0000
  C   C186      1.0  0.7439513214127959  0.013560115819304554  0.5229554267181025  1.0000
  H   H121      1.0  0.6831689302280511  0.9601018765391791  0.49888480389601886  1.0000
  H   H122      1.0  0.6982940993045299  0.9846476997188692  0.44765244194856046  1.0000
  H   H123      1.0  0.7714953510145752  0.04662252680730316  0.4929884267354607  1.0000
  H   H124      1.0  0.75664721564395  0.021763212274676678  0.543914803866273  1.0000
  C   C187      1.0  0.692085348206342  0.05163609360698981  0.7727016021438449  1.0000
  C   C188      1.0  0.702226957525947  0.0568249945670924  0.7415483051594425  1.0000
  C   C189      1.0  0.7103473567300181  0.03972780331116565  0.7263875384070136  1.0000
  C   C190      1.0  0.708111529432184  0.016948476417898414  0.7420992870178212  1.0000
  C   C191      1.0  0.6977912918974573  0.011666860000806776  0.7732038919146085  1.0000
  C   C192      1.0  0.689929583042578  0.028928118865082734  0.7884948517111903  1.0000
  H   H125      1.0  0.7039017352899031  0.07425182262971235  0.7290162774782845  1.0000
  H   H126      1.0  0.7181220106170545  0.044030684511737264  0.7024590393953927  1.0000
  H   H127      1.0  0.6959327895979818  0.9940922808967788  0.7855733591997539  1.0000
  H   H128      1.0  0.6821028596035486  0.02455316323745684  0.8123849860067696  1.0000
  C   C193      1.0  0.7362339806289724  0.7353032507079728  0.532724113722391  1.0000
  C   C194      1.0  0.7592167668620535  0.7614047131743918  0.5312120962856584  1.0000
  C   C195      1.0  0.766026017298354  0.7761108371930656  0.5027345680223524  1.0000
  C   C196      1.0  0.75036286475663  0.7646593044467016  0.47516742031462267  1.0000
  C   C197      1.0  0.7280363460310535  0.7380538621524322  0.4761801753045106  1.0000
  C   C198      1.0  0.7209504150834912  0.7234827252710535  0.5049374907205522  1.0000
  H   H129      1.0  0.7717396676625063  0.7703746634310997  0.5519931179065555  1.0000
  H   H130      1.0  0.7833927142667402  0.7966237029931114  0.5021243970077858  1.0000
  H   H131      1.0  0.7156418165921824  0.7291183419447843  0.4551721843396245  1.0000
  H   H132      1.0  0.7032080293951039  0.7032231641765855  0.5058101902484876  1.0000
  C   C199      1.0  0.7460909796466467  0.8508590070748622  0.6549775212629287  1.0000
  C   C200      1.0  0.7745501830400652  0.8661706384025186  0.6529181936161821  1.0000
  C   C201      1.0  0.7877661678587509  0.8949013025451146  0.6513228268366101  1.0000
  C   C202      1.0  0.7726867177241945  0.908554417253501  0.6515470869029979  1.0000
  C   C203      1.0  0.7441973939646116  0.893171508553346  0.653198301777707  1.0000
  C   C204      1.0  0.7309969363617148  0.8644670540395056  0.6550033303565154  1.0000
  H   H133      1.0  0.786426147990753  0.8559604269280622  0.6529145416194573  1.0000
  H   H134      1.0  0.8098137078745796  0.9066116872604469  0.6500792811828765  1.0000
  H   H135      1.0  0.7323562640498454  0.903417792340912  0.6534886097369885  1.0000
  H   H136      1.0  0.7089644257721065  0.8528123793696013  0.6566518204894294  1.0000
  C   C205      1.0  0.706271858136115  0.6859729209121298  0.752787837036201  1.0000
  C   C206      1.0  0.7048897344048076  0.6813133319143767  0.7856515782765972  1.0000
  C   C207      1.0  0.6873543198655043  0.6551808644379963  0.7981830895336633  1.0000
  C   C208      1.0  0.6705101978743968  0.6334995107995324  0.7779799677603224  1.0000
  C   C209      1.0  0.671817017589342  0.6381511858416229  0.7451212654161505  1.0000
  C   C210      1.0  0.6897611186287258  0.664179839166255  0.7325293469407507  1.0000
  H   H137      1.0  0.7175217624538467  0.6980297576942145  0.8015645244766967  1.0000
  H   H138      1.0  0.6864521046833455  0.6519805853817436  0.8235203046555861  1.0000
  H   H139      1.0  0.6588350328553663  0.6215569165780473  0.7292585997226533  1.0000
  H   H140      1.0  0.6905444471664938  0.6674588826528333  0.707217748415122  1.0000
  C   C211      1.0  0.9904931308930911  0.7277795051561409  0.5205297656775855  1.0000
  C   C212      1.0  0.9635779412943458  0.7225225411122893  0.5185104348826937  1.0000
  C   C213      1.0  0.9499387652425099  0.7160052503666509  0.48898615428187525  1.0000
  C   C214      1.0  0.9634091866478276  0.7156696969598338  0.4612390956379483  1.0000
  C   C215      1.0  0.9903719786958534  0.72111237689196  0.46328665587399576  1.0000
  C   C216      1.0  0.003643246580534819  0.7266602544219027  0.49290437064375586  1.0000
  H   H141      1.0  0.9531363223323004  0.7228101261014499  0.539808135211046  1.0000
  H   H142      1.0  0.9288505291121345  0.710998429041033  0.48757405556869454  1.0000
  H   H143      1.0  0.000683518023344973  0.7201711744477496  0.4421840195039853  1.0000
  H   H144      1.0  0.024130289348574932  0.7298422349398782  0.4945557837138739  1.0000
  C   C217      1.0  0.8826407923273804  0.7462891907728001  0.6362613745281042  1.0000
  C   C218      1.0  0.8980457731101013  0.7735243401242224  0.646221759594133  1.0000
  C   C219      1.0  0.8850242391684457  0.7887683071460526  0.6522790933271999  1.0000
  C   C220      1.0  0.8566059220607638  0.7768385452921909  0.6485390522911805  1.0000
  C   C221      1.0  0.8413171425467731  0.7495811415830506  0.6387606194111146  1.0000
  C   C222      1.0  0.8542618768887613  0.7343644456335718  0.6327811211205261  1.0000
  H   H145      1.0  0.9199686434042182  0.7829301779800236  0.6488775668430256  1.0000
  H   H146      1.0  0.8969840319594435  0.8098671063309194  0.6598463809668981  1.0000
  H   H147      1.0  0.8195384463925167  0.7402444134821249  0.6354902465733951  1.0000
  H   H148      1.0  0.8422182418078727  0.7133027361478952  0.6251073018593177  1.0000
  C   C223      1.0  0.9650486934795478  0.6821629407650862  0.7384511924209832  1.0000
  C   C224      1.0  0.9700746032388597  0.6775972294119403  0.769938949697432  1.0000
  C   C225      1.0  0.9529773026456395  0.6524754845332004  0.7850888589501035  1.0000
  C   C226      1.0  0.9308625334072927  0.6314034657167417  0.768688007454288  1.0000
  C   C227      1.0  0.9259382759576054  0.6359372346515489  0.737182117339894  1.0000
  C   C228      1.0  0.9427153176127722  0.6612082650590367  0.7222426183678605  1.0000
  H   H149      1.0  0.9872966874832281  0.6935968899135295  0.7827273122725262  1.0000
  H   H150      1.0  0.957141058988184  0.6493196348248993  0.8092643997046411  1.0000
  H   H151      1.0  0.9089706124879843  0.6197928282753788  0.7241937528479837  1.0000
  H   H152      1.0  0.9386056952318007  0.6643038611223407  0.6980118042537152  1.0000
  C   C229      1.0  0.24511662096640294  0.002873570492291533  0.5284552269422045  1.0000
  C   C230      1.0  0.24057660236951564  0.9762090808227234  0.5264305679834149  1.0000
  C   C231      1.0  0.23578590784770145  0.9630947111412221  0.49673917721166927  1.0000
  C   C232      1.0  0.23451361821801348  0.9761244760050032  0.46903839403524855  1.0000
  C   C233      1.0  0.2385810831026159  0.002599511764058917  0.47111848165046155  1.0000
  C   C234      1.0  0.24434698039950378  0.016079859709776063  0.5006580918237195  1.0000
  H   H153      1.0  0.24146513227600747  0.9659937062888215  0.5476623063885987  1.0000
  H   H154      1.0  0.23287121546393919  0.9426904023220358  0.4952826824807382  1.0000
  H   H155      1.0  0.23782624517726167  0.012914643853759337  0.4499146322298035  1.0000
  H   H156      1.0  0.2480384110808711  0.036780433707068315  0.502037255793296  1.0000
  C   C235      1.0  0.12008994171061531  0.8863045425601795  0.6376896811043272  1.0000
  C   C236      1.0  0.10510906428319128  0.8592460130962787  0.6263885838869911  1.0000
  C   C237      1.0  0.07709257436753043  0.8427689346809859  0.6331769677038357  1.0000
  C   C238      1.0  0.06376515630632358  0.8531861661277196  0.6515047077665493  1.0000
  C   C239      1.0  0.07870634018358424  0.8802792693559908  0.6626728030024149  1.0000
  C   C240      1.0  0.10670902312117565  0.8968054764966771  0.6557569503178189  1.0000
  H   H157      1.0  0.11529905172136619  0.8509160978101464  0.6124680594766369  1.0000
  H   H158      1.0  0.06588951510578617  0.8219503354816656  0.624478364221005  1.0000
  H   H159      1.0  0.06859394272375628  0.8885216362188535  0.676896918034351  1.0000
  H   H160      1.0  0.11796123711950436  0.9175789874704987  0.6646073630292626  1.0000
  C   C241      1.0  0.2897092736983786  0.01601859006437432  0.7445500612551349  1.0000
  C   C242      1.0  0.2956493781468224  0.023483476358411613  0.7767086933321677  1.0000
  C   C243      1.0  0.32260789779898985  0.03545303080891341  0.7885365162847964  1.0000
  C   C244      1.0  0.34396060799994954  0.03955047998894987  0.7684731327912013  1.0000
  C   C245      1.0  0.338083596443511  0.03232306306291912  0.7362575782145844  1.0000
  C   C246      1.0  0.3111615717989788  0.020833182491960273  0.7242699833208606  1.0000
  H   H161      1.0  0.279244184785816  0.019945299779156045  0.7926031307559754  1.0000
  H   H162      1.0  0.32684039663277514  0.041345210501182984  0.8132034771743774  1.0000
  H   H163      1.0  0.3544060836516743  0.035432884481613754  0.7204558362124716  1.0000
  H   H164      1.0  0.30694555263688245  0.01516117284005566  0.6995054547333606  1.0000
  C   C247      1.0  0.23101220708482056  0.24933741728481704  0.5284968262725706  1.0000
  C   C248      1.0  0.22216074950073672  0.25595455767269565  0.5004368463203075  1.0000
  C   C249      1.0  0.22940919358099096  0.25040875625317627  0.4705465832830391  1.0000
  C   C250      1.0  0.24651491610144316  0.23920220556443703  0.46848018389638574  1.0000
  C   C251      1.0  0.2556312958737201  0.23290731961443709  0.4965436191438906  1.0000
  C   C252      1.0  0.24745772945526784  0.23739819889784794  0.5264010774270708  1.0000
  H   H165      1.0  0.20989408521234718  0.265689325172941  0.5017662458968685  1.0000
  H   H166      1.0  0.22252216469074945  0.2556424524515803  0.4491284239542005  1.0000
  H   H167      1.0  0.2691958629061503  0.22461576845894146  0.49524195182517083  1.0000
  H   H168      1.0  0.2546650736289149  0.2324907993880016  0.547813409264868  1.0000
  C   C253      1.0  0.18899011980262842  0.06560767510596083  0.65612724987987  1.0000
  C   C254      1.0  0.18062147297016115  0.08372908027911363  0.667140497264055  1.0000
  C   C255      1.0  0.19384994571200853  0.11102224933786844  0.656826891211821  1.0000
  C   C256      1.0  0.2155021817529593  0.12023062512198879  0.6354425123855613  1.0000
  C   C257      1.0  0.2235619313847544  0.10197387978401343  0.6241646599770703  1.0000
  C   C258      1.0  0.21030214820070808  0.07473982616350774  0.6343515939390705  1.0000
  H   H169      1.0  0.16409944220688835  0.07674248421217221  0.6839616217682847  1.0000
  H   H170      1.0  0.18745224257216725  0.12495632789822747  0.6655215905879729  1.0000
  H   H171      1.0  0.24022156588707394  0.10897026809695655  0.6075202474035952  1.0000
  H   H172      1.0  0.21676710890861872  0.060916946669891156  0.6254785038826816  1.0000
  C   C259      1.0  0.2872214851812879  0.26583411641585136  0.7453557252585898  1.0000
  C   C260      1.0  0.3081036220327517  0.2658803297708906  0.7276139900412393  1.0000
  C   C261      1.0  0.3342528102803451  0.2756247104268925  0.7411945950926505  1.0000
  C   C262      1.0  0.3398095559141525  0.2851801954371315  0.7727182506083602  1.0000
  C   C263      1.0  0.3187736449200123  0.2845653448801987  0.7907015781185113  1.0000
  C   C264      1.0  0.2927106488814185  0.2751121150838899  0.7770053323483392  1.0000
  H   H173      1.0  0.30427235582318135  0.25894387388427575  0.7032190818423056  1.0000
  H   H174      1.0  0.35036511063718995  0.2761142060882629  0.7269668553668097  1.0000
  H   H175      1.0  0.3226933171261351  0.2918599179250304  0.8149483097856498  1.0000
  H   H176      1.0  0.2767698897989361  0.2752395087683418  0.7909585118147594  1.0000
  C   C265      1.0  0.9723841515047834  0.21467067042560653  0.5265560394804031  1.0000
  C   C266      1.0  0.9587148702501624  0.20922636742363965  0.4972511188203164  1.0000
  C   C267      1.0  0.9734052884043276  0.21916554953983028  0.4689273590322013  1.0000
  C   C268      1.0  0.0018888887060628523  0.23484512377997324  0.46983130725684974  1.0000
  C   C269      1.0  0.015572808128128779  0.24024070932353164  0.4991356437613053  1.0000
  C   C270      1.0  0.0008924737501485591  0.2301537605382417  0.5274380889362809  1.0000
  H   H177      1.0  0.936643323124097  0.197315193327846  0.49645020746528595  1.0000
  H   H178      1.0  0.9626943106827971  0.21493146389540418  0.4464687285314487  1.0000
  H   H179      1.0  0.037622425651888225  0.25244123034716726  0.4999720699366795  1.0000
  H   H180      1.0  0.011595134899893056  0.23452442830177445  0.5499084115776165  1.0000
  C   C271      1.0  0.9011586756982647  0.11908648264833523  0.6757888014872608  1.0000
  C   C272      1.0  0.9001424391737469  0.12468107073208824  0.6437671920249238  1.0000
  C   C273      1.0  0.8758982899603432  0.10957735708343332  0.6263552544511389  1.0000
  C   C274      1.0  0.8524876396641917  0.0886941214165012  0.6407289027316119  1.0000
  C   C275      1.0  0.853372592600603  0.08301560033120081  0.6728255959592983  1.0000
  C   C276      1.0  0.8777499681752485  0.09814208507722688  0.6903181758646024  1.0000
  H   H181      1.0  0.9181135370373226  0.1405367262656736  0.6322147438293387  1.0000
  H   H182      1.0  0.8753249640332637  0.1140660744818714  0.6015403449923993  1.0000
  H   H183      1.0  0.8351974248940346  0.06726709330714166  0.6841831460271496  1.0000
  H   H184      1.0  0.8783724011149622  0.09385167318607965  0.7151732381180366  1.0000
  C   C277      1.0  0.08289481504832213  0.22483655779765074  0.662760614235143  1.0000
  C   C278      1.0  0.11152901180968326  0.23981431436101922  0.6604295021270092  1.0000
  C   C279      1.0  0.127192847346128  0.22685101125821805  0.6632197070855643  1.0000
  C   C280      1.0  0.11435464458868273  0.1987292472358016  0.668623495765877  1.0000
  C   C281      1.0  0.08575604997971391  0.18377723669112783  0.6712606345118484  1.0000
  C   C282      1.0  0.07004963555442635  0.19670718351917083  0.6681339244521037  1.0000
  H   H185      1.0  0.12161706087013363  0.261610422634558  0.6564090457748946  1.0000
  H   H186      1.0  0.1491496506627683  0.23866254190888844  0.6610935128787011  1.0000
  H   H187      1.0  0.0756234798432622  0.16200926409343233  0.6754913638638012  1.0000
  H   H188      1.0  0.048033240082409306  0.1849539870366916  0.6700670295993426  1.0000
  C   C283      1.0  0.9540101050977641  0.2754794011728825  0.7268123012123484  1.0000
  C   C284      1.0  0.9349950209908912  0.2838241648266244  0.7341115438130328  1.0000
  C   C285      1.0  0.9354249325057367  0.295516851398692  0.7638646964395335  1.0000
  C   C286      1.0  0.9553886994492119  0.29966446318124623  0.7863775377958857  1.0000
  C   C287      1.0  0.9742513745482573  0.29109154354330913  0.7791514928970795  1.0000
  C   C288      1.0  0.9733747276884435  0.27874632071513505  0.749713340847318  1.0000
  H   H189      1.0  0.9200050042846541  0.2815448918448816  0.7165444351549597  1.0000
  H   H190      1.0  0.9209411228687893  0.3022139146652284  0.7689700932343481  1.0000
  H   H191      1.0  0.9899052037216611  0.29437228795248016  0.7962736812430327  1.0000
  H   H192      1.0  0.9882593200176585  0.2726185126876802  0.744398562534678  1.0000
  N   N1        1.0  0.4085403413706709  0.9804238227517877  0.06358858312308602  1.0000
  C   C289      1.0  0.38518504407889076  0.9522446489055306  0.0631392891563376  1.0000
  C   C290      1.0  0.4161354298362132  0.9900867111406237  0.030695566286520926  1.0000
  C   C291      1.0  0.4318569525733782  0.9807535637922525  0.0799979215345108  1.0000
  C   C292      1.0  0.4007912312484386  0.9983984824238976  0.0806793644791195  1.0000
  H   H193      1.0  0.378026577636728  0.9450105808991404  0.08750433827806159  1.0000
  H   H194      1.0  0.3905339996877666  0.9376071766719909  0.052169136968458485  1.0000
  H   H195      1.0  0.36748686717536705  0.9507712517844599  0.0500072908916771  1.0000
  H   H196      1.0  0.42169623610159607  0.9767041389276584  0.017042482740775355  1.0000
  H   H197      1.0  0.39887651048994927  0.9901451473802134  0.017868544548376608  1.0000
  H   H198      1.0  0.43381404247607563  0.011279050260994294  0.030050480170019434  1.0000
  H   H199      1.0  0.4377868121858381  0.9668506068607695  0.06817550290693974  1.0000
  H   H200      1.0  0.42656131857716234  0.9735571888221889  0.10490906018448531  1.0000
  H   H201      1.0  0.45006573623308554  0.0016098655712595278  0.08064951624494499  1.0000
  H   H202      1.0  0.4180541768139343  0.01977354131829423  0.08207626670912727  1.0000
  H   H203      1.0  0.39404240580233146  0.9911017241773754  0.10527613943070824  1.0000
  H   H204      1.0  0.38344695134411955  0.9988437689683728  0.06872036047736385  1.0000
  N   N2        1.0  0.29927566295242947  0.4958138775431404  0.08693470074998323  1.0000
  C   C293      1.0  0.27179557208827154  0.49012320970580137  0.07696080878320943  1.0000
  C   C294      1.0  0.30949205916201494  0.4831986364452987  0.06405815867529682  1.0000
  C   C295      1.0  0.29760984439080745  0.48414556654016316  0.11862436797504795  1.0000
  C   C296      1.0  0.3182677814202007  0.5256196203053811  0.08826134091592763  1.0000
  H   H205      1.0  0.26301109038175297  0.4985639266862218  0.09419550582630971  1.0000
  H   H206      1.0  0.25722945230459693  0.4677224311973595  0.07523470011088619  1.0000
  H   H207      1.0  0.2722471079502339  0.49897923417609386  0.053334528152518504  1.0000
  H   H208      1.0  0.29559036405504535  0.4606519221785587  0.06255692043947951  1.0000
  H   H209      1.0  0.3111376400704937  0.49152883746081877  0.039840219372979976  1.0000
  H   H210      1.0  0.33007239520665366  0.48683453424216694  0.07113863729795356  1.0000
  H   H211      1.0  0.3181124325664346  0.48862346756454944  0.12725286409966857  1.0000
  H   H212      1.0  0.28415406040656244  0.4615950497600913  0.11807623634381546  1.0000
  H   H213      1.0  0.2891328360305694  0.4924097927950999  0.13645305466954236  1.0000
  H   H214      1.0  0.33914818874536806  0.5303351382462785  0.0957915319883581  1.0000
  H   H215      1.0  0.3112580210929495  0.5357214716006232  0.10552673161011016  1.0000
  H   H216      1.0  0.3201411299168992  0.5351993109357087  0.06473772475591359  1.0000
  N   N3        1.0  0.17085156168299032  0.2247187004159483  0.7575973243088967  1.0000
  C   C297      1.0  0.17970263792715493  0.24316805754176612  0.7300663999460635  1.0000
  C   C298      1.0  0.14109763689667137  0.2128431420401791  0.7619166381905152  1.0000
  C   C299      1.0  0.18571020093005386  0.24034264259295995  0.7861888892803787  1.0000
  C   C300      1.0  0.1769956096262975  0.20253454268617005  0.7519484691993107  1.0000
  H   H217      1.0  0.2021149310090893  0.25274996704251057  0.726210423041191  1.0000
  H   H218      1.0  0.1749863274537609  0.2599295223806908  0.7331133447175187  1.0000
  H   H219      1.0  0.1692675597957874  0.23183403994759466  0.7080864446567687  1.0000
  H   H220      1.0  0.13358027657271937  0.19868822582400136  0.7824224238651507  1.0000
  H   H221      1.0  0.13563120171096743  0.22899284537022438  0.7659417615405313  1.0000
  H   H222      1.0  0.12952438797426527  0.20096897903723263  0.7405054035622723  1.0000
  H   H223      1.0  0.20823876772879082  0.2494525149840191  0.7832917141414294  1.0000
  H   H224      1.0  0.17963575424725314  0.2270896935874066  0.8074982614523486  1.0000
  H   H225      1.0  0.1817314649533568  0.2574066165147686  0.7910355141464066  1.0000
  H   H226      1.0  0.1708225042039824  0.18828946618092487  0.7723250002949519  1.0000
  H   H227      1.0  0.199264081360476  0.21082458821154168  0.7480868437149434  1.0000
  H   H228      1.0  0.16597377720358852  0.19022634726315396  0.7305991550121383  1.0000
  N   N4        1.0  0.582955991072813  0.8908426368085708  0.002209497025979612  1.0000
  C   C301      1.0  0.6016243019978813  0.9086162434764883  0.027451988257222615  1.0000
  C   C302      1.0  0.5989649675552361  0.8928922621282683  0.9737145704193148  1.0000
  C   C303      1.0  0.5630731502909627  0.8997482039676431  0.9944625646491767  1.0000
  C   C304      1.0  0.5682633082057735  0.862234939825532  0.013283099895425421  1.0000
  H   H229      1.0  0.5900426956070127  0.9083322277306728  0.04872273525029014  1.0000
  H   H230      1.0  0.6135358290888352  0.9302851640211363  0.01974310711587468  1.0000
  H   H231      1.0  0.6162322137673003  0.9019104265890207  0.035011722376716126  1.0000
  H   H232      1.0  0.5855495847085729  0.8796537869189934  0.9541733830060843  1.0000
  H   H233      1.0  0.6102106900908408  0.9142648424266968  0.9647899543149968  1.0000
  H   H234      1.0  0.6143086240792072  0.8865337532228935  0.9788885752660471  1.0000
  H   H235      1.0  0.5488015332565898  0.8870908057850113  0.9752219999024507  1.0000
  H   H236      1.0  0.5735362421663435  0.9215141051085259  0.9868522819859269  1.0000
  H   H237      1.0  0.5505194447762987  0.8983082944420309  0.015441037246438194  1.0000
  H   H238      1.0  0.5560789076570457  0.8599873925584737  0.03487937895738491  1.0000
  H   H239      1.0  0.5826485373902003  0.8549340367881461  0.01980120884273684  1.0000
  H   H240      1.0  0.5539395931097876  0.848128186617437  0.9949340911228883  1.0000
  N   N5        1.0  0.7188160133205334  0.7882291975593759  0.7560197391559107  1.0000
  C   C305      1.0  0.70356374748324  0.7679453305493278  0.7308301767564536  1.0000
  C   C306      1.0  0.7363567711189762  0.8153047984543096  0.7416152308725684  1.0000
  C   C307      1.0  0.7359742681663142  0.7797831982909728  0.7737328424820158  1.0000
  C   C308      1.0  0.6992779220214537  0.7898002376010795  0.7778716467201277  1.0000
  H   H241      1.0  0.6900338301663499  0.7472351237222188  0.7407455407864247  1.0000
  H   H242      1.0  0.7177018515195136  0.7659272863287508  0.7143809351460417  1.0000
  H   H243      1.0  0.6908951782668623  0.7739081003677782  0.7163434529014571  1.0000
  H   H244      1.0  0.7483420100151863  0.8311548542663968  0.759834711926329  1.0000
  H   H245      1.0  0.7511535288851957  0.8148071349211858  0.7246776138009619  1.0000
  H   H246      1.0  0.724078624048275  0.8222701871318165  0.7279337927763255  1.0000
  H   H247      1.0  0.7475730720769133  0.7943559452314244  0.7932320614775883  1.0000
  H   H248      1.0  0.7510917899888441  0.778555456520675  0.7579829514966866  1.0000
  H   H249      1.0  0.7234416666486865  0.7590956742070705  0.7842075144794507  1.0000
  H   H250      1.0  0.6859383088585964  0.7959862088312251  0.7651611996989115  1.0000
  H   H251      1.0  0.7100710819383255  0.8049876315155913  0.7971606482568658  1.0000
  H   H252      1.0  0.6857793376156367  0.7696859062557894  0.7891626968005664  1.0000
  N   N6        1.0  0.9389840267814237  0.6512979268626226  0.33073665447929357  1.0000
  C   C309      1.0  0.9247440544881443  0.6583560980703287  0.30631898270072605  1.0000
  C   C310      1.0  0.9355529060975516  0.6608713587054198  0.36211492233764414  1.0000
  C   C311      1.0  0.9683651856716163  0.6646881849993846  0.3231523587446  1.0000
  C   C312      1.0  0.9273770743767582  0.6213730702988832  0.33130242659076464  1.0000
  H   H253      1.0  0.927722054682905  0.6523236828824865  0.2821500066200735  1.0000
  H   H254      1.0  0.9327377924520321  0.6807626489071376  0.3056150158747234  1.0000
  H   H255      1.0  0.9024323147140628  0.6483611454226327  0.3108800505804637  1.0000
  H   H256      1.0  0.9457210956164084  0.6556846637061027  0.3813142711568494  1.0000
  H   H257      1.0  0.9447195445593881  0.6834338841450553  0.36268026430893247  1.0000
  H   H258      1.0  0.913645681554626  0.6519229700736872  0.36847160177647437  1.0000
  H   H259      1.0  0.9799635380402104  0.6601924806705742  0.34118209629869867  1.0000
  H   H260      1.0  0.9775722524056732  0.6872700180136212  0.3222035926413677  1.0000
  H   H261      1.0  0.9717941815492002  0.6580056164179353  0.29958478198837646  1.0000
  H   H262      1.0  0.937826756934081  0.6154105878127513  0.34934928816217536  1.0000
  H   H263      1.0  0.929602799760815  0.6135415044934683  0.30789483067504037  1.0000
  H   H264      1.0  0.9052346528287606  0.6106601855256827  0.33713997163060144  1.0000
  N   N7        1.0  0.7576873238061923  0.9473217776564045  0.4781762161140411  1.0000
  C   C313      1.0  0.7414744470275464  0.9559151979221602  0.45894457687515283  1.0000
  C   C314      1.0  0.7585139799578607  0.9561208955287825  0.511426383200484  1.0000
  C   C315      1.0  0.7857365758045657  0.9600537251740253  0.46551431844614916  1.0000
  C   C316      1.0  0.7449030030275003  0.9172645809184243  0.47664843713665195  1.0000
  H   H265      1.0  0.7202987220709941  0.9470486021699867  0.46803735813958114  1.0000
  H   H266      1.0  0.7398302559273635  0.949310219133324  0.43387077227079535  1.0000
  H   H267      1.0  0.7509997447108766  0.9785079002458781  0.45885918791497515  1.0000
  H   H268      1.0  0.770507335817881  0.9500129975265108  0.5268854370769566  1.0000
  H   H269      1.0  0.7678349229155309  0.9787098314380313  0.5133632533839481  1.0000
  H   H270      1.0  0.7375955016248127  0.947081155522626  0.5215874681806592  1.0000
  H   H271      1.0  0.7986356877033165  0.9540271990825612  0.47938170318577983  1.0000
  H   H272      1.0  0.7958494849399002  0.9827547155133253  0.46606655263144614  1.0000
  H   H273      1.0  0.7856674770644267  0.9538588966371487  0.44036896487292515  1.0000
  H   H274      1.0  0.7566075135745906  0.910012794024908  0.4908873671208668  1.0000
  H   H275      1.0  0.74394295297361  0.910071749288646  0.4517727490148543  1.0000
  H   H276      1.0  0.7236202647654593  0.9070954295741716  0.48577777000491795  1.0000
  N   N8        1.0  0.6072022432419392  0.7555477846385211  0.18341337854374512  1.0000
  C   C317      1.0  0.6125056266993503  0.7530778230850009  0.1496566775472144  1.0000
  C   C318      1.0  0.5950365228931119  0.7733016986362427  0.18644375859148302  1.0000
  C   C319      1.0  0.6331758429090977  0.7674298104496287  0.20138489447005214  1.0000
  C   C320      1.0  0.5880047079452669  0.7282086180277192  0.1960455319399208  1.0000
  H   H277      1.0  0.6223885764356686  0.7404334753571303  0.14653360840176702  1.0000
  H   H278      1.0  0.626088046706499  0.7733518488242344  0.13887306431061594  1.0000
  H   H279      1.0  0.5932082569693533  0.7431829199202239  0.13564616876573102  1.0000
  H   H280      1.0  0.5912363835789338  0.7761020461423092  0.21164222447372558  1.0000
  H   H281      1.0  0.6084068888424408  0.793822775894567  0.17604613552660014  1.0000
  H   H282      1.0  0.5750266457405777  0.7642856054957815  0.1737795850321661  1.0000
  H   H283      1.0  0.6299660804047282  0.7692920138576365  0.22706289200162635  1.0000
  H   H284      1.0  0.648167982386975  0.7880466756040581  0.19243438418975134  1.0000
  H   H285      1.0  0.6427143720544292  0.7543467237590578  0.19928405293399656  1.0000
  H   H286      1.0  0.5962699377391592  0.7140759942429801  0.1935197875865244  1.0000
  H   H287      1.0  0.5680304541960978  0.7188419647322789  0.18324295259453607  1.0000
  H   H288      1.0  0.583816283279121  0.7291296611939184  0.22160769526263474  1.0000
  N   N9        1.0  0.9524534968674271  0.5544622451071244  0.7810823178287654  1.0000
  C   C321      1.0  0.9227037399267165  0.5407414487712922  0.786428900166019  1.0000
  C   C322      1.0  0.9655901223553672  0.5481727887130863  0.807570881679026  1.0000
  C   C323      1.0  0.963628029268704  0.5843288406971373  0.779344713968226  1.0000
  C   C324      1.0  0.9577259479853784  0.5445174811877921  0.7509988107771585  1.0000
  H   H289      1.0  0.9134315993699597  0.5181636602621147  0.7881209689388344  1.0000
  H   H290      1.0  0.9119962318605724  0.545402845975166  0.7673507858710683  1.0000
  H   H291      1.0  0.9182478682946544  0.5477391305074607  0.8089799398157216  1.0000
  H   H292      1.0  0.9880394629467416  0.5578779053013347  0.8043327405574136  1.0000
  H   H293      1.0  0.9620806787286533  0.5555152918591127  0.8306380002535382  1.0000
  H   H294      1.0  0.9570689462572894  0.5257307130392485  0.8101165413310266  1.0000
  H   H295      1.0  0.9860786996188439  0.5955083456124888  0.7755773321381355  1.0000
  H   H296      1.0  0.9595730772718128  0.5924613459196312  0.8014823502156758  1.0000
  H   H297      1.0  0.954020380436573  0.5897647244991076  0.7596826984826435  1.0000
  H   H298      1.0  0.9799996260247064  0.5545256232292293  0.7461165390888461  1.0000
  H   H299      1.0  0.9478786288959573  0.548836918915274  0.7306435320861043  1.0000
  H   H300      1.0  0.9495130065465314  0.5220424616072171  0.7516083990472094  1.0000
  N   N10       1.0  0.3957115521959903  0.4095269751195549  0.9317595445962293  1.0000
  C   C325      1.0  0.41221158100124095  0.43628345306594035  0.9162873611753857  1.0000
  C   C326      1.0  0.41190598332528294  0.395619970366825  0.9338411506566625  1.0000
  C   C327      1.0  0.37067652904535103  0.39254379550055746  0.9128597799543927  1.0000
  C   C328      1.0  0.3881137918008305  0.413637395211668  0.9639477673950518  1.0000
  H   H301      1.0  0.41823573777016193  0.4338141892802747  0.8919125567181035  1.0000
  H   H302      1.0  0.4313826539398025  0.4494493738839989  0.9298158990661931  1.0000
  H   H303      1.0  0.4007107759896997  0.4474553597406248  0.9143252128497711  1.0000
  H   H304      1.0  0.3996736524352953  0.3746761331971609  0.9435542586254227  1.0000
  H   H305      1.0  0.4191135280628193  0.3935335298221203  0.9101108366274321  1.0000
  H   H306      1.0  0.4303393296948995  0.40706708151125476  0.9491234920947709  1.0000
  H   H307      1.0  0.3576262723420909  0.3722745328142997  0.9240556788355855  1.0000
  H   H308      1.0  0.3756046390434617  0.3885391054374123  0.8886109316064491  1.0000
  H   H309      1.0  0.3580157106712935  0.4024555767088489  0.9104682725975888  1.0000
  H   H310      1.0  0.3755673950724517  0.39382838152854627  0.9761227394074654  1.0000
  H   H311      1.0  0.3758416200010549  0.42406417244698286  0.9633370903430564  1.0000
  H   H312      1.0  0.40642956421817705  0.4260355772211221  0.9791039129953643  1.0000
  N   N11       1.0  0.35205202620346765  0.34253512671451836  0.1654916320414189  1.0000
  C   C329      1.0  0.3753868522848963  0.37078037017100907  0.16447695869887735  1.0000
  C   C330      1.0  0.3460274882602228  0.3335525627648774  0.19882202765677068  1.0000
  C   C331      1.0  0.35880720723581183  0.32419618048391313  0.1475894781291983  1.0000
  C   C332      1.0  0.3278780190475409  0.34173449602417255  0.15094740655552677  1.0000
  H   H313      1.0  0.3798968276890941  0.3785334993372654  0.13969260007915013  1.0000
  H   H314      1.0  0.3942297263733726  0.37215472633054736  0.17459033588764733  1.0000
  H   H315      1.0  0.37105746655415045  0.3850082221543565  0.17834075806932315  1.0000
  H   H316      1.0  0.32790015132962613  0.3126594692484141  0.2006627226562924  1.0000
  H   H317      1.0  0.36360213930877927  0.33334609982804086  0.21047055851967011  1.0000
  H   H318      1.0  0.3414376997912919  0.34745594640080574  0.21296652392121143  1.0000
  H   H319      1.0  0.34150103882160204  0.30275867651419597  0.14773340304940344  1.0000
  H   H320      1.0  0.37700428896638594  0.3242518368454148  0.15781040788442044  1.0000
  H   H321      1.0  0.3633697897636574  0.3306034089124395  0.12232568201607494  1.0000
  H   H322      1.0  0.30953524805516436  0.3209896900493521  0.15222248883069295  1.0000
  H   H323      1.0  0.3313258415999879  0.3476020835523417  0.12553599789580044  1.0000
  H   H324      1.0  0.32295728115370265  0.35618440841759297  0.16311049892354754  1.0000
  N   N12       1.0  0.13811943840739638  0.2217440990392032  0.5666893208619184  1.0000
  C   C333      1.0  0.12161952857440544  0.23043753399440722  0.548079625017903  1.0000
  C   C334      1.0  0.11991879680945929  0.19816252225709605  0.5866162360114999  1.0000
  C   C335      1.0  0.15750206674564984  0.24463845744547377  0.5871012915256891  1.0000
  C   C336      1.0  0.1534923703690614  0.21383017147772454  0.5449925512798605  1.0000
  H   H325      1.0  0.13482884596532338  0.24829399870066268  0.5329029232949195  1.0000
  H   H326      1.0  0.1098159465085507  0.23658443467360274  0.5638809618220192  1.0000
  H   H327      1.0  0.10673174318769478  0.21367678449361527  0.5324206151759897  1.0000
  H   H328      1.0  0.13180119319200725  0.19177467033307058  0.6019902434931914  1.0000
  H   H329      1.0  0.10725007530584733  0.2030982569826769  0.6024501172340944  1.0000
  H   H330      1.0  0.10567928674354223  0.18013247343216787  0.5720482400708138  1.0000
  H   H331      1.0  0.16980259943090542  0.23858295959150405  0.6021104143769059  1.0000
  H   H332      1.0  0.14675363904691063  0.251811871082385  0.6030847250903235  1.0000
  H   H333      1.0  0.17229753065994988  0.2624286970560865  0.5728060594994855  1.0000
  H   H334      1.0  0.16650222053389135  0.20760099193441586  0.5583485674716673  1.0000
  H   H335      1.0  0.16752198115427183  0.2311889776168208  0.5296945987251067  1.0000
  H   H336      1.0  0.13967218909110554  0.1964882114851562  0.5293089123007383  1.0000
  N   N13       1.0  0.5174768585622224  0.5653319184514278  0.04597172375342122  1.0000
  C   C337      1.0  0.5244110278727455  0.5629314725049301  0.012817721973006088  1.0000
  C   C338      1.0  0.5062852150476295  0.5839939923024617  0.04742220375693703  1.0000
  C   C339      1.0  0.5423979044157607  0.5763758459862951  0.06576760695019727  1.0000
  C   C340      1.0  0.49695344864415586  0.5382250149524472  0.058019279976147135  1.0000
  H   H337      1.0  0.5334699197957117  0.549458101146  0.010836049296090658  1.0000
  H   H338      1.0  0.5397528802192997  0.5832710737078362  0.003274655733885634  1.0000
  H   H339      1.0  0.506127399394731  0.5545840994886835  0.9971053425565359  1.0000
  H   H340      1.0  0.5211828974626292  0.6046159471833716  0.03827787759258217  1.0000
  H   H341      1.0  0.4872461422314484  0.5761966254778291  0.033131394308393396  1.0000
  H   H342      1.0  0.5013135538918172  0.5866888738358416  0.0721920512521239  1.0000
  H   H343      1.0  0.5378589636262345  0.5777887825995166  0.09112650966805054  1.0000
  H   H344      1.0  0.5578754419883977  0.5972268608990411  0.0580207026721707  1.0000
  H   H345      1.0  0.5520513189676312  0.5634201404920574  0.06442802740069457  1.0000
  H   H346      1.0  0.49160612519152314  0.5396640481136394  0.0831099075642038  1.0000
  H   H347      1.0  0.5047205392164937  0.5236225087414417  0.05737170220935578  1.0000
  H   H348      1.0  0.4776819335466104  0.5293485331779976  0.04396136013708042  1.0000
  N   N14       1.0  0.5161381047273248  0.9229602403217122  0.22623636165683325  1.0000
  C   C341      1.0  0.5440171767340968  0.9469763109027507  0.22715595846889378  1.0000
  C   C342      1.0  0.49956776157890415  0.9271001286247716  0.2020546643726585  1.0000
  C   C343      1.0  0.503274268888459  0.9192996527735101  0.2575979178822836  1.0000
  C   C344      1.0  0.5176759418050573  0.898332587927881  0.2180912939504869  1.0000
  H   H349      1.0  0.5572095652637319  0.9443533496938035  0.24483886118306902  1.0000
  H   H350      1.0  0.5437988346246633  0.9660250790715988  0.23320256881266602  1.0000
  H   H351      1.0  0.5543791678237737  0.9501944282415132  0.20389026520291345  1.0000
  H   H352      1.0  0.49795971626490976  0.9455516529773752  0.20716557761229334  1.0000
  H   H353      1.0  0.5085061567632138  0.9295414286720621  0.17799357055270473  1.0000
  H   H354      1.0  0.4784439335808932  0.9092299354102883  0.2006130342121681  1.0000
  H   H355      1.0  0.4822231111070375  0.9012767089088723  0.2575885760793293  1.0000
  H   H356      1.0  0.5017549929865956  0.9375129907953362  0.26449980773006104  1.0000
  H   H357      1.0  0.5152551910934208  0.9160108094080377  0.2763140203665348  1.0000
  H   H358      1.0  0.5306133539867594  0.8948209087724097  0.23522748019835413  1.0000
  H   H359      1.0  0.5267943257506295  0.9003586128002863  0.1943582365368967  1.0000
  H   H360      1.0  0.4970527777088813  0.8796944612879615  0.2171406759784084  1.0000
  N   N15       1.0  0.7174674704603454  0.6761345108013905  0.2781699983336542  1.0000
  C   C345      1.0  0.7306078924978743  0.7044186919991529  0.266292506097126  1.0000
  C   C346      1.0  0.689053736124908  0.6607031193272316  0.2661408148191957  1.0000
  C   C347      1.0  0.7173165768654618  0.6765671767025884  0.3131885783889197  1.0000
  C   C348      1.0  0.7330025665056106  0.663058943092028  0.2671465621889985  1.0000
  H   H361      1.0  0.7307218027353929  0.7050160723078933  0.23994258054625855  1.0000
  H   H362      1.0  0.7521555548672811  0.7166546024993246  0.2747702845222641  1.0000
  H   H363      1.0  0.7195688865006907  0.7148931489959102  0.27461844182824374  1.0000
  H   H364      1.0  0.6882716829878591  0.6605782129254762  0.23976959896526856  1.0000
  H   H365      1.0  0.6785417704434931  0.6391405420197623  0.2742896448278642  1.0000
  H   H366      1.0  0.6767865882562554  0.6699306432651125  0.2746137215017673  1.0000
  H   H367      1.0  0.7384428631326483  0.6886328515278382  0.32306191752877317  1.0000
  H   H368      1.0  0.7079273021214099  0.6556172764725473  0.32312735184754354  1.0000
  H   H369      1.0  0.7053640545319713  0.6859539577451698  0.32224591554968096  1.0000
  H   H370      1.0  0.7237439960927974  0.6416760480428003  0.27574150274358694  1.0000
  H   H371      1.0  0.7545399832156608  0.6744211192290349  0.27594671812337535  1.0000
  H   H372      1.0  0.7336275264616189  0.6625285730016901  0.24080141956864567  1.0000
  N   N16       1.0  0.2019586154894437  0.30425971837037297  0.28875942839579627  1.0000
  C   C349      1.0  0.2207119673476497  0.311324309580639  0.31615285139416915  1.0000
  C   C350      1.0  0.19177543608037018  0.27550091780979713  0.27944934935633314  1.0000
  C   C351      1.0  0.21667437466833014  0.3223352400886745  0.2618982865792839  1.0000
  C   C352      1.0  0.17866493019483368  0.3078228938626122  0.2976745193183822  1.0000
  H   H373      1.0  0.23791772524397067  0.30772537431851377  0.3107462618508943  1.0000
  H   H374      1.0  0.20993497343136622  0.29872619095070846  0.3371982246171929  1.0000
  H   H375      1.0  0.22966574809959012  0.3331503103430355  0.3231683664617196  1.0000
  H   H376      1.0  0.18055204707477418  0.26132736764907705  0.29918304337759033  1.0000
  H   H377      1.0  0.17762964357130692  0.2693527838923314  0.25877952182228475  1.0000
  H   H378      1.0  0.20883946662886796  0.2719914344488705  0.2728493560441219  1.0000
  H   H379      1.0  0.20319192310541065  0.3175955263797784  0.24075660629155896  1.0000
  H   H380      1.0  0.2343071153540618  0.32004881169568755  0.2546161347019488  1.0000
  H   H381      1.0  0.22493751299531967  0.3442506856600924  0.2681199646424983  1.0000
  H   H382      1.0  0.16386153389180302  0.3023137022344668  0.2777488618608825  1.0000
  H   H383      1.0  0.18562187562399105  0.3293153596742473  0.3047770277996894  1.0000
  H   H384      1.0  0.16736970381824468  0.2946036384950073  0.3181169151347481  1.0000
  N   N17       1.0  0.22066807316448975  0.14786515965335364  0.4388816860030595  1.0000
  C   C353      1.0  0.2426801147084698  0.165753320056824  0.41694605905165744  1.0000
  C   C354      1.0  0.2305136009671858  0.13361032398755796  0.4597676489619753  1.0000
  C   C355      1.0  0.19671897153576226  0.127555163606232  0.42048892997458787  1.0000
  C   C356      1.0  0.21282139518051557  0.16462027706044965  0.4583164335664253  1.0000
  H   H385      1.0  0.2357420615325896  0.1763793805634953  0.400368793735138  1.0000
  H   H386      1.0  0.2496654786830783  0.1539746073352988  0.40242932484519595  1.0000
  H   H387      1.0  0.26075149873434394  0.18195914288346557  0.42998367165049006  1.0000
  H   H388      1.0  0.21449690141978303  0.12007615781033766  0.4768248287735087  1.0000
  H   H389      1.0  0.23650202164524897  0.12067468837623366  0.44580694016566325  1.0000
  H   H390      1.0  0.24870060946361494  0.1484123232648939  0.4738472415854951  1.0000
  H   H391      1.0  0.20178809485529015  0.11419772438646096  0.4060174634490414  1.0000
  H   H392      1.0  0.18917602096918276  0.13766423881620693  0.40389009887467403  1.0000
  H   H393      1.0  0.17947792800558104  0.11403850888434487  0.43618357546614306  1.0000
  H   H394      1.0  0.19589638050381178  0.15187339015833629  0.47477521132672224  1.0000
  H   H395      1.0  0.20619409407890352  0.17640801319399327  0.44321674924355686  1.0000
  H   H396      1.0  0.2303371361552267  0.1797811018672961  0.47290126635438473  1.0000
  N   N18       1.0  0.2513318898287919  0.06100967852882045  0.2590445222753197  1.0000
  C   C357      1.0  0.271673844818532  0.08378181100734804  0.2396589241272569  1.0000
  C   C358      1.0  0.23051912902391627  0.06758488571627126  0.2703176116550533  1.0000
  C   C359      1.0  0.2651877646746242  0.05701683374459156  0.28655602962634363  1.0000
  C   C360      1.0  0.23807320694625578  0.03572549978935555  0.2396693498129422  1.0000
  H   H397      1.0  0.2619113792380854  0.08741430665129372  0.2187079265836366  1.0000
  H   H398      1.0  0.2876655692386933  0.07945413459246652  0.2307783598815603  1.0000
  H   H399      1.0  0.28211186026197344  0.10314049152690515  0.2536430136848319  1.0000
  H   H400      1.0  0.23988511848970015  0.0865921086354697  0.2849788497836339  1.0000
  H   H401      1.0  0.21937622889535197  0.07046947719973125  0.25029588954453535  1.0000
  H   H402      1.0  0.21507316053427875  0.05108469002490499  0.2855304483764626  1.0000
  H   H403      1.0  0.25041643832555394  0.040051159927344204  0.30166456091332644  1.0000
  H   H404      1.0  0.2752325700548615  0.07556137199005325  0.30195566982389244  1.0000
  H   H405      1.0  0.2808283487326487  0.0517003721418293  0.27904865137407875  1.0000
  H   H406      1.0  0.22264634282007054  0.01806098842537441  0.25353730041146866  1.0000
  H   H407      1.0  0.25316472337949447  0.029952002035290384  0.2311827182904897  1.0000
  H   H408      1.0  0.22744796670418027  0.03790515196777271  0.2186064380585081  1.0000
  N   N19       1.0  0.15399763941775535  0.944821758862907  0.5234856139214473  1.0000
  C   C361      1.0  0.16670697896355918  0.9304763493988334  0.5079609247877589  1.0000
  C   C362      1.0  0.14267665923478642  0.9319362356506161  0.5543855797738936  1.0000
  C   C363      1.0  0.13193427700047003  0.9431715433211026  0.503045462824318  1.0000
  C   C364      1.0  0.17485123605380803  0.9737995547513284  0.5285849500603276  1.0000
  H   H409      1.0  0.18319301926737316  0.9310696130620295  0.5230799797093107  1.0000
  H   H410      1.0  0.17606343362090585  0.9400096518761218  0.484850186047706  1.0000
  H   H411      1.0  0.15156498212720088  0.9086293908242068  0.5033488609908904  1.0000
  H   H412      1.0  0.1334131093979559  0.9425108408833479  0.5672686032107137  1.0000
  H   H413      1.0  0.12676037278157853  0.9100566589276481  0.5517305019913521  1.0000
  H   H414      1.0  0.15889895153586456  0.9326397749957424  0.5701024896671967  1.0000
  H   H415      1.0  0.12202175255878508  0.9539247179743726  0.5140688857834039  1.0000
  H   H416      1.0  0.11580049765396674  0.9216037291635296  0.4986785377153896  1.0000
  H   H417      1.0  0.13996046276452812  0.9527454263559916  0.47954997252929854  1.0000
  H   H418      1.0  0.18444261410683402  0.9840906274060949  0.5059150774634344  1.0000
  H   H419      1.0  0.19152286160873616  0.9757712147388917  0.5443986110051755  1.0000
  H   H420      1.0  0.16607548492930382  0.9854716690151989  0.539962836012064  1.0000
  N   N20       1.0  0.05309163684208932  0.7956942842137182  0.7360810751396429  1.0000
  C   C365      1.0  0.05345230181483054  0.7697989427791712  0.7331701055194235  1.0000
  C   C366      1.0  0.07105328517403638  0.8150899131519248  0.7118002541309103  1.0000
  C   C367      1.0  0.06278695898928692  0.8075682205481408  0.7679675204615396  1.0000
  C   C368      1.0  0.024917010749927623  0.7902736274921593  0.731275905408144  1.0000
  H   H421      1.0  0.03989892273183457  0.7545816083822833  0.7509885590906752  1.0000
  H   H422      1.0  0.0743777665983947  0.7729896601410208  0.7364041013207344  1.0000
  H   H423      1.0  0.04583426936955313  0.7601206990050402  0.7094691847619611  1.0000
  H   H424      1.0  0.06413805009567271  0.8066934744118006  0.6874665925415989  1.0000
  H   H425      1.0  0.07092833964654953  0.8347249574120551  0.713001166114697  1.0000
  H   H426      1.0  0.09256627242835805  0.8198430507110508  0.7145285588974086  1.0000
  H   H427      1.0  0.06268516452830096  0.8271175973948253  0.7708087822504749  1.0000
  H   H428      1.0  0.08400586207429507  0.8119018243681977  0.7724252880561077  1.0000
  H   H429      1.0  0.04949686977916711  0.7934054098924178  0.7867454628650776  1.0000
  H   H430      1.0  0.02367371380301167  0.8092862862522284  0.7330961340562226  1.0000
  H   H431      1.0  0.010463736491951398  0.7751606732889189  0.7485790888435636  1.0000
  H   H432      1.0  0.01731803309263435  0.7816429952883484  0.7073465330068015  1.0000
  N   N21       1.0  0.8300088495277722  0.10325171414389055  0.4205120420487528  1.0000
  C   C369      1.0  0.8185133278600746  0.08319705006333633  0.4464466108007216  1.0000
  C   C370      1.0  0.8575261927263417  0.10813039234030597  0.4125160529933143  1.0000
  C   C371      1.0  0.8319146980944497  0.12921511723815637  0.43062741828634116  1.0000
  C   C372      1.0  0.8119730992771023  0.09239428780561511  0.3924016467697609  1.0000
  H   H433      1.0  0.7981544631913405  0.07986887703866717  0.45368332849332366  1.0000
  H   H434      1.0  0.8319605420297309  0.09011519155456407  0.46779512406873014  1.0000
  H   H435      1.0  0.8155219999893479  0.06294825052728358  0.4389748774439459  1.0000
  H   H436      1.0  0.8567827786853452  0.08898048920895493  0.4043764221102817  1.0000
  H   H437      1.0  0.8668042798474909  0.12327440431472961  0.39307645974082017  1.0000
  H   H438      1.0  0.8716892891482212  0.11617852062729642  0.4331877550952723  1.0000
  H   H439      1.0  0.8408484408300091  0.14488112870363457  0.411631426871113  1.0000
  H   H440      1.0  0.8450650804489539  0.13778268149130543  0.4520871865539609  1.0000
  H   H441      1.0  0.8113897244055662  0.1262755960776237  0.43632233352477634  1.0000
  H   H442      1.0  0.7905123711249837  0.08660245634108746  0.3981031434257334  1.0000
  H   H443      1.0  0.8115984430470532  0.07380245671110891  0.3829005244058745  1.0000
  H   H444      1.0  0.8189304125862585  0.10764405112009352  0.3729955678183982  1.0000
  N   N22       1.0  0.7294769044632493  0.12139031458032248  0.9749530306062388  1.0000
  C   C373      1.0  0.7401204683401131  0.1311339841718474  0.007273166764586113  1.0000
  C   C374      1.0  0.7473076353812184  0.1420019771825997  0.9515846623605002  1.0000
  C   C375      1.0  0.7015217350550911  0.11707453757722089  0.9722591693672673  1.0000
  C   C376      1.0  0.7288431142399111  0.09532379991643929  0.9686859199556671  1.0000
  H   H445      1.0  0.7270422090874392  0.11600753719905602  0.025420212538239693  1.0000
  H   H446      1.0  0.7407319940802503  0.15073253262600927  0.012706240976415699  1.0000
  H   H447      1.0  0.7612220161257827  0.13465541013315632  0.010173501533561235  1.0000
  H   H448      1.0  0.7396470091933882  0.13541403136729652  0.9269263794974196  1.0000
  H   H449      1.0  0.7481040187464013  0.1618888857834343  0.9555159413796618  1.0000
  H   H450      1.0  0.7685833245507225  0.14579305622119787  0.9527053764545895  1.0000
  H   H451      1.0  0.6930510292595474  0.10981645478536826  0.9481790924244144  1.0000
  H   H452      1.0  0.7010941934332754  0.13632377870706291  0.976451078095018  1.0000
  H   H453      1.0  0.6872682020601385  0.10133060014194978  0.9891514185051261  1.0000
  H   H454      1.0  0.7207604695574337  0.08734218756780708  0.9445020181924374  1.0000
  H   H455      1.0  0.7152129964707299  0.07916702350017704  0.9855992856998556  1.0000
  H   H456      1.0  0.7495309943954416  0.09766115700113555  0.9705396559771876  1.0000
  N   N23       1.0  0.5978473228384938  0.02845358561316267  0.774193356880177  1.0000
  C   C377      1.0  0.6137986834358502  0.05841370690698263  0.7784750073311275  1.0000
  C   C378      1.0  0.5854979981999328  0.021996480859362847  0.7421605039179165  1.0000
  C   C379      1.0  0.5760584738526054  0.016627942091677846  0.7982801378967976  1.0000
  C   C380      1.0  0.6160967337490904  0.01688589928606536  0.7777788103166049  1.0000
  H   H457      1.0  0.6306042126043678  0.068146111087936  0.760885502896537  1.0000
  H   H458      1.0  0.6235296993447121  0.06388817616134497  0.8022751332638107  1.0000
  H   H459      1.0  0.6007449933748656  0.06792765234887534  0.776426944283331  1.0000
  H   H460      1.0  0.5734125734116045  0.9995337432217993  0.7380411171072484  1.0000
  H   H461      1.0  0.5716364248113274  0.0304492361142479  0.7386252037938905  1.0000
  H   H462      1.0  0.6015073957473739  0.030774265689589245  0.7235312066029724  1.0000
  H   H463      1.0  0.5633922007301247  0.9940600971482912  0.79576030913837  1.0000
  H   H464      1.0  0.5622965009538033  0.02540285402806264  0.7967479215501321  1.0000
  H   H465      1.0  0.5846967835455713  0.02107786441809144  0.8227322692463964  1.0000
  H   H466      1.0  0.6048092790234295  0.9942706815859261  0.7751716453215384  1.0000
  H   H467      1.0  0.6263810758785409  0.021934973168617054  0.8013802080847331  1.0000
  H   H468      1.0  0.6326829405198442  0.025295485187258823  0.7597987912729832  1.0000
  N   N24       1.0  0.7123220253078753  0.9083053552546206  0.276031945546472  1.0000
  C   C381      1.0  0.6900376879719732  0.9041539453732355  0.2541871037025031  1.0000
  C   C382      1.0  0.7388915606881614  0.9281476303116797  0.26209354506607796  1.0000
  C   C383      1.0  0.7114733316135973  0.8820406927675956  0.281277049537644  1.0000
  C   C384      1.0  0.708910757745062  0.9189927047263122  0.30663383525051136  1.0000
  H   H469      1.0  0.690501301246361  0.9237658349728088  0.2495057924571735  1.0000
  H   H470      1.0  0.6696119029688461  0.8898358848908698  0.26419343437717363  1.0000
  H   H471      1.0  0.6917469631580723  0.895895632894241  0.2308819980448822  1.0000
  H   H472      1.0  0.7420639177788205  0.9209493194747774  0.23878642431728772  1.0000
  H   H473      1.0  0.7403330649672336  0.948323166701105  0.25819415442317234  1.0000
  H   H474      1.0  0.756210243151662  0.9317414845663272  0.2778515208037871  1.0000
  H   H475      1.0  0.7277607938779467  0.8844687458795992  0.2981430446271192  1.0000
  H   H476      1.0  0.7145277150380404  0.8735797772013201  0.25881300210386343  1.0000
  H   H477      1.0  0.6916078915543409  0.8665201557495743  0.2915092109471267  1.0000
  H   H478      1.0  0.708838502424268  0.9384833836590297  0.30345221667643196  1.0000
  H   H479      1.0  0.725758211425971  0.9230650038299283  0.32342555264536216  1.0000
  H   H480      1.0  0.6893720347689246  0.9043787512571296  0.31824485463690205  1.0000
  N   N25       1.0  0.03888142831997232  0.5537868176035194  0.0568940235059152  1.0000
  C   C385      1.0  0.011080192472206374  0.5451852291230546  0.06842944870995227  1.0000
  C   C386      1.0  0.045708864226669865  0.5322461142895183  0.06382103147226646  1.0000
  C   C387      1.0  0.058749373827523765  0.5793786298308609  0.07305085645241897  1.0000
  C   C388      1.0  0.04000721451742573  0.5584819332874442  0.02236074401606204  1.0000
  H   H481      1.0  0.005385351556563167  0.5610943426651921  0.06373785288863847  1.0000
  H   H482      1.0  0.009525470684771387  0.5416174724059356  0.09445570745874372  1.0000
  H   H483      1.0  0.9954948977767215  0.5260039424924631  0.056609259152464494  1.0000
  H   H484      1.0  0.06671485416610135  0.5381953599368032  0.0558564204575024  1.0000
  H   H485      1.0  0.04495277718335022  0.5282310881498665  0.08971498104361357  1.0000
  H   H486      1.0  0.031271497735716025  0.5126089755948674  0.05187827828297565  1.0000
  H   H487      1.0  0.08018564375623605  0.5855122420822729  0.06688556560818534  1.0000
  H   H488      1.0  0.056864859828665404  0.5773088172390753  0.09920228269077118  1.0000
  H   H489      1.0  0.055532174583889926  0.5965876941646611  0.0665865193665487  1.0000
  H   H490      1.0  0.03477938825094529  0.5745920325956939  0.016539579687401294  1.0000
  H   H491      1.0  0.025324267190101057  0.5395927352780745  0.009295429886434493  1.0000
  H   H492      1.0  0.06079497391326494  0.5653343027176957  0.012935745585624372  1.0000
  N   N26       1.0  0.9574465203590349  0.2779166582295106  0.5833565785674555  1.0000
  C   C389      1.0  0.9376361636280196  0.25072425317752783  0.595815465765513  1.0000
  C   C390      1.0  0.9761742102581981  0.2752126935423645  0.5611770793867131  1.0000
  C   C391      1.0  0.9732559283458889  0.2961586247360271  0.6099978492669142  1.0000
  C   C392      1.0  0.9426108121570513  0.28945142690130293  0.5664537458685469  1.0000
  H   H493      1.0  0.9482888361956091  0.2414777550479734  0.6083490734495778  1.0000
  H   H494      1.0  0.9253678005986838  0.2362402529611611  0.5764585958595885  1.0000
  H   H495      1.0  0.923387094320779  0.2518667767401014  0.6130603064696386  1.0000
  H   H496      1.0  0.9874051197733903  0.2661432748145515  0.5729815572085162  1.0000
  H   H497      1.0  0.9648378300993733  0.2614793330247432  0.540853579922388  1.0000
  H   H498      1.0  0.991610735356636  0.2952968806415271  0.5513706604096512  1.0000
  H   H499      1.0  0.9596843393163658  0.29830520941921934  0.6274453444654038  1.0000
  H   H500      1.0  0.9884529008913229  0.31692386597808014  0.6016355563597953  1.0000
  H   H501      1.0  0.9845970202220593  0.28798902660617  0.6233741913875521  1.0000
  H   H502      1.0  0.9569644981138274  0.3099648863999163  0.5566414327258415  1.0000
  H   H503      1.0  0.9282687355933792  0.29171330908815096  0.582510711764696  1.0000
  H   H504      1.0  0.9304177199625011  0.2760600963380754  0.5462878190934989  1.0000
  N   N27       1.0  0.5833458517620503  0.5189576938287077  0.7729484043645184  1.0000
  C   C393      1.0  0.5815244005350629  0.5342838377955967  0.7456380309661836  1.0000
  C   C394      1.0  0.5791257928655442  0.5303810975278499  0.8025192745278237  1.0000
  C   C395      1.0  0.6106479553313133  0.5214635445671141  0.7735941694753563  1.0000
  C   C396      1.0  0.5622002667405837  0.48980102515914853  0.7702144484764448  1.0000
  H   H505      1.0  0.5612313575004244  0.532968439317723  0.7444240191374767  1.0000
  H   H506      1.0  0.5847492214395579  0.5263649947906763  0.722851450447576  1.0000
  H   H507      1.0  0.597335442079607  0.5563910604165391  0.7473851576594361  1.0000
  H   H508      1.0  0.5802782406405699  0.5192511682012138  0.8236279098326797  1.0000
  H   H509      1.0  0.5948826689701755  0.5523130527966695  0.8055380322378017  1.0000
  H   H510      1.0  0.5588050454948589  0.5289972330463952  0.8028533932299461  1.0000
  H   H511      1.0  0.6145698872974107  0.5130524950380618  0.7516563805282961  1.0000
  H   H512      1.0  0.6128088119629719  0.5102285031144466  0.793995070433593  1.0000
  H   H513      1.0  0.6271042220635105  0.5432105086161617  0.7758289667955804  1.0000
  H   H514      1.0  0.563299951051798  0.4779084652478776  0.7906720711088909  1.0000
  H   H515      1.0  0.5647329141512195  0.48041148334610556  0.7482133127167113  1.0000
  H   H516      1.0  0.5412937548668977  0.48707205802449016  0.7699067241166784  1.0000
  N   N28       1.0  0.4751326667048775  0.09971160894963874  0.7742054222693914  1.0000
  C   C397      1.0  0.4906930018207912  0.12608656880237498  0.791222497306725  1.0000
  C   C398      1.0  0.4688631319958928  0.07713912157277518  0.7962939521107257  1.0000
  C   C399      1.0  0.4916594657299422  0.09869307539832865  0.7477585253259396  1.0000
  C   C400      1.0  0.4493623885170069  0.0968643387018036  0.7616603451936802  1.0000
  H   H517      1.0  0.4963657550186719  0.14372773286004395  0.7752947776369401  1.0000
  H   H518      1.0  0.509782617157787  0.1284232172049379  0.8020425369225567  1.0000
  H   H519      1.0  0.4786542799707174  0.12769733285323534  0.8110947297290139  1.0000
  H   H520      1.0  0.48784195486971693  0.07823873221250695  0.8055986444232686  1.0000
  H   H521      1.0  0.4574767748993679  0.07809675477987206  0.8171779482632165  1.0000
  H   H522      1.0  0.45618372579127203  0.056804562831557895  0.7848481862844248  1.0000
  H   H523      1.0  0.511278213635627  0.10088070767899904  0.7565374498767422  1.0000
  H   H524      1.0  0.4967130680693437  0.11540762734070861  0.730539698240907  1.0000
  H   H525      1.0  0.48056148452947484  0.07894185184463219  0.7346175125374594  1.0000
  H   H526      1.0  0.4368483913112752  0.07700536584785567  0.7490724346421108  1.0000
  H   H527      1.0  0.45318905472374854  0.11352672882829555  0.7448977812194275  1.0000
  H   H528      1.0  0.43637030451144415  0.09746021255471024  0.781014841623669  1.0000
  N   N29       1.0  0.24016754026593576  0.06651118643604703  0.7395331129389717  1.0000
  C   C401      1.0  0.26645641341033266  0.06693502926462824  0.7370789278459572  1.0000
  C   C402      1.0  0.2174166656829908  0.03797170690847729  0.7378881358785726  1.0000
  C   C403      1.0  0.23764191938988385  0.0822320536868617  0.7131385255660351  1.0000
  C   C404      1.0  0.23906096475535732  0.07883796302884738  0.7700154130734438  1.0000
  H   H529      1.0  0.2690862178605477  0.055349719954754795  0.7567201653263028  1.0000
  H   H530      1.0  0.2841277068609686  0.08811408843756863  0.7376999731080175  1.0000
  H   H531      1.0  0.26767135434251144  0.05722710525255348  0.7145816084077665  1.0000
  H   H532      1.0  0.2188484207013418  0.025227731332215564  0.7570181699801674  1.0000
  H   H533      1.0  0.1971679190048911  0.036756197594646656  0.7394189744981767  1.0000
  H   H534      1.0  0.21749905621138255  0.028187721251196507  0.7151002824777403  1.0000
  H   H535      1.0  0.25439432391813704  0.10389267890392806  0.7133747492802996  1.0000
  H   H536      1.0  0.21792202867180951  0.08214897650453912  0.7141149142123676  1.0000
  H   H537      1.0  0.23823315707083123  0.0733358327091187  0.6897858177740787  1.0000
  H   H538      1.0  0.2559163164995824  0.10039607619473823  0.7720629413702029  1.0000
  H   H539      1.0  0.24081467295923728  0.06734383129278565  0.7904033778733067  1.0000
  H   H540      1.0  0.2194052670242275  0.07875996510388372  0.7724653644267381  1.0000
  N   N30       1.0  0.05208187995087998  0.19733622309401405  0.416525877987683  1.0000
  C   C405      1.0  0.025367396339743165  0.18815548150319977  0.43171515064825006  1.0000
  C   C406      1.0  0.06848049010021051  0.18921924741947618  0.43622295512433745  1.0000
  C   C407      1.0  0.06678259768804407  0.22739134833041758  0.41338970352944826  1.0000
  C   C408      1.0  0.04781180329523815  0.1846379963580344  0.3847773497178606  1.0000
  H   H541      1.0  0.027785100645984384  0.19760511740598752  0.4555920089532921  1.0000
  H   H542      1.0  0.013562164721533376  0.16557856722668074  0.43439611725324195  1.0000
  H   H543      1.0  0.012611076099800833  0.19416780720154306  0.4175756345327908  1.0000
  H   H544      1.0  0.08875775087318649  0.1958005489870081  0.425286506261541  1.0000
  H   H545      1.0  0.07220489517171358  0.19863207397179894  0.4602519479920159  1.0000
  H   H546      1.0  0.05797063554339199  0.1666452170172755  0.4390942708821975  1.0000
  H   H547      1.0  0.08771173960896417  0.23522062923781753  0.40397897314153264  1.0000
  H   H548      1.0  0.06868998045967434  0.23770582405661037  0.43656120953649774  1.0000
  H   H549      1.0  0.05583730522021302  0.2341511597596444  0.3970299785262053  1.0000
  H   H550      1.0  0.0676071285220674  0.19075770774578749  0.37295110024402567  1.0000
  H   H551      1.0  0.03611046038353183  0.19087788500868652  0.36892885503033396  1.0000
  H   H552      1.0  0.0362425460942466  0.16194796675435788  0.38600490026029  1.0000
  N   N31       1.0  0.8932446710203896  0.7545041699964905  0.5363069785066487  1.0000
  C   C409      1.0  0.9081236420084089  0.7393529436746908  0.5325434688646501  1.0000
  C   C410      1.0  0.9085530269488942  0.7777274049011854  0.5583656064545556  1.0000
  C   C411      1.0  0.8657517986519156  0.7359883655416539  0.5491232277695813  1.0000
  C   C412      1.0  0.8905431916914875  0.7648902532968782  0.5051965770045324  1.0000
  H   H553      1.0  0.9106547176891328  0.731409003762797  0.555727306232434  1.0000
  H   H554      1.0  0.9289306772604046  0.752570165445871  0.5227741329359614  1.0000
  H   H555      1.0  0.8970042205582077  0.7214592552584426  0.5164033068875596  1.0000
  H   H556      1.0  0.8972110951360484  0.78871086018746  0.563442894140967  1.0000
  H   H557      1.0  0.9122425512661768  0.7707325997957448  0.5814731612075809  1.0000
  H   H558      1.0  0.9289317654941732  0.792704871360553  0.548822182949461  1.0000
  H   H559      1.0  0.8530810489904884  0.719094298381376  0.5322790047859223  1.0000
  H   H560      1.0  0.8545365271255457  0.7470410856847463  0.5545561340392792  1.0000
  H   H561      1.0  0.867007979532405  0.7263181322638523  0.5714559466433994  1.0000
  H   H562      1.0  0.9108845397505849  0.7789364311138245  0.49476653682078553  1.0000
  H   H563      1.0  0.8792622391290835  0.7762933596264887  0.5072876753306038  1.0000
  H   H564      1.0  0.879220658873971  0.7479089353704509  0.4878961957751094  1.0000
  N   N32       1.0  0.8457740241857606  0.5872144183863559  0.9734474442693065  1.0000
  C   C413      1.0  0.8376162770887301  0.5978284536562177  0.0008118116554383105  1.0000
  C   C414      1.0  0.8756410655467219  0.5984370296019605  0.9741604723635157  1.0000
  C   C415      1.0  0.8380664407436156  0.5955217706801695  0.9437675133794475  1.0000
  C   C416      1.0  0.8318333401416173  0.5570654962814114  0.9749115362173343  1.0000
  H   H565      1.0  0.8151303928826449  0.5896014266277713  0.0009062887492192752  1.0000
  H   H566      1.0  0.8477606651539905  0.6205283406276477  0.0002634053354770849  1.0000
  H   H567      1.0  0.8433147078373611  0.5920995407641418  0.0236155999052279  1.0000
  H   H568      1.0  0.887107139724434  0.6211406440412901  0.9726470499608889  1.0000
  H   H569      1.0  0.8824734505042428  0.5926329674114851  0.9960710011871184  1.0000
  H   H570      1.0  0.8822957671736659  0.5907040367594731  0.9537791225615513  1.0000
  H   H571      1.0  0.8439682922935446  0.5878354432337641  0.922698859807575  1.0000
  H   H572      1.0  0.8483060731462838  0.6181305263893186  0.9416672904870874  1.0000
  H   H573      1.0  0.8155917958091434  0.5871591623600902  0.9421007316485552  1.0000
  H   H574      1.0  0.8387991302830415  0.5485656512143341  0.9555873394262997  1.0000
  H   H575      1.0  0.8092955953801114  0.5476543112780734  0.9720756386357475  1.0000
  H   H576      1.0  0.836064285306716  0.5499833259865315  0.9976659920824541  1.0000
  N   N33       1.0  0.9988062695323429  0.32655089089025446  0.9118357306734449  1.0000
  C   C417      1.0  0.022030675193881688  0.3310281401115927  0.8917648069408425  1.0000
  C   C418      1.0  0.9903138298177371  0.3465279178922348  0.9033027445827813  1.0000
  C   C419      1.0  0.007064697659735941  0.33010360444045445  0.9456035996965074  1.0000
  C   C420      1.0  0.9756646405298641  0.29859367627230193  0.9065871778964095  1.0000
  H   H577      1.0  0.029058362833535245  0.31632841310756704  0.8974727085903016  1.0000
  H   H578      1.0  0.039704567723469975  0.35205092645174607  0.8950938483598977  1.0000
  H   H579      1.0  0.016252684492997993  0.32846427406968026  0.8661465730896484  1.0000
  H   H580      1.0  0.9854480690645145  0.3455880825645623  0.8776428250407892  1.0000
  H   H581      1.0  0.9716496942512787  0.3424850390867013  0.9163757750210371  1.0000
  H   H582      1.0  0.006597654221980331  0.3678319134997976  0.9087454901380139  1.0000
  H   H583      1.0  0.01442521120434126  0.3159646755894935  0.9527346965061375  1.0000
  H   H584      1.0  0.9896365402246524  0.3259765875800008  0.9612999046435429  1.0000
  H   H585      1.0  0.02367995599443229  0.3513553587593012  0.9508890567346716  1.0000
  H   H586      1.0  0.9579160765040812  0.2945917594788853  0.9217035266127012  1.0000
  H   H587      1.0  0.981358198452043  0.28289783805689495  0.9123070708480493  1.0000
  H   H588      1.0  0.9684728763526682  0.2954380395709621  0.881482742063564  1.0000
  N   N34       1.0  0.8645517119734575  0.016469898982317117  0.655383180118536  1.0000
  C   C421      1.0  0.847677325873708  0.017103988302272787  0.6289397435903509  1.0000
  C   C422      1.0  0.8909098917275001  0.04242371306315656  0.6562534435398966  1.0000
  C   C423      1.0  0.8694895906069265  0.9933639475394264  0.6507115637235668  1.0000
  C   C424      1.0  0.850008105830483  0.01291697208186921  0.685589308239093  1.0000
  H   H589      1.0  0.8279852952005752  0.9975542562563479  0.6270223524676927  1.0000
  H   H590      1.0  0.8582550732603534  0.020647151420100252  0.6058213311683704  1.0000
  H   H591      1.0  0.8426404139595758  0.03360703934956212  0.6322871402855776  1.0000
  H   H592      1.0  0.8877976339192791  0.06028241389981711  0.6587661689127131  1.0000
  H   H593      1.0  0.9039101343386248  0.04311835445416999  0.6765075432235725  1.0000
  H   H594      1.0  0.9026669963274739  0.04548874566564952  0.6340812084014907  1.0000
  H   H595      1.0  0.8822426384278818  0.9922958826596325  0.6701832970435011  1.0000
  H   H596      1.0  0.8800597455866189  0.9951058973936128  0.6279268651393871  1.0000
  H   H597      1.0  0.8499104472599933  0.9734771452873507  0.6502154417069251  1.0000
  H   H598      1.0  0.829925193371774  0.9935681172104878  0.6855737118720059  1.0000
  H   H599      1.0  0.8458629724544645  0.029929115967073584  0.6898899591279732  1.0000
  H   H600      1.0  0.8620251541461903  0.012211945102284754  0.7061187898160891  1.0000
  N   N35       1.0  0.7160739725492178  0.7998613999358964  0.5599135419127458  1.0000
  C   C425      1.0  0.7108108448101278  0.7930894012091643  0.5257910937159785  1.0000
  C   C426      1.0  0.74574774446571  0.8175604502931965  0.565420548636778  1.0000
  C   C427      1.0  0.706012342133008  0.7743977962289337  0.5782005863195046  1.0000
  C   C428      1.0  0.7017438030070892  0.8143482717826415  0.570376315710122  1.0000
  H   H601      1.0  0.7205727100016242  0.7812900961761967  0.5175243937481475  1.0000
  H   H602      1.0  0.7190519855869981  0.8117713221249688  0.5109813901686824  1.0000
  H   H603      1.0  0.6885809720564354  0.7802896510120418  0.520618622853062  1.0000
  H   H604      1.0  0.7572451300637816  0.8073897165415493  0.5575075222819906  1.0000
  H   H605      1.0  0.7540283849661193  0.8371123088934611  0.5522989341195953  1.0000
  H   H606      1.0  0.7504459163069058  0.822699675678047  0.5910435692589123  1.0000
  H   H607      1.0  0.7088756382380652  0.7785985736511305  0.6040920224271256  1.0000
  H   H608      1.0  0.7171055624601406  0.7634763303264904  0.5718110494949976  1.0000
  H   H609      1.0  0.6839164480193812  0.760029166895696  0.5738043001118024  1.0000
  H   H610      1.0  0.7087102508812112  0.8336138285735986  0.556992448798825  1.0000
  H   H611      1.0  0.7055932225175945  0.819899816165918  0.596020314351354  1.0000
  H   H612      1.0  0.6792565778892647  0.801457548638859  0.5670500841813242  1.0000
  N   N36       1.0  0.05868799163531761  0.27086742027772415  0.23263189425189884  1.0000
  C   C429      1.0  0.06232175922468114  0.27986052599915917  0.2660974207223741  1.0000
  C   C430      1.0  0.066486046695367  0.29459255955002006  0.21177567085206153  1.0000
  C   C431      1.0  0.029770897129833006  0.2501173159903365  0.2268397197797066  1.0000
  C   C432      1.0  0.07609357764337027  0.2587995371315515  0.2259505922956679  1.0000
  H   H613      1.0  0.04904096914446403  0.28849638426553403  0.2721777093004428  1.0000
  H   H614      1.0  0.08374122505756042  0.29588809675730215  0.271360430779876  1.0000
  H   H615      1.0  0.056908372457562216  0.2625460256417521  0.28246023227997163  1.0000
  H   H616      1.0  0.06358853119412802  0.28857989306285914  0.18629210602790497  1.0000
  H   H617      1.0  0.05391405306892808  0.304305431734346  0.21657641329750005  1.0000
  H   H618      1.0  0.08821682096776348  0.3106491192892746  0.21534865800564362  1.0000
  H   H619      1.0  0.02610651909942669  0.24311962676863005  0.20170666925748135  1.0000
  H   H620      1.0  0.015969998956018812  0.25835044250260025  0.23222487736622535  1.0000
  H   H621      1.0  0.023374366562414612  0.23176519318879352  0.24193176291908738  1.0000
  H   H622      1.0  0.07376117250447031  0.2516480288172859  0.20092301768897272  1.0000
  H   H623      1.0  0.07060961421408603  0.2408291912204048  0.24142255011349842  1.0000
  H   H624      1.0  0.09804607250303808  0.2738225623709256  0.23019914940848318  1.0000
  N   N37       1.0  0.18376178305570073  0.6920035123848188  0.1366837793077429  1.0000
  C   C433      1.0  0.16345494682982994  0.68767354473857  0.1118848641302781  1.0000
  C   C434      1.0  0.16989902698713147  0.6832588895670475  0.1675952076275271  1.0000
  C   C435      1.0  0.20473927085610694  0.7213141329512334  0.13826975343741776  1.0000
  C   C436      1.0  0.19675827811134083  0.6756170997954553  0.12893298197431569  1.0000
  H   H625      1.0  0.15279015426136452  0.699245443782954  0.11729989119548478  1.0000
  H   H626      1.0  0.14760933136352256  0.6656986237951781  0.10971266331542773  1.0000
  H   H627      1.0  0.173178810215863  0.694485186209162  0.0882772460728749  1.0000
  H   H628      1.0  0.18446179495698362  0.6856569242532314  0.18682968555795054  1.0000
  H   H629      1.0  0.16025504268095736  0.6955512870581957  0.17437643898557242  1.0000
  H   H630      1.0  0.1534495189841876  0.661361872050694  0.1669329261717123  1.0000
  H   H631      1.0  0.22062951393462038  0.7253781221910741  0.15648539736257217  1.0000
  H   H632      1.0  0.19555386392198945  0.7341843394220295  0.14437374195174346  1.0000
  H   H633      1.0  0.21528724240160016  0.7288102859777694  0.11515046066158785  1.0000
  H   H634      1.0  0.21222930070615278  0.6783161436724584  0.14713056426865823  1.0000
  H   H635      1.0  0.20725756053954963  0.681573988036712  0.10562877977746354  1.0000
  H   H636      1.0  0.18131218247529296  0.6533863719956944  0.12763627283890422  1.0000
  N   N38       1.0  0.051801016951345646  0.8083770655377832  0.47250631576508517  1.0000
  C   C437      1.0  0.06347226399834871  0.792123051436242  0.4594924578699372  1.0000
  C   C438      1.0  0.06983890694375905  0.8374670934497609  0.46455773200094214  1.0000
  C   C439      1.0  0.049420273502180256  0.8051718592469681  0.5073131475649911  1.0000
  C   C440      1.0  0.02446240166636593  0.7987472321323354  0.4584935762120589  1.0000
  H   H637      1.0  0.050040396194311665  0.7700004448958192  0.46415012058652877  1.0000
  H   H638      1.0  0.0838758255586185  0.7984393817841741  0.46997363254469865  1.0000
  H   H639      1.0  0.06598400088033363  0.7944259896012063  0.43334024681932487  1.0000
  H   H640      1.0  0.06168390238027621  0.8503710492435426  0.47395345806154504  1.0000
  H   H641      1.0  0.09077351441572334  0.8453660055135147  0.4743301779882613  1.0000
  H   H642      1.0  0.0717709547042027  0.8404533371612769  0.4383736557053593  1.0000
  H   H643      1.0  0.04035883209717772  0.8168487552435072  0.5179739193366356  1.0000
  H   H644      1.0  0.06963173363724406  0.8122400735011993  0.5187996272439739  1.0000
  H   H645      1.0  0.03607849835382271  0.7833927426518965  0.5140197698240159  1.0000
  H   H646      1.0  0.015203519904618545  0.8108597267503899  0.4672189679256096  1.0000
  H   H647      1.0  0.010117316444631985  0.7769776118620625  0.46422337970143307  1.0000
  H   H648      1.0  0.025551003848095943  0.8004504687314719  0.43222949388660303  1.0000
  N   N39       1.0  0.7993351359862293  0.30310144631260205  0.8471623693639511  1.0000
  C   C441      1.0  0.8117357351346415  0.3064851061549303  0.8789118176819055  1.0000
  C   C442      1.0  0.819108504691391  0.3054900709823446  0.8228004872490021  1.0000
  C   C443      1.0  0.7922014552076194  0.3246750073385789  0.8422737915786255  1.0000
  C   C444      1.0  0.7745332793755264  0.27585265176512974  0.8447457568168393  1.0000
  H   H649      1.0  0.7971983167254706  0.30399271816827855  0.8980375521561529  1.0000
  H   H650      1.0  0.8300455156269209  0.32717621623418564  0.8818029881705722  1.0000
  H   H651      1.0  0.8183227765704878  0.2911827542690118  0.882968651272403  1.0000
  H   H652      1.0  0.8249982701463812  0.2895272599349742  0.8258591460091823  1.0000
  H   H653      1.0  0.8105578047629507  0.3031526107795334  0.7984855139082216  1.0000
  H   H654      1.0  0.8381657274499126  0.3257824340883518  0.8241284437893971  1.0000
  H   H655      1.0  0.7828747634389069  0.3229034050604211  0.8184988996698263  1.0000
  H   H656      1.0  0.8107311555377725  0.34542991239112036  0.8439824510445746  1.0000
  H   H657      1.0  0.7775029105634126  0.32366266887248213  0.8604298628885756  1.0000
  H   H658      1.0  0.7593555265808706  0.2730193479302114  0.8632310566822854  1.0000
  H   H659      1.0  0.7795548606493219  0.25927307907199726  0.8479202935724743  1.0000
  H   H660      1.0  0.7644462122922778  0.2726336044153704  0.8211921457473481  1.0000
  N   N40       1.0  0.8554318549276304  0.8438387059078684  0.29622776262741146  1.0000
  C   C445      1.0  0.8307705742805624  0.8177574989004561  0.28766227407666256  1.0000
  C   C446      1.0  0.8568034820514209  0.865911458082126  0.27623733330216926  1.0000
  C   C447      1.0  0.880001553551403  0.8414063979687386  0.29110103369877177  1.0000
  C   C448      1.0  0.8540244475777247  0.8502863142154772  0.3299121727821668  1.0000
  H   H661      1.0  0.8287176763567061  0.800669396401451  0.3026272044278624  1.0000
  H   H662      1.0  0.8312550103944062  0.8119835812511279  0.26255112612568604  1.0000
  H   H663      1.0  0.8119296341172367  0.8190817343374015  0.29081301473568344  1.0000
  H   H664      1.0  0.8576055948461563  0.8616507921118545  0.2506204582889902  1.0000
  H   H665      1.0  0.8385288218315082  0.8682638414787807  0.27977163862500953  1.0000
  H   H666      1.0  0.8751686615455635  0.8859298074376641  0.2820046734497859  1.0000
  H   H667      1.0  0.899026705163159  0.8605508639244028  0.29779332176732465  1.0000
  H   H668      1.0  0.881838646447487  0.8367634497822384  0.2658802472520632  1.0000
  H   H669      1.0  0.8793788864369256  0.8246419358662754  0.3055027343400962  1.0000
  H   H670      1.0  0.8722290292213544  0.8699152089700383  0.3371903394039579  1.0000
  H   H671      1.0  0.8529814816643808  0.8341009716959479  0.3457590359419435  1.0000
  H   H672      1.0  0.8356017605099073  0.8521432809065935  0.3345670289256968  1.0000
  N   N41       1.0  0.8937309372342666  0.18701839201068482  0.7350024075287727  1.0000
  C   C449      1.0  0.8832889347244631  0.1612346026913699  0.716882996902294  1.0000
  C   C450      1.0  0.8796524737027577  0.18143320762733423  0.7658269836969348  1.0000
  C   C451      1.0  0.8886224482946012  0.20634461403109444  0.7168400218501741  1.0000
  C   C452      1.0  0.9234192291915408  0.1990976624249794  0.7404408346779638  1.0000
  H   H673      1.0  0.8935002775011733  0.16472450110214779  0.6934733454891454  1.0000
  H   H674      1.0  0.8609219996395345  0.15136355252853198  0.7123374391934458  1.0000
  H   H675      1.0  0.887099930776122  0.14626869382559748  0.7297214005408748  1.0000
  H   H676      1.0  0.8870140579679501  0.20053301658054026  0.7800361165577948  1.0000
  H   H677      1.0  0.8571731403338113  0.17220604768511696  0.7626293110514566  1.0000
  H   H678      1.0  0.8832133924372911  0.16698827131296665  0.7801575120965071  1.0000
  H   H679      1.0  0.8991007969774415  0.21107847024801454  0.6934901216522742  1.0000
  H   H680      1.0  0.8964331608479483  0.22609983577908038  0.7297523368192241  1.0000
  H   H681      1.0  0.8664354354003044  0.1979433137461222  0.7122602655745817  1.0000
  H   H682      1.0  0.9319590599460503  0.2183357840928237  0.754592253643615  1.0000
  H   H683      1.0  0.9346823854409829  0.20430111385908556  0.7176888269959993  1.0000
  H   H684      1.0  0.9282118997544095  0.1847034075919802  0.7530370679584779  1.0000
  N   N42       1.0  0.36849194364451876  0.2242575612657727  0.8062690592982255  1.0000
  C   C453      1.0  0.3681337434612046  0.22773635586678515  0.77159229397544  1.0000
  C   C454      1.0  0.36706513559960174  0.19795788738605108  0.8132619833832168  1.0000
  C   C455      1.0  0.3447926098800461  0.22456112595739897  0.8205476580954945  1.0000
  C   C456      1.0  0.3940214114895221  0.24685899404251385  0.8197562274288893  1.0000
  H   H685      1.0  0.3691241776089803  0.24741621340712375  0.7656336367866465  1.0000
  H   H686      1.0  0.34911326286557365  0.21113099820478845  0.760548634286314  1.0000
  H   H687      1.0  0.3858502390362789  0.227854507710067  0.7600381101109975  1.0000
  H   H688      1.0  0.36721613584903695  0.194734125973405  0.8392632075335862  1.0000
  H   H689      1.0  0.3481325299470817  0.18038489120484455  0.803360430711089  1.0000
  H   H690      1.0  0.3848308634353347  0.19713769561552708  0.8032230481222242  1.0000
  H   H691      1.0  0.3251523707852302  0.20800207960278386  0.8106650316097606  1.0000
  H   H692      1.0  0.3453820386372616  0.24424729456707392  0.815963864243988  1.0000
  H   H693      1.0  0.3443691078926321  0.2219370616416176  0.8467187482881532  1.0000
  H   H694      1.0  0.39444034292818164  0.24554879638340554  0.8459937872151353  1.0000
  H   H695      1.0  0.3963006256581502  0.26706237723144804  0.8139402838675385  1.0000
  H   H696      1.0  0.4123715045695859  0.24669738384571302  0.8106111803529885  1.0000
  N   N43       1.0  0.3139328590162252  0.9754095052322388  0.8562922799040825  1.0000
  C   C457      1.0  0.34176521461001036  0.9906222363505535  0.8430221075647047  1.0000
  C   C458      1.0  0.3116501324773381  0.9530364280791921  0.8764807073184426  1.0000
  C   C459      1.0  0.2937822175873411  0.9639114553302894  0.8301020679501381  1.0000
  C   C460      1.0  0.30857729026533376  0.9940953617804967  0.8755996916199511  1.0000
  H   H697      1.0  0.34447887244737807  0.008032039795207575  0.8281995333727339  1.0000
  H   H698      1.0  0.3464184502371967  0.9773236513263281  0.8279048637566938  1.0000
  H   H699      1.0  0.3574984750365764  0.9991710910903857  0.862123559058101  1.0000
  H   H700      1.0  0.32652458691310676  0.9611148723307756  0.8965821001816117  1.0000
  H   H701      1.0  0.2909243496830322  0.9411063881584814  0.8869532578277418  1.0000
  H   H702      1.0  0.3158388450899314  0.9386547677728052  0.862854689633631  1.0000
  H   H703      1.0  0.2952003705596447  0.9802653178631688  0.8142346192566209  1.0000
  H   H704      1.0  0.27250177328069614  0.9525128852719673  0.8391707486833563  1.0000
  H   H705      1.0  0.2971438406777207  0.9496119540536688  0.8151354474830689  1.0000
  H   H706      1.0  0.2878551149362626  0.9832716017925476  0.8862495529105426  1.0000
  H   H707      1.0  0.3100976729819744  0.011242253274995374  0.8611979489460252  1.0000
  H   H708      1.0  0.3235364228760022  0.0032374734087125974  0.8955054465880837  1.0000
  N   N44       1.0  0.09041541018883412  0.7563268845720885  0.19023100664627166  1.0000
  C   C461      1.0  0.07204257855685443  0.7409464914277102  0.1635515504221724  1.0000
  C   C462      1.0  0.11317584402230377  0.7823767871907847  0.17844025543172504  1.0000
  C   C463      1.0  0.10147858971598891  0.7399577580121507  0.2044286760962373  1.0000
  C   C464      1.0  0.0749524794803141  0.7619444390231852  0.21439402209054445  1.0000
  H   H709      1.0  0.05533737268424136  0.7205953374094696  0.17127663585026573  1.0000
  H   H710      1.0  0.08336551106689166  0.7373776553390832  0.14433725688256027  1.0000
  H   H711      1.0  0.062451498960236294  0.7521433157968687  0.15297029123139755  1.0000
  H   H712      1.0  0.1275993376076646  0.7945206280531256  0.19786002381719947  1.0000
  H   H713      1.0  0.12513908148707661  0.7787376325913431  0.16005809167490517  1.0000
  H   H714      1.0  0.1055934529852637  0.7952194376128111  0.16743363734227207  1.0000
  H   H715      1.0  0.11579688450715564  0.7510589592283629  0.22431699355386953  1.0000
  H   H716      1.0  0.11275090152641828  0.7348479893747919  0.18663374884004014  1.0000
  H   H717      1.0  0.08489842178083394  0.7202806609140546  0.21388079158984571  1.0000
  H   H718      1.0  0.08802534681095357  0.7731079164095322  0.23518465139943143  1.0000
  H   H719      1.0  0.05734438085673771  0.7426797903592322  0.22327940877990213  1.0000
  H   H720      1.0  0.06653685666081365  0.7745075949651727  0.2046171148190499  1.0000
  N   N45       1.0  0.2848522499092176  0.9558890903502774  0.35586375668589837  1.0000
  C   C465      1.0  0.2901980440772513  0.9390501754138607  0.3782710367901368  1.0000
  C   C466      1.0  0.29860862506019925  0.9578994865357517  0.3254129897056024  1.0000
  C   C467      1.0  0.2952243839880289  0.9835210057351401  0.3694293476768259  1.0000
  C   C468      1.0  0.2551454393546488  0.943071141803727  0.35037868498135233  1.0000
  H   H721      1.0  0.28245912670888135  0.9180184307093257  0.36876860981601195  1.0000
  H   H722      1.0  0.2799305525270931  0.9371691561385327  0.4014047093960092  1.0000
  H   H723      1.0  0.31244456093472456  0.948105157837043  0.38307761365850546  1.0000
  H   H724      1.0  0.295128011162852  0.970741874673563  0.3081323030545616  1.0000
  H   H725      1.0  0.32106248622936884  0.9671536703366901  0.32857333925256005  1.0000
  H   H726      1.0  0.29075772689560814  0.9374622093525535  0.3140518276800221  1.0000
  H   H727      1.0  0.29207885800452665  0.9969013170156354  0.3526827579692445  1.0000
  H   H728      1.0  0.31746317846045974  0.9936194984738299  0.37481025793249  1.0000
  H   H729      1.0  0.2844580299962367  0.9827828603631664  0.39185371540702607  1.0000
  H   H730      1.0  0.2504781584659012  0.9553525839967674  0.3336209202025256  1.0000
  H   H731      1.0  0.24405997484084502  0.9412527021095052  0.3728426458840988  1.0000
  H   H732      1.0  0.24646188794025395  0.9221942900762103  0.3400458586754792  1.0000
  N   N46       1.0  0.7468749587530871  0.6290605801794564  0.7877247760837274  1.0000
  C   C469      1.0  0.7493991494565104  0.655993543441655  0.7818957941868933  1.0000
  C   C470      1.0  0.7190147838883832  0.6097604418262329  0.7989409895181487  1.0000
  C   C471      1.0  0.76697887893212  0.631847079490546  0.8120819522607798  1.0000
  C   C472      1.0  0.7520838726239996  0.6185583587616632  0.7580004226065029  1.0000
  H   H733      1.0  0.7453432298340695  0.664407448477106  0.8037901703112199  1.0000
  H   H734      1.0  0.7345963549105992  0.6545941950298656  0.7634620795619441  1.0000
  H   H735      1.0  0.770201628688463  0.6711744209191433  0.7735507464885791  1.0000
  H   H736      1.0  0.7032255870812798  0.6067483162658386  0.7810476218279644  1.0000
  H   H737      1.0  0.7166104808390149  0.5893943817313084  0.8043266632231223  1.0000
  H   H738      1.0  0.7142617062869645  0.6172298643452244  0.8211334344575392  1.0000
  H   H739      1.0  0.7882369780230924  0.6468586557990353  0.8050107186137773  1.0000
  H   H740      1.0  0.7660440928608917  0.6119596895919093  0.8162860313502673  1.0000
  H   H741      1.0  0.7629077350188498  0.6385589874788021  0.8352892846195294  1.0000
  H   H742      1.0  0.7502167386527979  0.5981750989822829  0.7615783813428552  1.0000
  H   H743      1.0  0.7730208889693407  0.6325752513742321  0.7489887063216194  1.0000
  H   H744      1.0  0.7373122018764862  0.6163160492708041  0.739065411131678  1.0000
  N   N47       1.0  0.5106521720295515  0.3491818670528482  0.9148589686315385  1.0000
  C   C473      1.0  0.49068609422651716  0.3406056162622385  0.940926251022841  1.0000
  C   C474      1.0  0.5238791725648714  0.33228795628164737  0.9150988997305226  1.0000
  C   C475      1.0  0.5314913673405546  0.3783327274879021  0.9190144464195893  1.0000
  C   C476      1.0  0.49634058460662545  0.34538868390508637  0.884301132624412  1.0000
  H   H745      1.0  0.4808196340001347  0.35341876128905203  0.9418493843624844  1.0000
  H   H746      1.0  0.500577194334174  0.3424535904003994  0.964353248597515  1.0000
  H   H747      1.0  0.4741471198209069  0.3188977951997036  0.9379339574719863  1.0000
  H   H748      1.0  0.5389208176262951  0.33805778844018575  0.8955561571931028  1.0000
  H   H749      1.0  0.5349132076341532  0.33459090213948106  0.9378209530314167  1.0000
  H   H750      1.0  0.508497303404201  0.3101662273737813  0.9120786240668206  1.0000
  H   H751      1.0  0.5466146089296287  0.3857176754359186  0.8994040580030481  1.0000
  H   H752      1.0  0.5429399368454169  0.38198762097073624  0.9416985950971323  1.0000
  H   H753      1.0  0.5219840856484727  0.39150346756268783  0.9192446149566659  1.0000
  H   H754      1.0  0.5107736839643713  0.35223431052030785  0.8640469132699031  1.0000
  H   H755      1.0  0.4855189466808721  0.35727324106622715  0.883668154390282  1.0000
  H   H756      1.0  0.4808484422804675  0.3235149840259888  0.8801175770095954  1.0000
  N   N48       1.0  0.00839621517708311  0.40579766195687417  0.20381340980790563  1.0000
  C   C477      1.0  0.9935490979389581  0.37969395136443795  0.22109120148330763  1.0000
  C   C478      1.0  0.9981450960530445  0.4017925241370852  0.17083398636043912  1.0000
  C   C479      1.0  0.03784540579914686  0.4149270370740868  0.2036621020520133  1.0000
  C   C480      1.0  0.004248383746158879  0.42685489770130786  0.21947853166086384  1.0000
  H   H757      1.0  0.0013420746694694508  0.3816392141296853  0.24578808923337456  1.0000
  H   H758      1.0  0.9959499132403535  0.3633625699012801  0.20924514166825606  1.0000
  H   H759      1.0  0.9712841135630199  0.37235706790782835  0.22218743171524516  1.0000
  H   H760      1.0  0.009297454717328568  0.4210239859107215  0.1569464884522978  1.0000
  H   H761      1.0  0.0008386518345007143  0.38584042402574326  0.1584229278024786  1.0000
  H   H762      1.0  0.9760233922668599  0.3951396993941841  0.1698760551662386  1.0000
  H   H763      1.0  0.04976991730556368  0.434786824473458  0.19121118410897656  1.0000
  H   H764      1.0  0.0417160832020671  0.39984547246958013  0.19127009130926345  1.0000
  H   H765      1.0  0.046316815043059734  0.4175657846848577  0.22807892226770993  1.0000
  H   H766      1.0  0.015448543295493389  0.4467649010573739  0.206828124176809  1.0000
  H   H767      1.0  0.011891750014528801  0.4304472409444788  0.24437254574766026  1.0000
  H   H768      1.0  0.9822584282892948  0.4208046703410221  0.2198919293775969  1.0000
