data_image0
_chemical_formula_structural       NC2HFeS2FeS2FeS2FeSFeS3FeS2H2CHCHC7H4CH5CH3C6H11SNH4SH2NCH2SHC5HCH3C5H2CHNH3C4H3FeSH2CH2FeHCH3C2HCH3CH2CSHCH5SH3S2HSHFeS2FeS2FeSFeS3FeS2H2SCH2CHC6H4CH4C3H2C6H4CFe2H3CHCH4CNCH2CHFeHC2H3CHSHNC4H14CNC3H3SH2CNH2NC4H6CH3CH2CH3CHCHCH3FeSFeS2FeSFeS3H2SNHSHFeS2FeS2FeS2FeSFeS3H4FeS3H2C6H4C2H2SC6H5C7H3C4HCH3CHNHC6HCH2CNCH5SHFeCSH6C2NC4H12NC4H12C2H3FeHC2H5CFeC2H2CNHSHC2H2CHCH6CH2NHCH3C3HSH4FeH2FeCSH2SFeS2FeS2FeSFeS2FeS2HFeS2FeS2FeSFeS3HCH2FeS2H3C6H4NCH3C6H4C4HCH3CH5C5H3FeC6H3NCH2C2NHCH4CHSH3C4HNC4H12CH6C2HCHSCNCHSCFeSH3CSH5CH3CH2C2HNHCH4NHC2SH2SHFeCSHCH5CH2CH2FeS2FeS2FeSFeS3HFeS2FeS2FeSFeS3FeCSH2SH3CHC6H4C6H4C6H5C2H2CHCH2C2H3NC4H12CHCH4CHNH2CHC3NCHCNH3CSNH4CH2CH2CH3CH3C3H4CH3C2FeS2FeS2FeSFeS4FeS2FeS2FeSFeS3FeCSH2S2H2C7H4C6H4C6H10CH2CH2CH2CHCNC4H12NHC2HC5HNCNC3H2C2H3CH5NC4H9CH9CHC2H5SCHSCFeH5CH4SC2H3CH3FeHSC2H2NSCHSHCHCH2CH5S2FeHCFeSH4CHC2H5CH4CH2C3H2CFeS2H2FeS2CSCFeSH2FeS2FeS2FeSFeS3C6H6NSHC6H4C6H4FeC6H4C6H3SHC2SHCSH2NCNC4H12CHCH2NHCSH2FeCHFeCH9C3H2CH2NH2FeH4C2HS2HFeSFeS2H3FeS2H2SHFeS2FeS2FeSFeS3HSHFeSHC6H4SC6H4FeH3C6H2SH2C7H4C6H2CHS2H6NFeH2FeCH4CH2SFeCNC4H12NC4H4C2HC4H5SCH4FeNH3CHFeHSFeS2CHSFeCFeSHSHSH2C6H7SHCNC4H10CH2CHSH2C2HFeS2FeS2HCH2CHSH2C7H4FeCH4NH2SCHSH2CH2CH5NSHC3HC2H5C2H6CHFeCS2CH3FeS2H6CH2C7H4CNC2HFeNC4H4SH2CH3SH9CFeHSFeS2CHCHNFeS2HSH2NHCHCHC8H4C2H2C2H4C2HFeCH3CHNH5SH5SH2CH4FeS2FeS2FeSFeS3FeCSH2SCHCS2FeS2FeCH4C6H4CHCHSC3H5C4H6C6H4C6H4NCH2CHSH2CFeCSHCH2FeC3HFeNCHC2H6FeH3CHNHCH6SCH2CHS2NC4H2CH5C2H2CHCH3FeHSC2SCFeS2FeS2FeSFeS3HCFeS2CSHFeS2H2C6H5C7H4CHSH2C6H4CH2C3H3C6H4C2H2CH2NHCH2NHNCHCHNC4H16SH6CFe2CH2CHNH6C2H3CHC2HCHSHSH4C2H3FeNH2FeH2CSCH3CHC2FeCH5SNH2C2HSH3CSH2SCFeHSHCHSC3H5Fe2SCH2CHNFeS2FeS2FeSFeS3CSHFeSHFeS2FeS2FeSFeS3NCHC6H6C2FeCHC6H7C8H3CH2SHCHCHCHNH8NCSCH2C2H5CHNHCH3CHSHCSCH2CH5CH4FeH2CHCH2C2H3C3H2FeS2FeS2FeSFeS3HSHFeSHFeS2FeS2FeSFeS3HC3NC6H4CH5CH2CHC6H4CFeHCH3CHC4H4CNH2SHC2HNC2HC3H4CHC2H3C3H3CH5C2H3C2H4NHSCHC2HCHSH5SCH4C2H7SCFeS2FeHSHFeS2FeS2FeSFeS3HSCFeSHFeS2FeSFeSFeHS2HCH3C6H4C6H3C3H2C6H4CNC4H5C6H11CSN2C2H6NC4H6CH5CH5CH3FeC2H2CNH2CHSHCH2C2H3SCH3CNCH2C2H2SHCH9NFeCH2SHSFeCSH3FeS2HFeS2FeS2FeSFeS3FeS2FeSFeHFeS3FeHSH2SC6H7C2H3CH2CHC2H2C6H4C2HC3H3SHC7H4FeHNC2SH2CNC4H12NC4H8SCSHCH4CH2CHNH3SC2HCHCH2C2H3SHCHCH3CFeHCHCHCN2HC2NCH4CH6CHC2H6CSH2SHFeSH2S2CHFeS2FeS2FeSFeS3C3HC7H4CH2C6H7NCH2CHCH2FeH4C2H2C2H2CH2C2H4CH6NHNC4H18C4HCH2SCSCH2FeS2CH3S2FeS2FeS2FeSFeS3H5C6H4FeH2C6H10CHCN2CHC2H2CH6CHCHC3H2CH2CH3CHCHCH3NSCH4CHC2H3CSH2NCH2SCH5CHCHCFeCNH7NCH2CH2FeC3H2FeNC3H2NH5C
_chemical_formula_sum              "N96 C960 H1536 Fe192 S384"
_cell_length_a       55.6455
_cell_length_b       55.4139
_cell_length_c       81.8534
_cell_angle_alpha    91.1397
_cell_angle_beta     90.7321
_cell_angle_gamma    117.574

_space_group_name_H-M_alt    "P 1"
_space_group_IT_number       1

loop_
  _space_group_symop_operation_xyz
  'x, y, z'

loop_
  _atom_site_type_symbol
  _atom_site_label
  _atom_site_symmetry_multiplicity
  _atom_site_fract_x
  _atom_site_fract_y
  _atom_site_fract_z
  _atom_site_occupancy
  N   N1        1.0  0.07239  0.18712  0.20339  1.0000
  C   C1        1.0  0.21101  0.15664  0.21829  1.0000
  C   C2        1.0  0.27482  0.01571  0.24369  1.0000
  H   H1        1.0  0.03862  0.15425  0.21466  1.0000
  Fe  Fe1       1.0  0.24883  0.03808  0.18349  1.0000
  S   S1        1.0  0.27091  0.08416  0.18112  1.0000
  S   S2        1.0  0.01678  0.24204  0.15010  1.0000
  Fe  Fe2       1.0  0.26907  0.26221  0.16036  1.0000
  S   S3        1.0  0.22467  0.23237  0.15742  1.0000
  S   S4        1.0  0.28740  0.28232  0.13632  1.0000
  Fe  Fe3       1.0  0.26889  0.25143  0.19716  1.0000
  S   S5        1.0  0.22458  0.22191  0.19647  1.0000
  S   S6        1.0  0.29176  0.25841  0.22145  1.0000
  Fe  Fe4       1.0  0.23384  0.20506  0.17359  1.0000
  S   S7        1.0  0.21309  0.15886  0.17071  1.0000
  Fe  Fe5       1.0  0.22012  0.25195  0.18055  1.0000
  S   S8        1.0  0.19111  0.26919  0.18494  1.0000
  S   S9        1.0  0.27860  0.23310  0.17488  1.0000
  S   S10       1.0  0.26396  0.28314  0.18283  1.0000
  Fe  Fe6       1.0  0.04552  0.23149  0.16417  1.0000
  S   S11       1.0  0.06105  0.26798  0.18120  1.0000
  S   S12       1.0  0.07323  0.21627  0.15302  1.0000
  H   H2        1.0  0.25512  0.30894  0.15065  1.0000
  H   H3        1.0  0.29121  0.09509  0.11880  1.0000
  C   C3        1.0  0.30022  0.32409  0.11508  1.0000
  H   H4        1.0  0.28038  0.05059  0.10483  1.0000
  C   C4        1.0  0.02518  0.22874  0.25555  1.0000
  H   H5        1.0  0.08387  0.18121  0.17923  1.0000
  C   C5        1.0  0.28155  0.24796  0.25412  1.0000
  C   C6        1.0  0.15942  0.25491  0.17474  1.0000
  C   C7        1.0  0.14914  0.22994  0.16613  1.0000
  C   C8        1.0  0.12303  0.21868  0.15883  1.0000
  C   C9        1.0  0.10721  0.23230  0.16019  1.0000
  C   C10       1.0  0.11823  0.25789  0.16804  1.0000
  C   C11       1.0  0.14411  0.26903  0.17544  1.0000
  H   H6        1.0  0.16100  0.21906  0.16540  1.0000
  H   H7        1.0  0.11479  0.19903  0.15252  1.0000
  H   H8        1.0  0.10682  0.26913  0.16851  1.0000
  H   H9        1.0  0.15218  0.28858  0.18186  1.0000
  C   C12       1.0  0.30027  0.31717  0.13152  1.0000
  H   H10       1.0  0.05178  0.18656  0.22557  1.0000
  H   H11       1.0  0.35746  0.31162  0.09197  1.0000
  H   H12       1.0  0.02925  0.27994  0.23168  1.0000
  H   H13       1.0  0.24575  0.02690  0.13435  1.0000
  H   H14       1.0  0.25360  0.18002  0.19933  1.0000
  C   C13       1.0  0.27171  0.25173  0.23898  1.0000
  H   H15       1.0  0.27595  0.02768  0.23317  1.0000
  H   H16       1.0  0.27961  0.18962  0.21498  1.0000
  H   H17       1.0  0.08709  0.22754  0.21397  1.0000
  C   C14       1.0  0.25441  0.10438  0.17766  1.0000
  C   C15       1.0  0.27019  0.13266  0.17623  1.0000
  C   C16       1.0  0.25788  0.14955  0.17375  1.0000
  C   C17       1.0  0.22960  0.13830  0.17278  1.0000
  C   C18       1.0  0.21384  0.10998  0.17403  1.0000
  C   C19       1.0  0.22616  0.09307  0.17649  1.0000
  H   H18       1.0  0.29207  0.14156  0.17704  1.0000
  H   H19       1.0  0.27029  0.17126  0.17257  1.0000
  H   H20       1.0  0.19195  0.10106  0.17321  1.0000
  H   H21       1.0  0.21378  0.07131  0.17751  1.0000
  H   H22       1.0  0.08521  0.15898  0.21298  1.0000
  H   H23       1.0  0.05706  0.15127  0.18762  1.0000
  H   H24       1.0  0.26385  0.14221  0.22262  1.0000
  H   H25       1.0  0.24717  0.05507  0.12331  1.0000
  H   H26       1.0  0.25364  0.05850  0.14503  1.0000
  H   H27       1.0  0.23305  0.31900  0.16139  1.0000
  H   H28       1.0  0.18043  0.27832  0.14399  1.0000
  S   S13       1.0  0.04075  0.32048  0.16102  1.0000
  N   N2        1.0  0.28604  0.05889  0.13079  1.0000
  H   H29       1.0  0.31143  0.33302  0.15620  1.0000
  H   H30       1.0  0.32009  0.05837  0.14326  1.0000
  H   H31       1.0  0.20611  0.15010  0.20518  1.0000
  H   H32       1.0  0.32191  0.09667  0.12728  1.0000
  S   S14       1.0  0.22634  0.01381  0.20505  1.0000
  H   H33       1.0  0.26607  0.17695  0.24376  1.0000
  H   H34       1.0  0.11180  0.18893  0.20442  1.0000
  N   N3        1.0  0.23916  0.16279  0.22270  1.0000
  C   C20       1.0  0.24577  0.24971  0.23793  1.0000
  H   H35       1.0  0.24188  0.18977  0.24270  1.0000
  H   H36       1.0  0.29577  0.06103  0.15645  1.0000
  S   S15       1.0  0.03570  0.23162  0.22301  1.0000
  H   H37       1.0  0.23102  0.15513  0.24822  1.0000
  C   C21       1.0  0.39797  0.03284  0.01610  1.0000
  C   C22       1.0  0.25817  0.18501  0.21258  1.0000
  C   C23       1.0  0.08351  0.21688  0.20183  1.0000
  C   C24       1.0  0.35560  0.33070  0.09328  1.0000
  C   C25       1.0  0.23588  0.33267  0.12967  1.0000
  H   H38       1.0  0.23825  0.25333  0.22649  1.0000
  C   C26       1.0  0.05264  0.31763  0.12839  1.0000
  H   H39       1.0  0.04864  0.29691  0.13050  1.0000
  H   H40       1.0  0.21049  0.26377  0.12970  1.0000
  H   H41       1.0  0.02573  0.20950  0.25474  1.0000
  C   C27       1.0  0.06567  0.17376  0.18697  1.0000
  C   C28       1.0  0.04760  0.17663  0.21318  1.0000
  C   C29       1.0  0.02806  0.24359  0.24138  1.0000
  C   C30       1.0  0.29982  0.08879  0.12924  1.0000
  C   C31       1.0  0.28930  0.04565  0.11571  1.0000
  H   H42       1.0  0.05053  0.17806  0.18033  1.0000
  H   H43       1.0  0.29753  0.09913  0.14052  1.0000
  C   C32       1.0  0.05903  0.32820  0.11262  1.0000
  H   H44       1.0  0.41291  0.04851  0.02411  1.0000
  N   N4        1.0  0.22077  0.30523  0.13641  1.0000
  H   H45       1.0  0.22300  0.28378  0.15733  1.0000
  H   H46       1.0  0.25750  0.33787  0.12769  1.0000
  H   H47       1.0  0.06935  0.22203  0.19480  1.0000
  C   C33       1.0  0.09287  0.18126  0.21157  1.0000
  C   C34       1.0  0.24477  0.17145  0.24013  1.0000
  C   C35       1.0  0.25688  0.04947  0.13349  1.0000
  C   C36       1.0  0.05096  0.33370  0.14127  1.0000
  H   H48       1.0  0.24244  0.28859  0.12249  1.0000
  H   H49       1.0  0.09851  0.19122  0.22395  1.0000
  H   H50       1.0  0.19104  0.31362  0.14829  1.0000
  Fe  Fe7       1.0  0.02727  0.24146  0.19742  1.0000
  S   S16       1.0  0.27502  0.01701  0.18105  1.0000
  H   H51       1.0  0.29165  0.30809  0.10574  1.0000
  H   H52       1.0  0.03179  0.18082  0.20733  1.0000
  C   C37       1.0  0.24270  0.13822  0.21976  1.0000
  H   H53       1.0  0.10307  0.22570  0.19538  1.0000
  H   H54       1.0  0.22876  0.12099  0.22723  1.0000
  Fe  Fe8       1.0  0.03050  0.27718  0.16818  1.0000
  H   H55       1.0  0.05975  0.31538  0.10269  1.0000
  C   C38       1.0  0.19232  0.29913  0.13915  1.0000
  H   H56       1.0  0.20773  0.17485  0.22019  1.0000
  H   H57       1.0  0.31103  0.05199  0.11336  1.0000
  H   H58       1.0  0.21162  0.28460  0.11285  1.0000
  C   C39       1.0  0.22131  0.28467  0.12483  1.0000
  C   C40       1.0  0.22965  0.24370  0.25179  1.0000
  H   H59       1.0  0.25683  0.20407  0.21508  1.0000
  C   C41       1.0  0.29809  0.05159  0.14482  1.0000
  H   H60       1.0  0.19604  0.13998  0.22569  1.0000
  H   H61       1.0  0.18199  0.30007  0.12765  1.0000
  H   H62       1.0  0.23835  0.13117  0.20672  1.0000
  C   C42       1.0  0.23360  0.30430  0.15212  1.0000
  H   H63       1.0  0.28821  0.02915  0.14630  1.0000
  H   H64       1.0  0.38262  0.32974  0.06663  1.0000
  C   C43       1.0  0.31114  0.33801  0.14351  1.0000
  S   S17       1.0  0.21747  0.01044  0.16517  1.0000
  H   H65       1.0  0.20962  0.24228  0.25081  1.0000
  C   C44       1.0  0.02690  0.26825  0.24251  1.0000
  H   H66       1.0  0.33623  0.32705  0.08709  1.0000
  H   H67       1.0  0.35375  0.33420  0.10657  1.0000
  H   H68       1.0  0.30162  0.24947  0.25500  1.0000
  H   H69       1.0  0.27896  0.02302  0.11660  1.0000
  H   H70       1.0  0.22704  0.33414  0.11769  1.0000
  S   S18       1.0  0.01343  0.20417  0.18103  1.0000
  H   H71       1.0  0.40751  0.34009  0.09370  1.0000
  H   H72       1.0  0.49539  0.04995  0.00743  1.0000
  H   H73       1.0  0.21048  0.32945  0.40743  1.0000
  S   S19       1.0  0.26096  0.02757  0.33653  1.0000
  S   S20       1.0  0.19873  0.04594  0.33158  1.0000
  H   H74       1.0  0.24539  0.07737  0.28540  1.0000
  S   S21       1.0  0.28819  0.02823  0.29273  1.0000
  H   H75       1.0  0.02322  0.29758  0.25873  1.0000
  Fe  Fe9       1.0  0.26345  0.26455  0.33985  1.0000
  S   S22       1.0  0.24402  0.22936  0.35651  1.0000
  S   S23       1.0  0.29532  0.30774  0.34682  1.0000
  Fe  Fe10      1.0  0.23016  0.23063  0.31005  1.0000
  S   S24       1.0  0.20750  0.19273  0.32445  1.0000
  S   S25       1.0  0.21794  0.23242  0.28380  1.0000
  Fe  Fe11      1.0  0.20508  0.22115  0.34352  1.0000
  S   S26       1.0  0.16872  0.21319  0.35852  1.0000
  Fe  Fe12      1.0  0.24822  0.20384  0.33608  1.0000
  S   S27       1.0  0.26457  0.17436  0.34238  1.0000
  S   S28       1.0  0.22405  0.25803  0.32828  1.0000
  S   S29       1.0  0.27123  0.23991  0.32026  1.0000
  Fe  Fe13      1.0  0.03928  0.21798  0.32804  1.0000
  S   S30       1.0  0.05677  0.26338  0.32751  1.0000
  S   S31       1.0  0.06466  0.19892  0.31844  1.0000
  H   H76       1.0  0.11454  0.26659  0.26006  1.0000
  H   H77       1.0  0.10404  0.30042  0.28647  1.0000
  S   S32       1.0  0.05411  0.28386  0.37449  1.0000
  C   C45       1.0  0.05528  0.31378  0.38359  1.0000
  H   H78       1.0  0.28625  0.04921  0.26103  1.0000
  H   H79       1.0  0.01955  0.22696  0.28156  1.0000
  C   C46       1.0  0.33003  0.01826  0.41731  1.0000
  H   H80       1.0  0.09752  0.25619  0.31089  1.0000
  C   C47       1.0  0.14053  0.21069  0.34718  1.0000
  C   C48       1.0  0.13753  0.20375  0.33049  1.0000
  C   C49       1.0  0.11411  0.20016  0.32182  1.0000
  C   C50       1.0  0.09398  0.20428  0.32966  1.0000
  C   C51       1.0  0.09735  0.21204  0.34622  1.0000
  C   C52       1.0  0.12041  0.21482  0.35502  1.0000
  H   H81       1.0  0.15293  0.20049  0.32435  1.0000
  H   H82       1.0  0.11154  0.19405  0.30902  1.0000
  H   H83       1.0  0.08188  0.21523  0.35234  1.0000
  H   H84       1.0  0.12267  0.22024  0.36793  1.0000
  C   C53       1.0  0.29652  0.32064  0.36704  1.0000
  H   H85       1.0  0.02946  0.31897  0.36572  1.0000
  H   H86       1.0  0.34916  0.03372  0.41201  1.0000
  H   H87       1.0  0.26351  0.28402  0.37564  1.0000
  H   H88       1.0  0.29682  0.07345  0.31342  1.0000
  C   C54       1.0  0.23931  0.23981  0.26689  1.0000
  C   C55       1.0  0.12284  0.26787  0.27269  1.0000
  C   C56       1.0  0.26534  0.24192  0.26806  1.0000
  H   H89       1.0  0.31414  0.10925  0.31833  1.0000
  H   H90       1.0  0.27283  0.23865  0.27963  1.0000
  C   C57       1.0  0.21752  0.08158  0.33455  1.0000
  C   C58       1.0  0.24159  0.09344  0.34391  1.0000
  C   C59       1.0  0.25573  0.12192  0.34628  1.0000
  C   C60       1.0  0.24592  0.13873  0.33931  1.0000
  C   C61       1.0  0.22190  0.12687  0.32989  1.0000
  C   C62       1.0  0.20769  0.09838  0.32760  1.0000
  H   H91       1.0  0.24908  0.08063  0.34953  1.0000
  H   H92       1.0  0.27430  0.13097  0.35361  1.0000
  H   H93       1.0  0.21435  0.13963  0.32429  1.0000
  H   H94       1.0  0.18903  0.08929  0.32035  1.0000
  C   C63       1.0  0.37055  0.01447  0.50068  1.0000
  Fe  Fe14      1.0  0.03437  0.26024  0.35070  1.0000
  Fe  Fe15      1.0  0.21755  0.01714  0.33121  1.0000
  H   H95       1.0  0.25675  0.05486  0.29400  1.0000
  H   H96       1.0  0.26491  0.11963  0.31265  1.0000
  H   H97       1.0  0.26256  0.28268  0.29550  1.0000
  C   C64       1.0  0.04109  0.32674  0.37701  1.0000
  H   H98       1.0  0.07213  0.22908  0.26882  1.0000
  C   C65       1.0  0.27292  0.30372  0.30089  1.0000
  H   H99       1.0  0.01255  0.27128  0.40139  1.0000
  H   H100      1.0  0.44120  0.01706  0.50003  1.0000
  H   H101      1.0  0.26631  0.30233  0.40385  1.0000
  H   H102      1.0  0.07233  0.27349  0.29263  1.0000
  C   C66       1.0  0.28059  0.02784  0.25947  1.0000
  N   N5        1.0  0.10136  0.26036  0.28488  1.0000
  C   C67       1.0  0.11330  0.26263  0.30144  1.0000
  H   H103      1.0  0.13915  0.28908  0.27493  1.0000
  H   H104      1.0  0.08130  0.31433  0.40350  1.0000
  C   C68       1.0  0.27931  0.01241  0.27315  1.0000
  H   H105      1.0  0.07992  0.27776  0.27141  1.0000
  Fe  Fe16      1.0  0.01790  0.25433  0.31414  1.0000
  H   H106      1.0  0.41465  0.15605  0.49411  1.0000
  C   C69       1.0  0.08031  0.23202  0.28156  1.0000
  C   C70       1.0  0.30255  0.32093  0.27805  1.0000
  H   H107      1.0  0.30649  0.28204  0.29516  1.0000
  H   H108      1.0  0.35322  0.02339  0.45656  1.0000
  H   H109      1.0  0.12870  0.28387  0.30464  1.0000
  C   C71       1.0  0.42146  0.01635  0.50031  1.0000
  H   H110      1.0  0.36910  0.04609  0.44019  1.0000
  S   S33       1.0  0.01991  0.21501  0.35227  1.0000
  H   H111      1.0  0.29210  0.33272  0.27382  1.0000
  N   N6        1.0  0.17664  0.13552  0.36849  1.0000
  C   C72       1.0  0.20522  0.15605  0.36663  1.0000
  C   C73       1.0  0.16976  0.11266  0.35664  1.0000
  C   C74       1.0  0.15878  0.14815  0.36544  1.0000
  C   C75       1.0  0.17285  0.12526  0.38528  1.0000
  H   H112      1.0  0.21098  0.17397  0.37509  1.0000
  H   H113      1.0  0.20896  0.16381  0.35401  1.0000
  H   H114      1.0  0.21945  0.14746  0.36905  1.0000
  H   H115      1.0  0.17181  0.11965  0.34383  1.0000
  H   H116      1.0  0.18333  0.10307  0.35830  1.0000
  H   H117      1.0  0.14851  0.09647  0.35791  1.0000
  H   H118      1.0  0.13698  0.13325  0.36638  1.0000
  H   H119      1.0  0.16164  0.15683  0.35302  1.0000
  H   H120      1.0  0.16309  0.16522  0.37434  1.0000
  H   H121      1.0  0.15144  0.10988  0.38717  1.0000
  H   H122      1.0  0.17809  0.14210  0.39452  1.0000
  H   H123      1.0  0.18596  0.11546  0.38793  1.0000
  H   H124      1.0  0.06289  0.22635  0.28984  1.0000
  H   H125      1.0  0.33754  0.31323  0.29773  1.0000
  C   C76       1.0  0.43034  0.15246  0.50060  1.0000
  N   N7        1.0  0.41947  0.12385  0.50553  1.0000
  C   C77       1.0  0.28014  0.31510  0.39482  1.0000
  C   C78       1.0  0.07033  0.32425  0.39827  1.0000
  C   C79       1.0  0.27855  0.30461  0.37881  1.0000
  H   H126      1.0  0.42667  0.10989  0.48232  1.0000
  H   H127      1.0  0.45840  0.12427  0.50600  1.0000
  H   H128      1.0  0.08830  0.21719  0.28355  1.0000
  S   S34       1.0  0.01919  0.27748  0.29135  1.0000
  H   H129      1.0  0.24130  0.06998  0.30675  1.0000
  H   H130      1.0  0.29884  0.14006  0.30612  1.0000
  C   C80       1.0  0.34921  0.03077  0.44474  1.0000
  N   N8        1.0  0.30150  0.31826  0.29600  1.0000
  H   H131      1.0  0.12315  0.24923  0.30261  1.0000
  H   H132      1.0  0.27094  0.12719  0.29151  1.0000
  N   N9        1.0  0.28217  0.09725  0.30007  1.0000
  C   C81       1.0  0.30032  0.10095  0.28627  1.0000
  C   C82       1.0  0.29397  0.09197  0.31502  1.0000
  C   C83       1.0  0.25524  0.07392  0.29637  1.0000
  C   C84       1.0  0.27914  0.12217  0.30266  1.0000
  H   H133      1.0  0.29170  0.10405  0.27464  1.0000
  H   H134      1.0  0.30366  0.08279  0.28434  1.0000
  H   H135      1.0  0.32062  0.11874  0.28852  1.0000
  H   H136      1.0  0.28063  0.08856  0.32563  1.0000
  H   H137      1.0  0.31637  0.02767  0.41909  1.0000
  H   H138      1.0  0.32382  0.33143  0.27384  1.0000
  C   C85       1.0  0.40991  0.10541  0.49095  1.0000
  H   H139      1.0  0.33674  0.04124  0.44741  1.0000
  H   H140      1.0  0.13239  0.25410  0.27309  1.0000
  H   H141      1.0  0.40199  0.08371  0.49440  1.0000
  C   C86       1.0  0.08898  0.27886  0.28379  1.0000
  H   H142      1.0  0.29236  0.30063  0.27163  1.0000
  H   H143      1.0  0.26118  0.31434  0.29690  1.0000
  C   C87       1.0  0.02163  0.23858  0.27079  1.0000
  H   H144      1.0  0.35077  0.01369  0.50092  1.0000
  H   H145      1.0  0.39336  0.10729  0.48427  1.0000
  H   H146      1.0  0.44790  0.15833  0.49244  1.0000
  C   C88       1.0  0.31581  0.30274  0.30106  1.0000
  H   H147      1.0  0.31513  0.30015  0.31455  1.0000
  C   C89       1.0  0.02117  0.26356  0.27207  1.0000
  H   H148      1.0  0.27143  0.30212  0.31441  1.0000
  C   C90       1.0  0.02358  0.27824  0.25785  1.0000
  H   H149      1.0  0.00910  0.23316  0.38417  1.0000
  H   H150      1.0  0.21753  0.33989  0.43725  1.0000
  H   H151      1.0  0.37220  0.00906  0.42412  1.0000
  Fe  Fe17      1.0  0.47923  0.10917  0.57643  1.0000
  S   S35       1.0  0.47889  0.12162  0.55058  1.0000
  Fe  Fe18      1.0  0.41758  0.08664  0.57945  1.0000
  S   S36       1.0  0.41348  0.09686  0.55341  1.0000
  S   S37       1.0  0.37589  0.06515  0.59088  1.0000
  Fe  Fe19      1.0  0.44231  0.08064  0.54688  1.0000
  S   S38       1.0  0.44382  0.05540  0.52485  1.0000
  Fe  Fe20      1.0  0.44996  0.13720  0.55914  1.0000
  S   S39       1.0  0.44668  0.17267  0.54708  1.0000
  S   S40       1.0  0.44390  0.06732  0.57243  1.0000
  S   S41       1.0  0.45283  0.12784  0.58559  1.0000
  H   H152      1.0  0.47356  0.03020  0.57869  1.0000
  H   H153      1.0  0.44928  0.13432  0.52489  1.0000
  S   S42       1.0  0.46770  0.28929  0.57606  1.0000
  N   N10       1.0  0.08364  0.30226  0.72403  1.0000
  H   H154      1.0  0.49961  0.02092  0.58412  1.0000
  S   S43       1.0  0.40967  0.31014  0.55861  1.0000
  H   H155      1.0  0.43313  0.21328  0.53497  1.0000
  Fe  Fe21      1.0  0.25066  0.04056  0.66969  1.0000
  S   S44       1.0  0.24527  0.07208  0.65531  1.0000
  S   S45       1.0  0.28960  0.05666  0.68401  1.0000
  Fe  Fe22      1.0  0.21842  0.23277  0.67090  1.0000
  S   S46       1.0  0.25716  0.27240  0.67390  1.0000
  S   S47       1.0  0.17807  0.22105  0.65790  1.0000
  Fe  Fe23      1.0  0.24170  0.20046  0.68845  1.0000
  S   S48       1.0  0.28204  0.23671  0.69327  1.0000
  S   S49       1.0  0.22886  0.15887  0.69852  1.0000
  Fe  Fe24      1.0  0.25829  0.25878  0.69961  1.0000
  S   S50       1.0  0.26830  0.28749  0.72159  1.0000
  Fe  Fe25      1.0  0.27871  0.24780  0.66722  1.0000
  S   S51       1.0  0.31820  0.26030  0.65363  1.0000
  S   S52       1.0  0.21804  0.22162  0.69707  1.0000
  S   S53       1.0  0.23997  0.20927  0.66202  1.0000
  H   H156      1.0  0.11873  0.30555  0.73718  1.0000
  H   H157      1.0  0.47870  0.24744  0.58895  1.0000
  H   H158      1.0  0.34672  0.30950  0.70134  1.0000
  H   H159      1.0  0.17768  0.16958  0.64646  1.0000
  Fe  Fe26      1.0  0.05112  0.24623  0.67552  1.0000
  S   S54       1.0  0.09638  0.26494  0.68143  1.0000
  S   S55       1.0  0.03332  0.27537  0.67396  1.0000
  S   S56       1.0  0.02399  0.22195  0.69544  1.0000
  H   H160      1.0  0.35540  0.32387  0.51860  1.0000
  H   H161      1.0  0.36754  0.27358  0.63710  1.0000
  C   C91       1.0  0.15516  0.23255  0.66510  1.0000
  C   C92       1.0  0.12877  0.22124  0.65822  1.0000
  C   C93       1.0  0.11026  0.23045  0.66335  1.0000
  C   C94       1.0  0.11818  0.25136  0.67525  1.0000
  C   C95       1.0  0.14449  0.26250  0.68221  1.0000
  C   C96       1.0  0.16284  0.25300  0.67727  1.0000
  H   H162      1.0  0.12271  0.20550  0.64876  1.0000
  H   H163      1.0  0.09012  0.22183  0.65786  1.0000
  H   H164      1.0  0.15082  0.27876  0.69136  1.0000
  H   H165      1.0  0.18312  0.26193  0.68261  1.0000
  C   C97       1.0  0.27378  0.27599  0.74059  1.0000
  C   C98       1.0  0.27901  0.25366  0.74149  1.0000
  H   H166      1.0  0.32403  0.03359  0.60460  1.0000
  H   H167      1.0  0.27987  0.24314  0.73043  1.0000
  S   S57       1.0  0.02336  0.21832  0.65562  1.0000
  C   C99       1.0  0.24247  0.09685  0.66773  1.0000
  C   C100      1.0  0.24802  0.12210  0.66127  1.0000
  C   C101      1.0  0.24538  0.14190  0.67096  1.0000
  C   C102      1.0  0.23607  0.13607  0.68691  1.0000
  C   C103      1.0  0.23065  0.11088  0.69337  1.0000
  C   C104      1.0  0.23423  0.09145  0.68389  1.0000
  H   H168      1.0  0.25439  0.12640  0.64878  1.0000
  H   H169      1.0  0.24998  0.16142  0.66595  1.0000
  H   H170      1.0  0.22352  0.10630  0.70572  1.0000
  H   H171      1.0  0.22996  0.07203  0.68895  1.0000
  H   H172      1.0  0.12109  0.30519  0.71528  1.0000
  C   C105      1.0  0.39111  0.03190  0.51185  1.0000
  C   C106      1.0  0.32990  0.03430  0.63074  1.0000
  C   C107      1.0  0.31885  0.29194  0.62737  1.0000
  C   C108      1.0  0.33190  0.27952  0.63590  1.0000
  C   C109      1.0  0.35726  0.28308  0.63059  1.0000
  C   C110      1.0  0.36945  0.29873  0.61686  1.0000
  C   C111      1.0  0.36732  0.33182  0.67236  1.0000
  H   H173      1.0  0.29931  0.28933  0.63125  1.0000
  H   H174      1.0  0.34580  0.03447  0.75056  1.0000
  H   H175      1.0  0.50579  0.07673  0.55764  1.0000
  C   C112      1.0  0.36647  0.05593  0.61133  1.0000
  C   C113      1.0  0.38536  0.06456  0.62436  1.0000
  C   C114      1.0  0.37650  0.05798  0.64051  1.0000
  C   C115      1.0  0.34874  0.04301  0.64379  1.0000
  H   H176      1.0  0.30540  0.32976  0.67423  1.0000
  C   C116      1.0  0.33877  0.04053  0.61461  1.0000
  H   H177      1.0  0.40673  0.07642  0.62201  1.0000
  H   H178      1.0  0.39125  0.06472  0.65051  1.0000
  H   H179      1.0  0.19327  0.06442  0.74829  1.0000
  C   C117      1.0  0.27152  0.02540  0.74631  1.0000
  H   H180      1.0  0.30852  0.02247  0.63305  1.0000
  N   N11       1.0  0.34384  0.33167  0.68072  1.0000
  H   H181      1.0  0.07734  0.30480  0.74979  1.0000
  C   C118      1.0  0.45131  0.20430  0.55586  1.0000
  C   C119      1.0  0.46395  0.21408  0.57118  1.0000
  C   C120      1.0  0.46851  0.23996  0.57721  1.0000
  C   C121      1.0  0.46010  0.25621  0.56818  1.0000
  C   C122      1.0  0.44700  0.24621  0.55300  1.0000
  C   C123      1.0  0.44285  0.22053  0.54684  1.0000
  H   H182      1.0  0.47068  0.20194  0.57825  1.0000
  C   C124      1.0  0.34570  0.04394  0.73870  1.0000
  H   H183      1.0  0.44053  0.25848  0.54585  1.0000
  H   H184      1.0  0.32892  0.04956  0.73905  1.0000
  C   C125      1.0  0.49590  0.05623  0.55152  1.0000
  N   N12       1.0  0.50266  0.03678  0.56000  1.0000
  C   C126      1.0  0.11327  0.31255  0.72573  1.0000
  H   H185      1.0  0.08404  0.30423  0.69781  1.0000
  H   H186      1.0  0.33776  0.02455  0.69850  1.0000
  H   H187      1.0  0.38891  0.30117  0.61290  1.0000
  H   H188      1.0  0.29539  0.30866  0.54405  1.0000
  H   H189      1.0  0.35726  0.29935  0.54263  1.0000
  S   S58       1.0  0.37104  0.33135  0.59105  1.0000
  H   H190      1.0  0.32595  0.28872  0.68463  1.0000
  Fe  Fe27      1.0  0.29489  0.02306  0.67180  1.0000
  C   C127      1.0  0.07726  0.31180  0.70861  1.0000
  S   S59       1.0  0.27704  0.04504  0.72875  1.0000
  H   H191      1.0  0.36122  0.31272  0.66492  1.0000
  H   H192      1.0  0.47371  0.04930  0.55139  1.0000
  H   H193      1.0  0.07781  0.26378  0.71384  1.0000
  H   H194      1.0  0.22749  0.03531  0.74840  1.0000
  H   H195      1.0  0.12421  0.33520  0.72597  1.0000
  H   H196      1.0  0.38786  0.09579  0.52060  1.0000
  C   C128      1.0  0.34104  0.03833  0.70932  1.0000
  C   C129      1.0  0.35646  0.31119  0.60833  1.0000
  N   N13       1.0  0.32353  0.10768  0.63343  1.0000
  C   C130      1.0  0.33600  0.10002  0.61978  1.0000
  C   C131      1.0  0.34342  0.13423  0.64071  1.0000
  C   C132      1.0  0.31520  0.08677  0.64602  1.0000
  C   C133      1.0  0.29943  0.10968  0.62731  1.0000
  H   H197      1.0  0.32140  0.08024  0.61388  1.0000
  H   H198      1.0  0.35393  0.09778  0.62407  1.0000
  H   H199      1.0  0.34300  0.11553  0.61015  1.0000
  H   H200      1.0  0.33467  0.14050  0.65114  1.0000
  H   H201      1.0  0.36185  0.13331  0.64543  1.0000
  H   H202      1.0  0.35008  0.15057  0.63158  1.0000
  H   H203      1.0  0.30539  0.09186  0.65635  1.0000
  H   H204      1.0  0.33281  0.08473  0.65112  1.0000
  H   H205      1.0  0.30027  0.06636  0.64100  1.0000
  H   H206      1.0  0.28985  0.11585  0.63732  1.0000
  H   H207      1.0  0.28360  0.08968  0.62229  1.0000
  H   H208      1.0  0.30470  0.12484  0.61753  1.0000
  N   N14       1.0  0.15949  0.13827  0.66408  1.0000
  C   C134      1.0  0.16798  0.15783  0.67813  1.0000
  C   C135      1.0  0.13274  0.11514  0.66724  1.0000
  C   C136      1.0  0.17968  0.12823  0.66185  1.0000
  C   C137      1.0  0.15771  0.15204  0.64916  1.0000
  H   H209      1.0  0.18803  0.17540  0.67603  1.0000
  H   H210      1.0  0.17000  0.14842  0.68962  1.0000
  H   H211      1.0  0.15352  0.16626  0.68011  1.0000
  H   H212      1.0  0.11711  0.12212  0.66904  1.0000
  H   H213      1.0  0.12572  0.09994  0.65689  1.0000
  H   H214      1.0  0.13355  0.10441  0.67844  1.0000
  H   H215      1.0  0.18212  0.11835  0.67304  1.0000
  H   H216      1.0  0.19998  0.14525  0.65928  1.0000
  H   H217      1.0  0.17393  0.11312  0.65150  1.0000
  H   H218      1.0  0.14315  0.16051  0.65056  1.0000
  H   H219      1.0  0.15119  0.13795  0.63828  1.0000
  H   H220      1.0  0.31900  0.30732  0.51875  1.0000
  C   C138      1.0  0.49541  0.03585  0.57738  1.0000
  C   C139      1.0  0.33114  0.30775  0.61369  1.0000
  H   H221      1.0  0.07305  0.26409  0.73552  1.0000
  H   H222      1.0  0.50721  0.05603  0.58372  1.0000
  H   H223      1.0  0.04796  0.26385  0.72152  1.0000
  Fe  Fe28      1.0  0.45099  0.31816  0.56810  1.0000
  H   H224      1.0  0.50221  0.05860  0.53856  1.0000
  C   C140      1.0  0.07379  0.31235  0.73795  1.0000
  C   C141      1.0  0.33754  0.32513  0.52375  1.0000
  H   H225      1.0  0.36013  0.05734  0.70742  1.0000
  H   H226      1.0  0.38332  0.33344  0.68126  1.0000
  H   H227      1.0  0.19674  0.24758  0.74434  1.0000
  H   H228      1.0  0.26909  0.30693  0.75448  1.0000
  H   H229      1.0  0.38710  0.04439  0.52061  1.0000
  C   C142      1.0  0.27287  0.28948  0.75510  1.0000
  Fe  Fe29      1.0  0.26585  0.02697  0.70300  1.0000
  C   C143      1.0  0.41672  0.03297  0.51166  1.0000
  C   C144      1.0  0.33949  0.30097  0.54757  1.0000
  H   H230      1.0  0.08392  0.33498  0.73877  1.0000
  H   H231      1.0  0.38478  0.03762  0.72317  1.0000
  C   C145      1.0  0.18047  0.23342  0.75237  1.0000
  N   N15       1.0  0.33859  0.32568  0.54182  1.0000
  H   H232      1.0  0.43338  0.09915  0.51843  1.0000
  S   S60       1.0  0.33833  0.03596  0.66431  1.0000
  H   H233      1.0  0.05156  0.30534  0.73668  1.0000
  C   C146      1.0  0.39659  0.11724  0.51661  1.0000
  C   C147      1.0  0.07010  0.27218  0.72375  1.0000
  H   H234      1.0  0.16948  0.21360  0.74554  1.0000
  H   H235      1.0  0.34129  0.30121  0.56116  1.0000
  C   C148      1.0  0.32320  0.32941  0.66839  1.0000
  H   H236      1.0  0.22783  0.07835  0.74199  1.0000
  C   C149      1.0  0.31440  0.32673  0.54827  1.0000
  H   H237      1.0  0.31553  0.31002  0.66108  1.0000
  H   H238      1.0  0.36497  0.06321  0.73802  1.0000
  H   H239      1.0  0.31484  0.32722  0.56190  1.0000
  H   H240      1.0  0.05502  0.30443  0.70700  1.0000
  H   H241      1.0  0.32093  0.31731  0.60718  1.0000
  H   H242      1.0  0.03168  0.32975  0.57209  1.0000
  C   C150      1.0  0.33203  0.30820  0.69159  1.0000
  H   H243      1.0  0.40319  0.13061  0.52786  1.0000
  H   H244      1.0  0.32414  0.04382  0.70927  1.0000
  N   N16       1.0  0.34214  0.02524  0.72468  1.0000
  H   H245      1.0  0.38000  0.12002  0.51066  1.0000
  C   C151      1.0  0.44108  0.12024  0.51406  1.0000
  H   H246      1.0  0.32095  0.28214  0.54368  1.0000
  H   H247      1.0  0.31365  0.30679  0.69770  1.0000
  H   H248      1.0  0.43758  0.16672  0.51147  1.0000
  C   C152      1.0  0.21474  0.07564  0.75272  1.0000
  C   C153      1.0  0.36514  0.01886  0.72435  1.0000
  C   C154      1.0  0.48715  0.00942  0.55221  1.0000
  H   H249      1.0  0.19367  0.02085  0.75587  1.0000
  S   S61       1.0  0.22582  0.01356  0.68973  1.0000
  H   H250      1.0  0.49182  0.00954  0.53902  1.0000
  H   H251      1.0  0.36639  0.00873  0.73572  1.0000
  H   H252      1.0  0.16599  0.24183  0.75430  1.0000
  H   H253      1.0  0.08726  0.33441  0.70831  1.0000
  Fe  Fe30      1.0  0.41051  0.33868  0.57880  1.0000
  H   H254      1.0  0.49799  0.33663  0.60123  1.0000
  H   H255      1.0  0.01034  0.17845  0.62403  1.0000
  Fe  Fe31      1.0  0.43560  0.31389  0.95422  1.0000
  C   C155      1.0  0.33059  0.30220  0.82485  1.0000
  S   S62       1.0  0.43796  0.27885  0.96727  1.0000
  H   H256      1.0  0.02617  0.32180  0.95160  1.0000
  H   H257      1.0  0.33666  0.26296  0.84051  1.0000
  S   S63       1.0  0.39657  0.31353  0.94650  1.0000
  Fe  Fe32      1.0  0.42534  0.08625  0.96631  1.0000
  S   S64       1.0  0.43201  0.06143  0.94663  1.0000
  S   S65       1.0  0.41797  0.07147  0.99253  1.0000
  Fe  Fe33      1.0  0.44387  0.13653  0.94493  1.0000
  S   S66       1.0  0.45325  0.11459  0.92444  1.0000
  S   S67       1.0  0.44944  0.17790  0.93605  1.0000
  Fe  Fe34      1.0  0.41288  0.07921  0.92942  1.0000
  S   S68       1.0  0.39007  0.05887  0.90552  1.0000
  Fe  Fe35      1.0  0.47185  0.09888  0.94321  1.0000
  S   S69       1.0  0.40275  0.10128  0.94944  1.0000
  S   S70       1.0  0.46592  0.12355  0.96342  1.0000
  Fe  Fe36      1.0  0.23974  0.04569  0.82450  1.0000
  S   S71       1.0  0.27539  0.03737  0.82780  1.0000
  S   S72       1.0  0.24633  0.08513  0.81316  1.0000
  H   H258      1.0  0.44511  0.26439  0.93359  1.0000
  Fe  Fe37      1.0  0.21278  0.24793  0.82524  1.0000
  S   S73       1.0  0.25530  0.28047  0.82079  1.0000
  S   S74       1.0  0.17579  0.24908  0.81393  1.0000
  Fe  Fe38      1.0  0.23250  0.21022  0.84017  1.0000
  S   S75       1.0  0.27634  0.23928  0.83696  1.0000
  S   S76       1.0  0.21921  0.16961  0.85177  1.0000
  Fe  Fe39      1.0  0.26546  0.27132  0.84598  1.0000
  S   S77       1.0  0.29338  0.30679  0.86285  1.0000
  Fe  Fe40      1.0  0.26320  0.24627  0.81217  1.0000
  S   S78       1.0  0.28788  0.24691  0.79025  1.0000
  S   S79       1.0  0.22203  0.24167  0.85117  1.0000
  S   S80       1.0  0.22020  0.21424  0.81465  1.0000
  H   H259      1.0  0.21627  0.25563  0.78826  1.0000
  C   C156      1.0  0.48371  0.03485  0.96672  1.0000
  H   H260      1.0  0.19911  0.01241  0.90391  1.0000
  H   H261      1.0  0.47439  0.07743  0.97216  1.0000
  Fe  Fe41      1.0  0.04536  0.25374  0.84214  1.0000
  S   S81       1.0  0.08608  0.26389  0.85409  1.0000
  S   S82       1.0  0.03419  0.27890  0.82531  1.0000
  H   H262      1.0  0.03356  0.14282  0.85067  1.0000
  H   H263      1.0  0.25459  0.06557  0.78071  1.0000
  H   H264      1.0  0.34899  0.28793  0.79816  1.0000
  C   C157      1.0  0.15112  0.25315  0.82543  1.0000
  C   C158      1.0  0.15476  0.25960  0.84218  1.0000
  C   C159      1.0  0.13488  0.26330  0.85078  1.0000
  C   C160      1.0  0.11113  0.26028  0.84274  1.0000
  C   C161      1.0  0.10736  0.25349  0.82604  1.0000
  C   C162      1.0  0.12735  0.25010  0.81741  1.0000
  H   H265      1.0  0.17303  0.26210  0.84847  1.0000
  H   H266      1.0  0.13793  0.26854  0.86371  1.0000
  H   H267      1.0  0.08917  0.25114  0.81972  1.0000
  H   H268      1.0  0.12441  0.24517  0.80445  1.0000
  N   N17       1.0  0.32827  0.32483  0.93285  1.0000
  C   C163      1.0  0.28198  0.25816  0.77130  1.0000
  H   H269      1.0  0.04097  0.15815  0.88711  1.0000
  H   H270      1.0  0.30859  0.29185  0.94928  1.0000
  H   H271      1.0  0.28487  0.03513  0.78744  1.0000
  C   C164      1.0  0.23895  0.10842  0.82423  1.0000
  C   C165      1.0  0.24520  0.13366  0.81746  1.0000
  C   C166      1.0  0.23937  0.15262  0.82587  1.0000
  C   C167      1.0  0.22704  0.14633  0.84106  1.0000
  C   C168      1.0  0.22071  0.12105  0.84781  1.0000
  C   C169      1.0  0.22671  0.10215  0.83944  1.0000
  H   H272      1.0  0.25475  0.13866  0.80572  1.0000
  H   H273      1.0  0.24438  0.17207  0.82060  1.0000
  H   H274      1.0  0.21119  0.11612  0.85957  1.0000
  H   H275      1.0  0.22178  0.08276  0.84474  1.0000
  C   C170      1.0  0.35662  0.04923  0.89811  1.0000
  C   C171      1.0  0.35044  0.04207  0.88143  1.0000
  C   C172      1.0  0.32430  0.03451  0.87486  1.0000
  C   C173      1.0  0.30387  0.03357  0.88499  1.0000
  H   H276      1.0  0.36531  0.33048  0.92187  1.0000
  C   C174      1.0  0.33634  0.04884  0.90820  1.0000
  H   H277      1.0  0.18105  0.04642  0.77617  1.0000
  H   H278      1.0  0.28796  0.22804  0.75736  1.0000
  H   H279      1.0  0.34072  0.05409  0.92107  1.0000
  C   C175      1.0  0.28355  0.24510  0.75678  1.0000
  H   H280      1.0  0.50505  0.04631  0.96270  1.0000
  H   H281      1.0  0.19223  0.26537  0.77999  1.0000
  H   H282      1.0  0.17782  0.20844  0.79029  1.0000
  H   H283      1.0  0.32854  0.25342  0.81923  1.0000
  H   H284      1.0  0.38241  0.33598  0.83356  1.0000
  C   C176      1.0  0.36892  0.31190  0.88957  1.0000
  C   C177      1.0  0.34979  0.28714  0.88221  1.0000
  C   C178      1.0  0.32652  0.28522  0.87400  1.0000
  C   C179      1.0  0.32236  0.30817  0.87291  1.0000
  C   C180      1.0  0.21537  0.03368  0.75942  1.0000
  H   H285      1.0  0.48643  0.30679  0.94620  1.0000
  H   H286      1.0  0.35290  0.26930  0.88298  1.0000
  H   H287      1.0  0.31169  0.26590  0.86868  1.0000
  Fe  Fe42      1.0  0.25527  0.01670  0.85093  1.0000
  C   C181      1.0  0.43988  0.25029  0.95823  1.0000
  C   C182      1.0  0.43837  0.22932  0.96828  1.0000
  C   C183      1.0  0.44079  0.20678  0.96174  1.0000
  C   C184      1.0  0.44519  0.20517  0.94505  1.0000
  C   C185      1.0  0.44681  0.22622  0.93502  1.0000
  C   C186      1.0  0.44397  0.24852  0.94151  1.0000
  H   H288      1.0  0.43524  0.23045  0.98124  1.0000
  H   H289      1.0  0.43956  0.19083  0.96963  1.0000
  H   H290      1.0  0.45034  0.22530  0.92211  1.0000
  N   N18       1.0  0.05122  0.18039  0.86489  1.0000
  C   C187      1.0  0.02627  0.32284  0.96522  1.0000
  H   H291      1.0  0.07017  0.20320  0.84368  1.0000
  H   H292      1.0  0.28974  0.29581  0.92224  1.0000
  C   C188      1.0  0.02839  0.15878  0.85537  1.0000
  C   C189      1.0  0.34483  0.26743  0.82796  1.0000
  N   N19       1.0  0.19190  0.23020  0.76809  1.0000
  H   H293      1.0  0.22230  0.27219  0.76900  1.0000
  C   C190      1.0  0.36472  0.30125  0.80742  1.0000
  H   H294      1.0  0.15524  0.21931  0.78127  1.0000
  H   H295      1.0  0.32143  0.29799  0.83711  1.0000
  H   H296      1.0  0.48404  0.08296  0.99333  1.0000
  H   H297      1.0  0.07558  0.18426  0.88631  1.0000
  C   C191      1.0  0.37636  0.01806  0.98942  1.0000
  H   H298      1.0  0.22133  0.21786  0.77645  1.0000
  S   S83       1.0  0.45617  0.33152  0.93091  1.0000
  H   H299      1.0  0.26312  0.08003  0.76079  1.0000
  H   H300      1.0  0.25366  0.09670  0.77668  1.0000
  H   H301      1.0  0.37442  0.02212  0.97673  1.0000
  C   C192      1.0  0.39579  0.03854  0.99963  1.0000
  C   C193      1.0  0.16979  0.21131  0.77836  1.0000
  C   C194      1.0  0.48718  0.07443  0.98159  1.0000
  C   C195      1.0  0.20289  0.05772  0.77976  1.0000
  H   H302      1.0  0.29383  0.06091  0.76192  1.0000
  N   N20       1.0  0.39124  0.13690  0.89916  1.0000
  C   C196      1.0  0.37060  0.12111  0.88635  1.0000
  C   C197      1.0  0.41687  0.13617  0.89556  1.0000
  C   C198      1.0  0.38156  0.12485  0.91521  1.0000
  C   C199      1.0  0.39599  0.16546  0.89962  1.0000
  H   H303      1.0  0.35079  0.12067  0.88883  1.0000
  H   H304      1.0  0.36693  0.09958  0.88564  1.0000
  H   H305      1.0  0.37708  0.12973  0.87408  1.0000
  H   H306      1.0  0.43290  0.14793  0.90498  1.0000
  H   H307      1.0  0.41411  0.11492  0.89534  1.0000
  H   H308      1.0  0.42476  0.14493  0.88350  1.0000
  H   H309      1.0  0.39626  0.13686  0.92521  1.0000
  H   H310      1.0  0.37889  0.10370  0.91556  1.0000
  H   H311      1.0  0.36176  0.12407  0.91813  1.0000
  H   H312      1.0  0.41150  0.17777  0.90923  1.0000
  H   H313      1.0  0.37712  0.16678  0.90243  1.0000
  H   H314      1.0  0.40344  0.17532  0.88774  1.0000
  C   C200      1.0  0.05844  0.16837  0.87889  1.0000
  H   H315      1.0  0.47072  0.03711  0.95701  1.0000
  H   H316      1.0  0.36180  0.26213  0.82734  1.0000
  H   H317      1.0  0.27571  0.29084  0.78153  1.0000
  H   H318      1.0  0.34263  0.31605  0.95535  1.0000
  H   H319      1.0  0.36597  0.04226  0.87353  1.0000
  H   H320      1.0  0.50865  0.08682  0.97802  1.0000
  C   C201      1.0  0.36500  0.33495  0.88817  1.0000
  C   C202      1.0  0.31077  0.30977  0.91858  1.0000
  H   H321      1.0  0.08176  0.17914  0.84945  1.0000
  C   C203      1.0  0.37507  0.31406  0.83610  1.0000
  H   H322      1.0  0.20664  0.04638  0.78971  1.0000
  S   S84       1.0  0.02516  0.21624  0.82633  1.0000
  C   C204      1.0  0.07491  0.19376  0.85432  1.0000
  N   N21       1.0  0.22054  0.06087  0.76577  1.0000
  C   C205      1.0  0.27655  0.28036  0.77042  1.0000
  H   H323      1.0  0.21505  0.01695  0.88449  1.0000
  S   S85       1.0  0.39863  0.31383  0.89896  1.0000
  C   C206      1.0  0.34172  0.33303  0.88001  1.0000
  Fe  Fe43      1.0  0.41798  0.33360  0.92372  1.0000
  S   S86       1.0  0.22138  0.02802  0.84829  1.0000
  H   H324      1.0  0.29650  0.32906  0.94520  1.0000
  H   H325      1.0  0.31878  0.29723  0.91208  1.0000
  H   H326      1.0  0.49276  0.02038  0.99645  1.0000
  C   C207      1.0  0.20634  0.25703  0.77667  1.0000
  S   S87       1.0  0.27014  0.02252  0.87757  1.0000
  H   H327      1.0  0.29438  0.04010  0.90962  1.0000
  H   H328      1.0  0.36726  0.31086  0.84877  1.0000
  H   H329      1.0  0.20069  0.19836  0.75919  1.0000
  H   H330      1.0  0.43744  0.03207  0.97836  1.0000
  H   H331      1.0  0.03796  0.21041  0.86072  1.0000
  C   C208      1.0  0.04314  0.20078  0.87101  1.0000
  H   H332      1.0  0.39286  0.30998  0.83604  1.0000
  H   H333      1.0  0.31981  0.02882  0.86203  1.0000
  H   H334      1.0  0.09241  0.21042  0.86109  1.0000
  C   C209      1.0  0.32907  0.30528  0.94460  1.0000
  H   H335      1.0  0.30948  0.32386  0.90949  1.0000
  H   H336      1.0  0.05988  0.21759  0.87819  1.0000
  C   C210      1.0  0.27698  0.02443  0.77584  1.0000
  C   C211      1.0  0.21106  0.21913  0.76496  1.0000
  H   H337      1.0  0.06474  0.15294  0.87472  1.0000
  N   N22       1.0  0.35384  0.29626  0.82409  1.0000
  H   H338      1.0  0.22087  0.02248  0.76870  1.0000
  C   C212      1.0  0.31006  0.04086  0.90167  1.0000
  H   H339      1.0  0.33683  0.29194  0.93885  1.0000
  H   H340      1.0  0.33666  0.32392  0.82240  1.0000
  H   H341      1.0  0.31437  0.28951  0.81574  1.0000
  H   H342      1.0  0.15824  0.19090  0.77229  1.0000
  N   N23       1.0  0.47997  0.04530  0.98274  1.0000
  H   H343      1.0  0.02500  0.19150  0.87879  1.0000
  C   C213      1.0  0.24926  0.07648  0.77117  1.0000
  C   C214      1.0  0.28192  0.03898  0.76138  1.0000
  S   S88       1.0  0.00916  0.24172  0.85818  1.0000
  H   H344      1.0  0.49564  0.28749  0.97089  1.0000
  H   H345      1.0  0.48676  0.32695  0.97358  1.0000
  S   S89       1.0  0.01225  0.22554  0.78442  1.0000
  H   H346      1.0  0.20685  0.07785  0.78522  1.0000
  Fe  Fe44      1.0  0.01100  0.23985  0.81040  1.0000
  C   C215      1.0  0.50851  0.32097  0.94558  1.0000
  S   S90       1.0  0.50643  0.08776  0.93949  1.0000
  H   H347      1.0  0.47849  0.01293  0.96707  1.0000
  C   C216      1.0  0.45133  0.02986  0.98744  1.0000
  H   H348      1.0  0.44779  0.03732  0.99945  1.0000
  H   H349      1.0  0.38232  0.29699  0.80634  1.0000
  H   H350      1.0  0.00992  0.14868  0.86286  1.0000
  H   H351      1.0  0.37148  0.32274  0.80401  1.0000
  H   H352      1.0  0.04546  0.34080  0.96940  1.0000
  C   C217      1.0  0.49769  0.04215  0.99521  1.0000
  H   H353      1.0  0.02678  0.30426  0.96972  1.0000
  H   H354      1.0  0.02260  0.16724  0.84466  1.0000
  C   C218      1.0  0.50881  0.34056  0.97222  1.0000
  H   H355      1.0  0.22717  0.23220  0.75657  1.0000
  H   H356      1.0  0.21856  0.09628  0.75713  1.0000
  Fe  Fe45      1.0  0.34283  0.42458  0.09199  1.0000
  S   S91       1.0  0.32094  0.39829  0.07013  1.0000
  S   S92       1.0  0.33943  0.40734  0.11745  1.0000
  Fe  Fe46      1.0  0.37129  0.47649  0.07156  1.0000
  S   S93       1.0  0.34992  0.45302  0.04842  1.0000
  S   S94       1.0  0.40081  0.52150  0.06728  1.0000
  Fe  Fe47      1.0  0.31227  0.43304  0.06354  1.0000
  S   S95       1.0  0.26930  0.42123  0.05379  1.0000
  Fe  Fe48      1.0  0.36034  0.42080  0.05714  1.0000
  S   S96       1.0  0.38523  0.40280  0.04486  1.0000
  S   S97       1.0  0.33266  0.45861  0.08610  1.0000
  S   S98       1.0  0.38306  0.44497  0.07966  1.0000
  H   H357      1.0  0.04175  0.60225  0.01654  1.0000
  Fe  Fe49      1.0  0.09741  0.46871  0.07522  1.0000
  S   S99       1.0  0.12271  0.47490  0.05314  1.0000
  S   S100      1.0  0.09055  0.50292  0.08680  1.0000
  Fe  Fe50      1.0  0.08655  0.40883  0.07828  1.0000
  S   S101      1.0  0.11062  0.41157  0.05577  1.0000
  S   S102      1.0  0.07183  0.36682  0.08931  1.0000
  Fe  Fe51      1.0  0.14140  0.45199  0.06630  1.0000
  S   S103      1.0  0.18683  0.46817  0.07193  1.0000
  Fe  Fe52      1.0  0.08931  0.43364  0.04477  1.0000
  S   S104      1.0  0.07355  0.42805  0.01840  1.0000
  S   S105      1.0  0.11816  0.44855  0.08919  1.0000
  S   S106      1.0  0.06310  0.42828  0.06640  1.0000
  Fe  Fe53      1.0  0.11773  0.65671  0.06737  1.0000
  C   C219      1.0  0.14702  0.40786  0.10509  1.0000
  S   S107      1.0  0.13285  0.62499  0.06303  1.0000
  H   H358      1.0  0.37399  0.38372  0.10150  1.0000
  H   H359      1.0  0.19513  0.41846  0.09278  1.0000
  S   S108      1.0  0.07351  0.64587  0.06735  1.0000
  H   H360      1.0  0.07563  0.56572  0.04875  1.0000
  H   H361      1.0  0.09125  0.61831  0.01682  1.0000
  H   H362      1.0  0.05523  0.37329  0.14814  1.0000
  C   C220      1.0  0.01974  0.39018  0.02289  1.0000
  H   H363      1.0  0.14418  0.34596  0.09805  1.0000
  C   C221      1.0  0.11996  0.59090  0.06960  1.0000
  C   C222      1.0  0.10310  0.58129  0.08301  1.0000
  C   C223      1.0  0.09407  0.55426  0.08800  1.0000
  C   C224      1.0  0.10125  0.53633  0.07947  1.0000
  C   C225      1.0  0.11732  0.54569  0.06570  1.0000
  C   C226      1.0  0.12694  0.57290  0.06096  1.0000
  H   H364      1.0  0.09754  0.59485  0.08980  1.0000
  H   H365      1.0  0.08159  0.54726  0.09865  1.0000
  H   H366      1.0  0.12248  0.53199  0.05879  1.0000
  H   H367      1.0  0.13973  0.58003  0.05045  1.0000
  C   C227      1.0  0.20944  0.45486  0.06656  1.0000
  C   C228      1.0  0.23529  0.46610  0.07424  1.0000
  C   C229      1.0  0.25381  0.45603  0.07058  1.0000
  C   C230      1.0  0.24674  0.43463  0.05910  1.0000
  C   C231      1.0  0.22085  0.42334  0.05148  1.0000
  C   C232      1.0  0.20232  0.43337  0.05514  1.0000
  H   H368      1.0  0.24113  0.48276  0.08307  1.0000
  H   H369      1.0  0.27365  0.46500  0.07652  1.0000
  H   H370      1.0  0.21523  0.40693  0.04248  1.0000
  H   H371      1.0  0.18275  0.42477  0.04889  1.0000
  C   C233      1.0  0.43611  0.54340  0.07137  1.0000
  C   C234      1.0  0.45223  0.53571  0.08104  1.0000
  C   C235      1.0  0.48003  0.55393  0.08393  1.0000
  C   C236      1.0  0.49221  0.58001  0.07715  1.0000
  C   C237      1.0  0.47616  0.58749  0.06729  1.0000
  C   C238      1.0  0.44833  0.56937  0.06450  1.0000
  H   H372      1.0  0.44321  0.51593  0.08651  1.0000
  H   H373      1.0  0.42895  0.52913  0.03492  1.0000
  H   H374      1.0  0.41788  0.38398  0.02735  1.0000
  H   H375      1.0  0.43614  0.57568  0.05707  1.0000
  H   H376      1.0  0.06724  0.39210  0.12034  1.0000
  C   C239      1.0  0.40364  0.38502  0.01863  1.0000
  C   C240      1.0  0.38479  0.39360  0.02393  1.0000
  H   H377      1.0  0.04375  0.60998  0.03798  1.0000
  H   H378      1.0  0.10613  0.60358  0.03059  1.0000
  C   C241      1.0  0.13949  0.36134  0.10416  1.0000
  H   H379      1.0  0.45451  0.50946  0.00805  1.0000
  C   C242      1.0  0.06328  0.37141  0.12250  1.0000
  H   H380      1.0  0.03872  0.54577  0.01938  1.0000
  H   H381      1.0  0.15534  0.40603  0.07348  1.0000
  C   C243      1.0  0.32313  0.37244  0.12253  1.0000
  C   C244      1.0  0.32265  0.36548  0.13900  1.0000
  H   H382      1.0  0.06578  0.58984  0.05708  1.0000
  H   H383      1.0  0.33164  0.38148  0.14833  1.0000
  H   H384      1.0  0.40991  0.47542  0.05091  1.0000
  N   N24       1.0  0.19010  0.54431  0.07985  1.0000
  C   C245      1.0  0.19075  0.57103  0.08280  1.0000
  C   C246      1.0  0.21555  0.54526  0.08617  1.0000
  C   C247      1.0  0.18717  0.53773  0.06211  1.0000
  C   C248      1.0  0.16686  0.52311  0.08834  1.0000
  H   H385      1.0  0.17163  0.57082  0.07841  1.0000
  H   H386      1.0  0.20778  0.58753  0.07639  1.0000
  H   H387      1.0  0.19312  0.57671  0.09607  1.0000
  H   H388      1.0  0.23355  0.56111  0.08008  1.0000
  H   H389      1.0  0.21827  0.54982  0.09956  1.0000
  H   H390      1.0  0.21568  0.52539  0.08398  1.0000
  H   H391      1.0  0.18634  0.51752  0.05950  1.0000
  H   H392      1.0  0.20447  0.55314  0.05531  1.0000
  H   H393      1.0  0.16823  0.53689  0.05691  1.0000
  H   H394      1.0  0.16614  0.50282  0.08669  1.0000
  H   H395      1.0  0.14726  0.52124  0.08356  1.0000
  H   H396      1.0  0.16787  0.52767  0.10170  1.0000
  C   C249      1.0  0.03875  0.40903  0.01257  1.0000
  H   H397      1.0  0.18995  0.38411  0.09171  1.0000
  C   C250      1.0  0.06430  0.35507  0.10956  1.0000
  H   H398      1.0  0.09297  0.62537  0.03829  1.0000
  H   H399      1.0  0.39569  0.50114  0.03276  1.0000
  H   H400      1.0  0.12485  0.40125  0.10399  1.0000
  H   H401      1.0  0.39844  0.36572  0.06320  1.0000
  C   C251      1.0  0.37549  0.37885  0.08839  1.0000
  H   H402      1.0  0.02603  0.38752  0.03500  1.0000
  N   N25       1.0  0.42793  0.49099  0.02795  1.0000
  H   H403      1.0  0.12373  0.37700  0.07755  1.0000
  H   H404      1.0  0.01273  0.64487  0.03755  1.0000
  C   C252      1.0  0.03096  0.64695  0.01425  1.0000
  H   H405      1.0  0.48507  0.60745  0.06203  1.0000
  C   C253      1.0  0.41632  0.51018  0.02753  1.0000
  C   C254      1.0  0.40419  0.35836  0.09498  1.0000
  C   C255      1.0  0.05646  0.36067  0.13826  1.0000
  N   N26       1.0  0.06252  0.58524  0.03084  1.0000
  C   C256      1.0  0.00906  0.63937  0.02466  1.0000
  H   H406      1.0  0.15781  0.42844  0.09979  1.0000
  C   C257      1.0  0.06096  0.57398  0.04724  1.0000
  N   N27       1.0  0.15410  0.38824  0.09669  1.0000
  H   H407      1.0  0.14476  0.36237  0.11740  1.0000
  H   H408      1.0  0.43723  0.46831  0.04582  1.0000
  H   H409      1.0  0.07469  0.55753  0.01938  1.0000
  C   C258      1.0  0.18370  0.39806  0.09822  1.0000
  S   S109      1.0  0.06511  0.66545  0.02131  1.0000
  N   N28       1.0  0.37898  0.35412  0.08635  1.0000
  H   H410      1.0  0.35188  0.40139  0.01642  1.0000
  H   H411      1.0  0.46899  0.52298  0.02799  1.0000
  H   H412      1.0  0.19052  0.40004  0.11123  1.0000
  H   H413      1.0  0.49212  0.54788  0.09163  1.0000
  C   C259      1.0  0.31136  0.35156  0.11061  1.0000
  H   H414      1.0  0.44392  0.50209  0.05256  1.0000
  H   H415      1.0  0.02055  0.57649  0.03029  1.0000
  C   C260      1.0  0.45527  0.50395  0.02098  1.0000
  H   H416      1.0  0.04045  0.55706  0.04950  1.0000
  H   H417      1.0  0.38966  0.45536  0.02348  1.0000
  C   C261      1.0  0.42994  0.48388  0.04504  1.0000
  H   H418      1.0  0.31118  0.35658  0.09793  1.0000
  H   H419      1.0  0.23586  0.34864  0.13813  1.0000
  H   H420      1.0  0.15242  0.41002  0.11836  1.0000
  C   C262      1.0  0.36656  0.39493  0.01252  1.0000
  H   H421      1.0  0.41457  0.51616  0.01486  1.0000
  H   H422      1.0  0.39273  0.39687  0.08319  1.0000
  H   H423      1.0  0.35672  0.37642  0.08199  1.0000
  C   C263      1.0  0.04114  0.59375  0.02882  1.0000
  C   C264      1.0  0.41027  0.46597  0.01830  1.0000
  C   C265      1.0  0.08937  0.60907  0.02899  1.0000
  H   H424      1.0  0.42221  0.37598  0.09007  1.0000
  H   H425      1.0  0.40349  0.36260  0.10829  1.0000
  H   H426      1.0  0.46471  0.49009  0.02125  1.0000
  H   H427      1.0  0.15258  0.37247  0.07221  1.0000
  C   C266      1.0  0.14612  0.38580  0.07922  1.0000
  H   H428      1.0  0.41860  0.45115  0.01822  1.0000
  H   H429      1.0  0.36236  0.34635  0.06177  1.0000
  H   H430      1.0  0.11709  0.35357  0.10312  1.0000
  C   C267      1.0  0.05867  0.56418  0.01825  1.0000
  C   C268      1.0  0.38068  0.34865  0.06875  1.0000
  Fe  Fe54      1.0  0.32690  0.39528  0.43160  1.0000
  S   S110      1.0  0.30800  0.40211  0.45434  1.0000
  S   S111      1.0  0.30037  0.35356  0.41970  1.0000
  Fe  Fe55      1.0  0.37598  0.45229  0.43511  1.0000
  S   S112      1.0  0.35993  0.46286  0.45753  1.0000
  S   S113      1.0  0.41627  0.48191  0.42425  1.0000
  Fe  Fe56      1.0  0.35031  0.42063  0.46537  1.0000
  S   S114      1.0  0.36202  0.41789  0.49176  1.0000
  Fe  Fe57      1.0  0.31921  0.44327  0.44444  1.0000
  S   S115      1.0  0.29295  0.46466  0.44157  1.0000
  S   S116      1.0  0.36844  0.41084  0.44349  1.0000
  S   S117      1.0  0.33601  0.43568  0.42115  1.0000
  S   S118      1.0  0.11943  0.66633  0.46864  1.0000
  Fe  Fe58      1.0  0.08366  0.41029  0.43245  1.0000
  S   S119      1.0  0.09092  0.39289  0.45560  1.0000
  S   S120      1.0  0.05803  0.38983  0.40946  1.0000
  Fe  Fe59      1.0  0.11810  0.46908  0.44450  1.0000
  S   S121      1.0  0.12913  0.45632  0.46815  1.0000
  S   S122      1.0  0.13510  0.51361  0.43755  1.0000
  Fe  Fe60      1.0  0.13474  0.42480  0.45327  1.0000
  S   S123      1.0  0.16724  0.41142  0.45874  1.0000
  Fe  Fe61      1.0  0.08485  0.42561  0.46900  1.0000
  S   S124      1.0  0.06604  0.42735  0.49347  1.0000
  S   S125      1.0  0.12755  0.44010  0.42944  1.0000
  S   S126      1.0  0.07385  0.44039  0.44610  1.0000
  Fe  Fe62      1.0  0.09822  0.63982  0.44668  1.0000
  C   C269      1.0  0.02035  0.66684  0.49056  1.0000
  S   S127      1.0  0.08198  0.59336  0.44739  1.0000
  H   H431      1.0  0.46696  0.49067  0.45016  1.0000
  H   H432      1.0  0.11702  0.48204  0.49634  1.0000
  S   S128      1.0  0.06570  0.65352  0.44594  1.0000
  S   S129      1.0  0.50384  0.59764  0.45399  1.0000
  H   H433      1.0  0.07257  0.50559  0.47490  1.0000
  H   H434      1.0  0.12149  0.54231  0.47446  1.0000
  C   C270      1.0  0.45545  0.44403  0.47947  1.0000
  C   C271      1.0  0.11991  0.53545  0.44002  1.0000
  C   C272      1.0  0.09252  0.52541  0.44369  1.0000
  C   C273      1.0  0.08136  0.54348  0.44583  1.0000
  C   C274      1.0  0.09734  0.57177  0.44430  1.0000
  C   C275      1.0  0.12469  0.58178  0.44052  1.0000
  C   C276      1.0  0.13584  0.56368  0.43833  1.0000
  H   H435      1.0  0.07991  0.50377  0.44489  1.0000
  H   H436      1.0  0.06014  0.53552  0.44864  1.0000
  H   H437      1.0  0.13722  0.60346  0.43925  1.0000
  H   H438      1.0  0.15704  0.57170  0.43543  1.0000
  C   C277      1.0  0.25807  0.44985  0.44656  1.0000
  C   C278      1.0  0.24205  0.46168  0.44091  1.0000
  C   C279      1.0  0.21425  0.45032  0.44455  1.0000
  C   C280      1.0  0.20221  0.42704  0.45396  1.0000
  C   C281      1.0  0.21831  0.41530  0.45964  1.0000
  C   C282      1.0  0.24605  0.42662  0.45598  1.0000
  H   H439      1.0  0.25113  0.47972  0.43367  1.0000
  H   H440      1.0  0.20215  0.45959  0.44011  1.0000
  H   H441      1.0  0.20925  0.39744  0.46704  1.0000
  H   H442      1.0  0.25823  0.41764  0.46071  1.0000
  C   C283      1.0  0.43996  0.51447  0.43241  1.0000
  C   C284      1.0  0.43649  0.52428  0.44762  1.0000
  C   C285      1.0  0.45623  0.54978  0.45392  1.0000
  C   C286      1.0  0.47963  0.56590  0.44513  1.0000
  C   C287      1.0  0.48302  0.55616  0.42988  1.0000
  C   C288      1.0  0.46332  0.53056  0.42361  1.0000
  H   H443      1.0  0.41876  0.51222  0.45461  1.0000
  H   H444      1.0  0.45346  0.55712  0.46574  1.0000
  H   H445      1.0  0.20874  0.38362  0.40634  1.0000
  H   H446      1.0  0.46629  0.52317  0.41185  1.0000
  H   H447      1.0  0.42874  0.47395  0.47954  1.0000
  H   H448      1.0  0.33625  0.35720  0.30071  1.0000
  H   H449      1.0  0.12223  0.47905  0.40714  1.0000
  H   H450      1.0  0.37221  0.37568  0.47600  1.0000
  H   H451      1.0  0.21432  0.39199  0.42776  1.0000
  H   H452      1.0  0.31419  0.34404  0.31769  1.0000
  C   C289      1.0  0.05731  0.36053  0.39972  1.0000
  H   H453      1.0  0.05302  0.47345  0.40793  1.0000
  H   H454      1.0  0.23973  0.37392  0.44458  1.0000
  C   C290      1.0  0.09671  0.53051  0.50302  1.0000
  H   H455      1.0  0.42445  0.41618  0.45352  1.0000
  H   H456      1.0  0.43823  0.42416  0.48276  1.0000
  C   C291      1.0  0.31737  0.35802  0.38746  1.0000
  H   H457      1.0  0.22818  0.35588  0.39319  1.0000
  H   H458      1.0  0.33243  0.37859  0.39071  1.0000
  C   C292      1.0  0.22956  0.34851  0.40555  1.0000
  H   H459      1.0  0.02369  0.37416  0.48128  1.0000
  C   C293      1.0  0.23630  0.35877  0.43454  1.0000
  N   N29       1.0  0.36693  0.53595  0.43518  1.0000
  C   C294      1.0  0.36375  0.52950  0.45271  1.0000
  C   C295      1.0  0.36615  0.51264  0.42567  1.0000
  C   C296      1.0  0.39323  0.56031  0.43284  1.0000
  C   C297      1.0  0.34451  0.54122  0.42950  1.0000
  H   H460      1.0  0.36395  0.54653  0.46024  1.0000
  H   H461      1.0  0.38039  0.52553  0.45745  1.0000
  H   H462      1.0  0.34418  0.51104  0.45487  1.0000
  H   H463      1.0  0.36895  0.51688  0.41241  1.0000
  H   H464      1.0  0.38244  0.50772  0.42980  1.0000
  H   H465      1.0  0.34642  0.49403  0.42695  1.0000
  H   H466      1.0  0.39627  0.56581  0.41975  1.0000
  H   H467      1.0  0.41056  0.55683  0.43687  1.0000
  H   H468      1.0  0.39470  0.57829  0.43995  1.0000
  H   H469      1.0  0.34603  0.54588  0.41628  1.0000
  H   H470      1.0  0.34443  0.55872  0.43638  1.0000
  H   H471      1.0  0.32440  0.52316  0.43123  1.0000
  N   N30       1.0  0.44838  0.45553  0.46513  1.0000
  H   H472      1.0  0.43571  0.44427  0.43997  1.0000
  C   C298      1.0  0.37963  0.39991  0.49815  1.0000
  C   C299      1.0  0.47153  0.48193  0.46121  1.0000
  H   H473      1.0  0.39471  0.34916  0.48649  1.0000
  C   C300      1.0  0.42465  0.45967  0.46889  1.0000
  C   C301      1.0  0.25958  0.39424  0.41536  1.0000
  C   C302      1.0  0.11169  0.49599  0.50362  1.0000
  C   C303      1.0  0.07988  0.49399  0.48268  1.0000
  C   C304      1.0  0.04208  0.34997  0.38507  1.0000
  H   H474      1.0  0.47654  0.49724  0.47140  1.0000
  N   N31       1.0  0.10371  0.51237  0.49291  1.0000
  C   C305      1.0  0.04332  0.67484  0.50073  1.0000
  N   N32       1.0  0.23414  0.36936  0.41845  1.0000
  C   C306      1.0  0.03367  0.40421  0.50072  1.0000
  C   C307      1.0  0.39414  0.36506  0.49413  1.0000
  C   C308      1.0  0.31587  0.34745  0.37142  1.0000
  H   H475      1.0  0.49003  0.47976  0.45865  1.0000
  H   H476      1.0  0.13169  0.51597  0.47402  1.0000
  C   C309      1.0  0.31463  0.34556  0.30410  1.0000
  C   C310      1.0  0.38139  0.38006  0.48815  1.0000
  H   H477      1.0  0.47316  0.44039  0.47709  1.0000
  H   H478      1.0  0.46045  0.45788  0.49042  1.0000
  H   H479      1.0  0.45925  0.43309  0.44754  1.0000
  C   C311      1.0  0.44168  0.43642  0.45093  1.0000
  H   H480      1.0  0.08473  0.48065  0.47448  1.0000
  H   H481      1.0  0.05302  0.46640  0.37792  1.0000
  H   H482      1.0  0.26404  0.41020  0.42506  1.0000
  H   H483      1.0  0.40690  0.44016  0.47187  1.0000
  H   H484      1.0  0.25857  0.40313  0.40347  1.0000
  N   N33       1.0  0.08685  0.47578  0.39434  1.0000
  C   C312      1.0  0.06999  0.46130  0.37976  1.0000
  C   C313      1.0  0.09868  0.50556  0.39243  1.0000
  C   C314      1.0  0.10889  0.46818  0.39636  1.0000
  C   C315      1.0  0.06985  0.46797  0.40893  1.0000
  H   H485      1.0  0.06091  0.43876  0.38098  1.0000
  H   H486      1.0  0.08215  0.46663  0.36849  1.0000
  H   H487      1.0  0.09066  0.54320  0.49525  1.0000
  H   H488      1.0  0.14512  0.54246  0.48958  1.0000
  H   H489      1.0  0.11173  0.51229  0.38156  1.0000
  H   H490      1.0  0.08265  0.51212  0.39105  1.0000
  H   H491      1.0  0.08205  0.47851  0.42011  1.0000
  H   H492      1.0  0.12196  0.47338  0.38549  1.0000
  H   H493      1.0  0.06065  0.44560  0.41080  1.0000
  C   C316      1.0  0.12649  0.52899  0.48231  1.0000
  H   H494      1.0  0.27718  0.38988  0.41505  1.0000
  H   H495      1.0  0.11154  0.51691  0.40333  1.0000
  H   H496      1.0  0.50091  0.56828  0.42298  1.0000
  H   H497      1.0  0.10064  0.44587  0.39818  1.0000
  H   H498      1.0  0.03106  0.35987  0.37990  1.0000
  H   H499      1.0  0.32988  0.36003  0.36241  1.0000
  H   H500      1.0  0.08320  0.35535  0.41752  1.0000
  H   H501      1.0  0.06267  0.48024  0.49026  1.0000
  H   H502      1.0  0.24646  0.34300  0.40541  1.0000
  C   C317      1.0  0.21123  0.37593  0.41837  1.0000
  H   H503      1.0  0.41855  0.46803  0.45831  1.0000
  C   C318      1.0  0.07144  0.34752  0.40627  1.0000
  C   C319      1.0  0.01703  0.37951  0.49252  1.0000
  H   H504      1.0  0.19173  0.35778  0.42101  1.0000
  H   H505      1.0  0.02251  0.66815  0.47744  1.0000
  H   H506      1.0  0.30415  0.35775  0.30076  1.0000
  H   H507      1.0  0.25354  0.35378  0.43505  1.0000
  H   H508      1.0  0.02552  0.59551  0.50413  1.0000
  S   S130      1.0  0.12523  0.67186  0.42941  1.0000
  C   C320      1.0  0.29958  0.34177  0.39927  1.0000
  H   H509      1.0  0.02060  0.34670  0.58680  1.0000
  S   S131      1.0  0.43073  0.37639  0.56379  1.0000
  C   C321      1.0  0.40544  0.36989  0.51007  1.0000
  Fe  Fe63      1.0  0.47075  0.37966  0.57247  1.0000
  H   H510      1.0  0.36358  0.36910  0.54342  1.0000
  H   H511      1.0  0.01219  0.66318  0.53773  1.0000
  H   H512      1.0  0.03184  0.37215  0.53726  1.0000
  H   H513      1.0  0.01621  0.39515  0.55782  1.0000
  H   H514      1.0  0.36147  0.37531  0.68269  1.0000
  C   C322      1.0  0.39157  0.40526  0.51391  1.0000
  H   H515      1.0  0.39050  0.42076  0.52168  1.0000
  H   H516      1.0  0.05423  0.36405  0.57902  1.0000
  H   H517      1.0  0.31328  0.34527  0.54423  1.0000
  H   H518      1.0  0.01092  0.38389  0.57849  1.0000
  S   S132      1.0  0.45029  0.34452  0.58932  1.0000
  C   C323      1.0  0.40470  0.39058  0.51977  1.0000
  C   C324      1.0  0.36318  0.35003  0.54777  1.0000
  H   H519      1.0  0.41385  0.39500  0.53192  1.0000
  H   H520      1.0  0.04476  0.40194  0.57107  1.0000
  H   H521      1.0  0.07949  0.51859  0.51111  1.0000
  C   C325      1.0  0.02371  0.38651  0.56762  1.0000
  H   H522      1.0  0.01857  0.59393  0.53384  1.0000
  H   H523      1.0  0.06090  0.37989  0.55024  1.0000
  H   H524      1.0  0.37660  0.34905  0.66388  1.0000
  Fe  Fe64      1.0  0.43184  0.34823  0.54414  1.0000
  H   H525      1.0  0.03725  0.42989  0.52173  1.0000
  S   S133      1.0  0.47333  0.35379  0.55175  1.0000
  C   C326      1.0  0.02463  0.41076  0.51534  1.0000
  C   C327      1.0  0.03278  0.34975  0.57559  1.0000
  H   H526      1.0  0.36451  0.35155  0.56135  1.0000
  H   H527      1.0  0.11423  0.54466  0.51092  1.0000
  N   N34       1.0  0.02258  0.36038  0.56221  1.0000
  S   S134      1.0  0.41887  0.34870  0.51761  1.0000
  C   C328      1.0  0.03942  0.36465  0.54766  1.0000
  H   H528      1.0  0.33777  0.34394  0.51897  1.0000
  S   S135      1.0  0.50483  0.41969  0.58306  1.0000
  H   H529      1.0  0.33545  0.35742  0.69713  1.0000
  C   C329      1.0  0.01428  0.66391  0.52460  1.0000
  H   H530      1.0  0.36846  0.35962  0.69988  1.0000
  C   C330      1.0  0.04012  0.67335  0.51777  1.0000
  H   H531      1.0  0.38176  0.34940  0.54348  1.0000
  H   H532      1.0  0.03920  0.34538  0.54333  1.0000
  C   C331      1.0  0.35273  0.35717  0.69052  1.0000
  H   H533      1.0  0.50674  0.37217  0.60335  1.0000
  H   H534      1.0  0.33158  0.34631  0.65963  1.0000
  H   H535      1.0  0.12957  0.50907  0.51158  1.0000
  H   H536      1.0  0.09481  0.48285  0.51161  1.0000
  H   H537      1.0  0.38021  0.35440  0.89311  1.0000
  S   S136      1.0  0.43375  0.37652  0.93398  1.0000
  S   S137      1.0  0.38536  0.36939  0.96979  1.0000
  Fe  Fe65      1.0  0.47030  0.37278  0.94331  1.0000
  H   H538      1.0  0.41874  0.37101  0.99820  1.0000
  C   C332      1.0  0.03018  0.41215  0.99688  1.0000
  Fe  Fe66      1.0  0.41416  0.35615  0.95739  1.0000
  S   S138      1.0  0.45143  0.35491  0.96726  1.0000
  H   H539      1.0  0.04268  0.64484  0.98948  1.0000
  H   H540      1.0  0.04470  0.42678  0.98884  1.0000
  H   H541      1.0  0.35280  0.38846  0.98727  1.0000
  H   H542      1.0  0.01091  0.42394  0.88031  1.0000
  C   C333      1.0  0.38587  0.37883  0.99070  1.0000
  H   H543      1.0  0.02085  0.36849  0.96927  1.0000
  C   C334      1.0  0.02582  0.63946  0.99755  1.0000
  C   C335      1.0  0.36711  0.38754  0.99599  1.0000
  H   H544      1.0  0.33032  0.35325  0.95174  1.0000
  H   H545      1.0  0.35609  0.35708  0.91809  1.0000
  H   H546      1.0  0.01036  0.42379  0.91059  1.0000
  H   H547      1.0  0.33885  0.35098  0.87901  1.0000
  H   H548      1.0  0.31682  0.35691  0.93241  1.0000
  C   C336      1.0  0.40422  0.37769  0.00210  1.0000
  H   H549      1.0  0.36958  0.35497  0.93761  1.0000
  H   H550      1.0  0.02107  0.34510  0.99411  1.0000
  H   H551      1.0  0.50201  0.44403  0.93602  1.0000
  H   H552      1.0  0.02349  0.66429  0.96630  1.0000
  C   C337      1.0  0.01096  0.67072  0.95864  1.0000
  H   H553      1.0  0.40783  0.47046  0.00538  1.0000
  H   H554      1.0  0.05960  0.57195  0.00571  1.0000
  C   C338      1.0  0.35599  0.34260  0.92733  1.0000
  C   C339      1.0  0.31744  0.34174  0.94089  1.0000
  C   C340      1.0  0.03992  0.73911  0.11428  1.0000
  H   H555      1.0  0.33701  0.97803  0.13840  1.0000
  H   H556      1.0  0.38261  0.00317  0.03511  1.0000
  C   C341      1.0  0.26752  0.97300  0.25517  1.0000
  Fe  Fe67      1.0  0.04900  0.81188  0.19433  1.0000
  S   S139      1.0  0.09062  0.83933  0.20526  1.0000
  S   S140      1.0  0.04072  0.76868  0.18910  1.0000
  H   H557      1.0  0.30980  0.85180  0.02231  1.0000
  H   H558      1.0  0.04235  0.81259  0.25155  1.0000
  Fe  Fe68      1.0  0.19720  0.98405  0.18635  1.0000
  S   S141      1.0  0.15201  0.96513  0.19008  1.0000
  S   S142      1.0  0.21921  0.95928  0.18328  1.0000
  C   C342      1.0  0.40468  0.94093  0.10922  1.0000
  S   S143      1.0  0.09229  0.71155  0.06451  1.0000
  C   C343      1.0  0.27107  0.95979  0.11342  1.0000
  Fe  Fe69      1.0  0.13584  0.71914  0.06566  1.0000
  S   S144      1.0  0.16554  0.76487  0.06817  1.0000
  H   H559      1.0  0.03496  0.75169  0.10641  1.0000
  H   H560      1.0  0.48380  0.84345  0.04458  1.0000
  Fe  Fe70      1.0  0.38253  0.92468  0.06416  1.0000
  S   S145      1.0  0.35352  0.90444  0.04298  1.0000
  S   S146      1.0  0.42849  0.93970  0.06534  1.0000
  Fe  Fe71      1.0  0.34117  0.93721  0.08216  1.0000
  S   S147      1.0  0.30896  0.91836  0.06219  1.0000
  S   S148      1.0  0.34299  0.95820  0.10680  1.0000
  Fe  Fe72      1.0  0.32080  0.88456  0.06154  1.0000
  S   S149      1.0  0.29255  0.83902  0.05672  1.0000
  Fe  Fe73      1.0  0.34325  0.93911  0.04461  1.0000
  S   S150      1.0  0.33779  0.95462  0.01992  1.0000
  S   S151      1.0  0.35093  0.90198  0.08269  1.0000
  S   S152      1.0  0.37412  0.96076  0.06457  1.0000
  C   C344      1.0  0.48691  0.90211  0.07051  1.0000
  C   C345      1.0  0.45870  0.88545  0.07139  1.0000
  C   C346      1.0  0.44041  0.89642  0.06970  1.0000
  C   C347      1.0  0.45020  0.92426  0.06716  1.0000
  C   C348      1.0  0.47839  0.94089  0.06634  1.0000
  C   C349      1.0  0.45255  0.97204  0.10991  1.0000
  H   H561      1.0  0.45093  0.86392  0.07343  1.0000
  H   H562      1.0  0.41881  0.88336  0.07041  1.0000
  H   H563      1.0  0.48622  0.96244  0.06436  1.0000
  H   H564      1.0  0.14486  0.93089  0.23312  1.0000
  H   H565      1.0  0.20399  0.94877  0.22529  1.0000
  H   H566      1.0  0.42502  0.96872  0.13744  1.0000
  N   N35       1.0  0.28304  0.86493  0.01080  1.0000
  S   S153      1.0  0.24705  0.97557  0.13755  1.0000
  H   H567      1.0  0.27511  0.82648  0.02097  1.0000
  C   C350      1.0  0.25727  0.81879  0.06023  1.0000
  C   C351      1.0  0.24096  0.83005  0.06599  1.0000
  C   C352      1.0  0.21300  0.81322  0.06827  1.0000
  C   C353      1.0  0.20094  0.78493  0.06490  1.0000
  C   C354      1.0  0.21724  0.77370  0.05911  1.0000
  C   C355      1.0  0.24518  0.79056  0.05674  1.0000
  H   H568      1.0  0.24987  0.85169  0.06873  1.0000
  H   H569      1.0  0.20064  0.82222  0.07269  1.0000
  H   H570      1.0  0.20836  0.75203  0.05646  1.0000
  H   H571      1.0  0.25756  0.78159  0.05229  1.0000
  C   C356      1.0  0.27370  0.97014  0.12954  1.0000
  C   C357      1.0  0.29761  0.97673  0.13850  1.0000
  C   C358      1.0  0.31861  0.97292  0.13137  1.0000
  C   C359      1.0  0.31585  0.96230  0.11529  1.0000
  C   C360      1.0  0.29193  0.95573  0.10635  1.0000
  C   C361      1.0  0.49664  0.92992  0.06794  1.0000
  H   H572      1.0  0.03939  0.72341  0.15426  1.0000
  H   H573      1.0  0.40720  0.92823  0.11877  1.0000
  H   H574      1.0  0.28955  0.94763  0.09396  1.0000
  H   H575      1.0  0.26028  0.85866  0.03279  1.0000
  Fe  Fe74      1.0  0.08359  0.67597  0.04725  1.0000
  C   C362      1.0  0.10730  0.87390  0.20015  1.0000
  C   C363      1.0  0.09299  0.88725  0.19435  1.0000
  C   C364      1.0  0.10687  0.91526  0.19125  1.0000
  C   C365      1.0  0.13513  0.92985  0.19352  1.0000
  C   C366      1.0  0.14938  0.91635  0.19917  1.0000
  C   C367      1.0  0.13547  0.88857  0.20268  1.0000
  H   H576      1.0  0.07123  0.87611  0.19248  1.0000
  H   H577      1.0  0.09572  0.92561  0.18694  1.0000
  H   H578      1.0  0.17107  0.92736  0.20104  1.0000
  H   H579      1.0  0.14664  0.87832  0.20711  1.0000
  C   C368      1.0  0.03599  0.73975  0.13122  1.0000
  C   C369      1.0  0.04240  0.72327  0.14123  1.0000
  C   C370      1.0  0.05204  0.70594  0.13431  1.0000
  C   C371      1.0  0.05582  0.70517  0.11738  1.0000
  C   C372      1.0  0.04997  0.72208  0.10739  1.0000
  C   C373      1.0  0.16060  0.95165  0.23706  1.0000
  H   H580      1.0  0.26301  0.95189  0.25353  1.0000
  H   H581      1.0  0.12705  0.83577  0.25362  1.0000
  H   H582      1.0  0.05258  0.72158  0.09434  1.0000
  S   S154      1.0  0.12965  0.69076  0.08632  1.0000
  H   H583      1.0  0.01596  0.70621  0.23803  1.0000
  C   C374      1.0  0.20330  0.97866  0.25139  1.0000
  C   C375      1.0  0.19549  0.93740  0.23664  1.0000
  S   S155      1.0  0.26232  0.97257  0.22192  1.0000
  H   H584      1.0  0.49544  0.82531  0.06863  1.0000
  C   C376      1.0  0.42089  0.98579  0.09826  1.0000
  S   S156      1.0  0.02245  0.76093  0.13916  1.0000
  H   H585      1.0  0.42333  0.97862  0.08590  1.0000
  H   H586      1.0  0.49354  0.78109  0.04431  1.0000
  N   N36       1.0  0.18279  0.95065  0.24668  1.0000
  C   C377      1.0  0.48838  0.79714  0.04004  1.0000
  N   N37       1.0  0.13745  0.77501  0.11453  1.0000
  C   C378      1.0  0.11259  0.77684  0.11878  1.0000
  C   C379      1.0  0.12995  0.74771  0.10735  1.0000
  C   C380      1.0  0.15443  0.77950  0.12944  1.0000
  C   C381      1.0  0.15283  0.79590  0.10254  1.0000
  H   H587      1.0  0.11738  0.79706  0.12441  1.0000
  H   H588      1.0  0.10031  0.76106  0.12764  1.0000
  H   H589      1.0  0.09940  0.77370  0.10777  1.0000
  H   H590      1.0  0.11888  0.73135  0.11616  1.0000
  H   H591      1.0  0.11653  0.74330  0.09632  1.0000
  H   H592      1.0  0.14819  0.74590  0.10350  1.0000
  H   H593      1.0  0.17325  0.77800  0.12664  1.0000
  H   H594      1.0  0.14334  0.76407  0.13874  1.0000
  H   H595      1.0  0.16063  0.80000  0.13513  1.0000
  H   H596      1.0  0.17197  0.79535  0.09930  1.0000
  H   H597      1.0  0.15835  0.81679  0.10732  1.0000
  H   H598      1.0  0.14095  0.79248  0.09089  1.0000
  C   C382      1.0  0.27723  0.87512  0.02627  1.0000
  H   H599      1.0  0.43722  0.00220  0.12931  1.0000
  C   C383      1.0  0.11115  0.84186  0.25043  1.0000
  H   H600      1.0  0.07965  0.79894  0.23077  1.0000
  H   H601      1.0  0.05800  0.77831  0.24634  1.0000
  N   N38       1.0  0.08376  0.81999  0.25385  1.0000
  H   H602      1.0  0.29992  0.98469  0.15092  1.0000
  C   C384      1.0  0.07853  0.79518  0.24414  1.0000
  S   S157      1.0  0.03041  0.81509  0.17059  1.0000
  H   H603      1.0  0.21257  0.93652  0.24337  1.0000
  H   H604      1.0  0.45644  0.96010  0.11942  1.0000
  Fe  Fe75      1.0  0.24244  0.98805  0.16361  1.0000
  C   C385      1.0  0.26869  0.98834  0.24149  1.0000
  H   H605      1.0  0.18066  0.91624  0.23281  1.0000
  Fe  Fe76      1.0  0.24959  0.99034  0.20096  1.0000
  C   C386      1.0  0.36093  0.98683  0.01229  1.0000
  H   H606      1.0  0.06412  0.83355  0.23612  1.0000
  H   H607      1.0  0.40629  0.93224  0.09716  1.0000
  H   H608      1.0  0.45513  0.96405  0.09778  1.0000
  H   H609      1.0  0.09346  0.78775  0.24721  1.0000
  H   H610      1.0  0.43566  0.00777  0.09951  1.0000
  H   H611      1.0  0.48494  0.79433  0.02656  1.0000
  H   H612      1.0  0.38371  0.93850  0.11004  1.0000
  H   H613      1.0  0.46857  0.99357  0.11123  1.0000
  H   H614      1.0  0.16829  0.96343  0.22573  1.0000
  C   C387      1.0  0.38082  0.00710  0.02238  1.0000
  C   C388      1.0  0.29117  0.84361  0.01433  1.0000
  C   C389      1.0  0.42218  0.98041  0.12736  1.0000
  H   H615      1.0  0.46886  0.79341  0.04563  1.0000
  H   H616      1.0  0.40013  0.98404  0.09860  1.0000
  C   C390      1.0  0.50252  0.84535  0.03867  1.0000
  H   H617      1.0  0.49900  0.84374  0.02521  1.0000
  H   H618      1.0  0.25268  0.95470  0.10637  1.0000
  N   N39       1.0  0.42512  0.96982  0.11120  1.0000
  H   H619      1.0  0.29514  0.88312  0.03470  1.0000
  H   H620      1.0  0.21308  0.99067  0.24045  1.0000
  Fe  Fe77      1.0  0.01919  0.77083  0.16612  1.0000
  H   H621      1.0  0.32418  0.89692  0.01036  1.0000
  H   H622      1.0  0.27204  0.89200  0.02428  1.0000
  H   H623      1.0  0.05637  0.69286  0.14214  1.0000
  H   H624      1.0  0.11314  0.84680  0.23723  1.0000
  C   C391      1.0  0.06327  0.82881  0.24934  1.0000
  C   C392      1.0  0.01412  0.72108  0.24600  1.0000
  H   H625      1.0  0.15041  0.96143  0.24419  1.0000
  S   S158      1.0  0.12769  0.68607  0.04677  1.0000
  S   S159      1.0  0.01111  0.80113  0.20832  1.0000
  H   H626      1.0  0.40154  0.97888  0.12851  1.0000
  Fe  Fe78      1.0  0.08598  0.68241  0.08465  1.0000
  S   S160      1.0  0.06733  0.68237  0.10936  1.0000
  Fe  Fe79      1.0  0.03072  0.81483  0.33359  1.0000
  S   S161      1.0  0.04561  0.78378  0.33583  1.0000
  S   S162      1.0  0.05801  0.85881  0.34052  1.0000
  H   H627      1.0  0.16250  0.94459  0.26965  1.0000
  H   H628      1.0  0.09003  0.83061  0.35417  1.0000
  H   H629      1.0  0.14453  0.71955  0.48190  1.0000
  Fe  Fe80      1.0  0.20320  0.95897  0.31898  1.0000
  S   S163      1.0  0.24584  0.96516  0.32302  1.0000
  S   S164      1.0  0.17152  0.92022  0.30631  1.0000
  H   H630      1.0  0.08650  0.83259  0.27918  1.0000
  H   H631      1.0  0.34256  0.97704  0.42100  1.0000
  S   S165      1.0  0.20105  0.97673  0.34348  1.0000
  H   H632      1.0  0.10556  0.80096  0.38017  1.0000
  Fe  Fe81      1.0  0.34946  0.94252  0.45926  1.0000
  S   S166      1.0  0.38100  0.94858  0.44063  1.0000
  S   S167      1.0  0.34897  0.97659  0.47532  1.0000
  Fe  Fe82      1.0  0.31141  0.88270  0.44667  1.0000
  S   S168      1.0  0.34152  0.88516  0.42777  1.0000
  S   S169      1.0  0.26618  0.85188  0.44417  1.0000
  Fe  Fe83      1.0  0.37410  0.90657  0.44737  1.0000
  S   S170      1.0  0.40810  0.89639  0.45539  1.0000
  Fe  Fe84      1.0  0.34564  0.92672  0.42280  1.0000
  S   S171      1.0  0.34265  0.93948  0.39680  1.0000
  S   S172      1.0  0.34336  0.90130  0.46688  1.0000
  S   S173      1.0  0.31497  0.92375  0.44088  1.0000
  H   H633      1.0  0.17413  0.72794  0.49418  1.0000
  S   S174      1.0  0.11433  0.71685  0.45124  1.0000
  H   H634      1.0  0.27154  0.97290  0.28144  1.0000
  Fe  Fe85      1.0  0.14387  0.69983  0.45145  1.0000
  S   S175      1.0  0.18909  0.72604  0.45779  1.0000
  H   H635      1.0  0.03461  0.71386  0.26635  1.0000
  C   C393      1.0  0.21065  0.76058  0.45294  1.0000
  C   C394      1.0  0.20093  0.77641  0.44481  1.0000
  C   C395      1.0  0.21830  0.80421  0.44223  1.0000
  C   C396      1.0  0.24569  0.81653  0.44752  1.0000
  C   C397      1.0  0.25556  0.80060  0.45537  1.0000
  C   C398      1.0  0.23808  0.77285  0.45814  1.0000
  H   H636      1.0  0.17994  0.76729  0.44067  1.0000
  H   H637      1.0  0.21040  0.81629  0.43614  1.0000
  H   H638      1.0  0.27654  0.80972  0.45952  1.0000
  H   H639      1.0  0.24586  0.76083  0.46444  1.0000
  S   S176      1.0  0.25556  0.97650  0.37245  1.0000
  C   C399      1.0  0.47994  0.89429  0.44911  1.0000
  C   C400      1.0  0.45536  0.89167  0.45545  1.0000
  C   C401      1.0  0.43893  0.90034  0.44666  1.0000
  C   C402      1.0  0.44755  0.91184  0.43141  1.0000
  C   C403      1.0  0.47210  0.91442  0.42505  1.0000
  C   C404      1.0  0.13026  0.75481  0.49638  1.0000
  H   H640      1.0  0.44881  0.88252  0.46720  1.0000
  H   H641      1.0  0.43518  0.91853  0.42445  1.0000
  H   H642      1.0  0.47839  0.92317  0.41319  1.0000
  H   H643      1.0  0.04535  0.80848  0.36738  1.0000
  Fe  Fe86      1.0  0.01901  0.76405  0.31357  1.0000
  H   H644      1.0  0.15624  0.91378  0.25861  1.0000
  H   H645      1.0  0.04329  0.80734  0.38907  1.0000
  H   H646      1.0  0.04861  0.73204  0.36075  1.0000
  C   C405      1.0  0.31731  0.94804  0.38966  1.0000
  C   C406      1.0  0.31906  0.95843  0.37394  1.0000
  C   C407      1.0  0.29984  0.96644  0.36819  1.0000
  C   C408      1.0  0.27878  0.96429  0.37820  1.0000
  C   C409      1.0  0.27676  0.95337  0.39379  1.0000
  C   C410      1.0  0.29574  0.94507  0.39942  1.0000
  H   H647      1.0  0.50240  0.95683  0.47650  1.0000
  H   H648      1.0  0.09667  0.80661  0.27524  1.0000
  S   S177      1.0  0.21601  0.99841  0.30642  1.0000
  H   H649      1.0  0.29367  0.93643  0.41133  1.0000
  H   H650      1.0  0.12063  0.84521  0.36649  1.0000
  C   C411      1.0  0.17189  0.93498  0.26161  1.0000
  C   C412      1.0  0.08940  0.87539  0.33083  1.0000
  C   C413      1.0  0.10767  0.90207  0.33587  1.0000
  C   C414      1.0  0.13296  0.91584  0.32851  1.0000
  C   C415      1.0  0.14012  0.90306  0.31599  1.0000
  C   C416      1.0  0.12180  0.87632  0.31090  1.0000
  C   C417      1.0  0.09654  0.86241  0.31837  1.0000
  H   H651      1.0  0.10222  0.91223  0.34545  1.0000
  H   H652      1.0  0.14672  0.93652  0.33236  1.0000
  H   H653      1.0  0.12731  0.86630  0.30128  1.0000
  H   H654      1.0  0.08257  0.84178  0.31448  1.0000
  C   C418      1.0  0.03020  0.73249  0.38364  1.0000
  C   C419      1.0  0.15419  0.72812  0.49401  1.0000
  C   C420      1.0  0.04673  0.71697  0.40709  1.0000
  C   C421      1.0  0.06452  0.71242  0.39709  1.0000
  C   C422      1.0  0.06508  0.71807  0.38036  1.0000
  C   C423      1.0  0.04802  0.72799  0.37365  1.0000
  H   H655      1.0  0.05413  0.83927  0.37885  1.0000
  H   H656      1.0  0.30168  0.97481  0.35617  1.0000
  C   C424      1.0  0.40079  0.99860  0.48934  1.0000
  H   H657      1.0  0.09885  0.86111  0.36598  1.0000
  S   S178      1.0  0.07650  0.68798  0.49291  1.0000
  S   S179      1.0  0.03347  0.74667  0.29304  1.0000
  H   H658      1.0  0.07871  0.71453  0.37252  1.0000
  H   H659      1.0  0.07335  0.78547  0.38993  1.0000
  H   H660      1.0  0.49197  0.88705  0.45594  1.0000
  H   H661      1.0  0.35756  0.98737  0.44106  1.0000
  H   H662      1.0  0.33556  0.96066  0.36621  1.0000
  H   H663      1.0  0.11909  0.74586  0.48461  1.0000
  N   N40       1.0  0.15732  0.75589  0.49660  1.0000
  Fe  Fe87      1.0  0.09405  0.68737  0.42999  1.0000
  H   H664      1.0  0.04603  0.71267  0.41996  1.0000
  H   H665      1.0  0.26042  0.95142  0.40157  1.0000
  Fe  Fe88      1.0  0.08855  0.68170  0.46719  1.0000
  C   C425      1.0  0.27226  0.98484  0.27098  1.0000
  H   H666      1.0  0.40469  0.98580  0.48075  1.0000
  H   H667      1.0  0.01595  0.73034  0.40822  1.0000
  H   H668      1.0  0.13171  0.77540  0.49807  1.0000
  H   H669      1.0  0.06157  0.79825  0.27463  1.0000
  C   C426      1.0  0.02111  0.74343  0.27277  1.0000
  H   H670      1.0  0.19414  0.77433  0.48310  1.0000
  H   H671      1.0  0.21968  0.97856  0.25928  1.0000
  S   S180      1.0  0.08669  0.70005  0.40470  1.0000
  Fe  Fe89      1.0  0.24480  0.98552  0.34695  1.0000
  C   C427      1.0  0.17368  0.77334  0.48339  1.0000
  N   N41       1.0  0.27308  0.85335  0.39379  1.0000
  C   C428      1.0  0.29915  0.86855  0.38553  1.0000
  C   C429      1.0  0.26781  0.87244  0.40415  1.0000
  C   C430      1.0  0.27436  0.83231  0.40408  1.0000
  C   C431      1.0  0.25094  0.84016  0.38141  1.0000
  H   H672      1.0  0.30372  0.85497  0.37738  1.0000
  H   H673      1.0  0.31635  0.87849  0.39453  1.0000
  H   H674      1.0  0.29916  0.88512  0.37803  1.0000
  H   H675      1.0  0.24891  0.86161  0.41116  1.0000
  H   H676      1.0  0.28462  0.88343  0.41326  1.0000
  H   H677      1.0  0.26576  0.88802  0.39673  1.0000
  H   H678      1.0  0.25499  0.82046  0.41050  1.0000
  H   H679      1.0  0.29049  0.84156  0.41378  1.0000
  H   H680      1.0  0.27864  0.81768  0.39676  1.0000
  H   H681      1.0  0.23097  0.82870  0.38729  1.0000
  H   H682      1.0  0.25417  0.82547  0.37343  1.0000
  H   H683      1.0  0.24948  0.85547  0.37339  1.0000
  N   N42       1.0  0.08391  0.82470  0.37999  1.0000
  C   C432      1.0  0.09650  0.83953  0.39551  1.0000
  C   C433      1.0  0.08449  0.79829  0.37954  1.0000
  C   C434      1.0  0.09908  0.84111  0.36610  1.0000
  C   C435      1.0  0.05547  0.81984  0.37885  1.0000
  H   H684      1.0  0.09634  0.85955  0.39623  1.0000
  H   H685      1.0  0.11797  0.84349  0.39678  1.0000
  H   H686      1.0  0.08546  0.82766  0.40622  1.0000
  H   H687      1.0  0.07463  0.78630  0.36813  1.0000
  C   C436      1.0  0.02968  0.72696  0.40038  1.0000
  C   C437      1.0  0.08210  0.81416  0.27148  1.0000
  H   H688      1.0  0.16383  0.76521  0.47119  1.0000
  C   C438      1.0  0.35267  0.99483  0.42960  1.0000
  C   C439      1.0  0.37522  0.99760  0.48945  1.0000
  C   C440      1.0  0.48852  0.90575  0.43384  1.0000
  C   C441      1.0  0.02450  0.72529  0.26208  1.0000
  H   H689      1.0  0.17660  0.79453  0.48483  1.0000
  H   H690      1.0  0.19421  0.98968  0.25838  1.0000
  H   H691      1.0  0.32014  0.00157  0.40790  1.0000
  H   H692      1.0  0.29582  0.99718  0.44231  1.0000
  H   H693      1.0  0.18817  0.93376  0.26910  1.0000
  S   S181      1.0  0.00910  0.74607  0.37596  1.0000
  C   C442      1.0  0.30928  0.98789  0.43950  1.0000
  H   H694      1.0  0.14111  0.71392  0.50334  1.0000
  H   H695      1.0  0.29802  0.97051  0.43077  1.0000
  H   H696      1.0  0.31255  0.97927  0.45101  1.0000
  H   H697      1.0  0.50130  0.95054  0.45492  1.0000
  Fe  Fe90      1.0  0.25830  0.00624  0.31233  1.0000
  N   N43       1.0  0.33528  0.00795  0.43277  1.0000
  H   H698      1.0  0.11572  0.86089  0.25752  1.0000
  H   H699      1.0  0.11734  0.74175  0.50620  1.0000
  H   H700      1.0  0.06639  0.84737  0.25646  1.0000
  C   C443      1.0  0.01041  0.72657  0.63099  1.0000
  H   H701      1.0  0.12088  0.83521  0.64520  1.0000
  Fe  Fe91      1.0  0.04175  0.78298  0.70216  1.0000
  H   H702      1.0  0.15933  0.75424  0.52274  1.0000
  S   S182      1.0  0.05557  0.77138  0.72553  1.0000
  Fe  Fe92      1.0  0.05272  0.83164  0.68142  1.0000
  S   S183      1.0  0.07826  0.87656  0.67620  1.0000
  S   S184      1.0  0.06811  0.80075  0.68041  1.0000
  C   C444      1.0  0.17113  0.76712  0.51255  1.0000
  H   H703      1.0  0.31604  0.98984  0.73808  1.0000
  S   S185      1.0  0.03120  0.76021  0.63879  1.0000
  Fe  Fe93      1.0  0.03059  0.77516  0.66489  1.0000
  C   C445      1.0  0.25680  0.99696  0.74568  1.0000
  Fe  Fe94      1.0  0.23529  0.98219  0.67754  1.0000
  S   S186      1.0  0.20734  0.93658  0.67573  1.0000
  H   H704      1.0  0.29882  0.00384  0.72593  1.0000
  S   S187      1.0  0.02884  0.81568  0.70419  1.0000
  H   H705      1.0  0.24854  0.98627  0.73412  1.0000
  S   S188      1.0  0.27418  0.99430  0.69206  1.0000
  H   H706      1.0  0.49184  0.99417  0.55819  1.0000
  H   H707      1.0  0.17380  0.78808  0.51492  1.0000
  C   C446      1.0  0.11420  0.89351  0.67763  1.0000
  C   C447      1.0  0.12821  0.92143  0.67438  1.0000
  C   C448      1.0  0.15679  0.93518  0.67428  1.0000
  C   C449      1.0  0.17158  0.92095  0.67714  1.0000
  C   C450      1.0  0.15755  0.89307  0.68048  1.0000
  C   C451      1.0  0.12904  0.87949  0.68096  1.0000
  H   H708      1.0  0.11691  0.93246  0.67182  1.0000
  H   H709      1.0  0.16735  0.95662  0.67165  1.0000
  H   H710      1.0  0.16886  0.88196  0.68278  1.0000
  H   H711      1.0  0.11863  0.85815  0.68379  1.0000
  H   H712      1.0  0.09720  0.84097  0.65712  1.0000
  H   H713      1.0  0.08590  0.80972  0.64539  1.0000
  H   H714      1.0  0.19162  0.76819  0.51303  1.0000
  S   S189      1.0  0.01645  0.80710  0.66488  1.0000
  H   H715      1.0  0.46488  0.00217  0.55297  1.0000
  C   C452      1.0  0.03768  0.77276  0.74287  1.0000
  N   N44       1.0  0.09338  0.84487  0.63143  1.0000
  C   C453      1.0  0.09622  0.83216  0.61603  1.0000
  C   C454      1.0  0.06524  0.84073  0.63258  1.0000
  C   C455      1.0  0.11234  0.87438  0.63186  1.0000
  C   C456      1.0  0.09964  0.83208  0.64537  1.0000
  H   H716      1.0  0.08209  0.80984  0.61550  1.0000
  H   H717      1.0  0.11719  0.83475  0.61484  1.0000
  H   H718      1.0  0.09157  0.84123  0.60519  1.0000
  H   H719      1.0  0.06243  0.85009  0.64410  1.0000
  H   H720      1.0  0.05968  0.85003  0.62224  1.0000
  H   H721      1.0  0.05044  0.81866  0.63252  1.0000
  H   H722      1.0  0.11020  0.88446  0.64328  1.0000
  H   H723      1.0  0.10856  0.88476  0.62140  1.0000
  H   H724      1.0  0.13385  0.87832  0.63156  1.0000
  H   H725      1.0  0.31354  0.98486  0.71618  1.0000
  C   C457      1.0  0.01355  0.77452  0.74105  1.0000
  H   H726      1.0  0.05777  0.67975  0.52576  1.0000
  H   H727      1.0  0.01461  0.73892  0.60593  1.0000
  C   C458      1.0  0.31658  0.99979  0.72631  1.0000
  H   H728      1.0  0.36309  0.00496  0.71380  1.0000
  S   S190      1.0  0.25698  0.00822  0.65626  1.0000
  H   H729      1.0  0.22285  0.99941  0.90006  1.0000
  H   H730      1.0  0.10731  0.85509  0.76483  1.0000
  C   C459      1.0  0.08854  0.85035  0.77167  1.0000
  C   C460      1.0  0.16212  0.98136  0.88078  1.0000
  H   H731      1.0  0.18806  0.95324  0.90784  1.0000
  Fe  Fe95      1.0  0.04704  0.80640  0.84050  1.0000
  S   S191      1.0  0.09270  0.83289  0.84253  1.0000
  S   S192      1.0  0.03416  0.76860  0.82448  1.0000
  Fe  Fe96      1.0  0.19871  0.98791  0.83458  1.0000
  S   S193      1.0  0.23127  0.97536  0.83843  1.0000
  S   S194      1.0  0.15372  0.96230  0.83918  1.0000
  H   H732      1.0  0.20182  0.97728  0.86542  1.0000
  C   C461      1.0  0.06819  0.84588  0.79805  1.0000
  H   H733      1.0  0.11831  0.88347  0.80753  1.0000
  H   H734      1.0  0.07145  0.84729  0.81156  1.0000
  C   C462      1.0  0.11392  0.88098  0.79412  1.0000
  H   H735      1.0  0.03220  0.73300  0.97703  1.0000
  S   S195      1.0  0.01854  0.78351  0.86066  1.0000
  H   H736      1.0  0.24165  0.96027  0.75960  1.0000
  H   H737      1.0  0.15535  0.93769  0.89766  1.0000
  C   C463      1.0  0.26257  0.99602  0.77524  1.0000
  C   C464      1.0  0.10924  0.86885  0.84154  1.0000
  C   C465      1.0  0.13765  0.88268  0.84055  1.0000
  C   C466      1.0  0.15155  0.91125  0.83951  1.0000
  C   C467      1.0  0.13713  0.92628  0.83966  1.0000
  C   C468      1.0  0.10873  0.91244  0.84064  1.0000
  C   C469      1.0  0.09480  0.88385  0.84146  1.0000
  H   H738      1.0  0.14899  0.87122  0.84056  1.0000
  H   H739      1.0  0.17341  0.92162  0.83873  1.0000
  H   H740      1.0  0.09742  0.92392  0.84080  1.0000
  H   H741      1.0  0.07294  0.87348  0.84228  1.0000
  Fe  Fe97      1.0  0.24815  0.99722  0.81508  1.0000
  C   C470      1.0  0.03360  0.77377  0.77255  1.0000
  H   H742      1.0  0.04135  0.77336  0.78465  1.0000
  H   H743      1.0  0.10662  0.89588  0.79077  1.0000
  H   H744      1.0  0.34353  0.97697  0.98786  1.0000
  H   H745      1.0  0.08949  0.81230  0.79121  1.0000
  N   N45       1.0  0.09372  0.85276  0.78954  1.0000
  H   H746      1.0  0.13352  0.88690  0.78797  1.0000
  H   H747      1.0  0.17006  0.99555  0.87045  1.0000
  S   S196      1.0  0.25737  0.97758  0.79326  1.0000
  C   C471      1.0  0.35886  0.99245  0.99578  1.0000
  H   H748      1.0  0.04617  0.70978  0.97926  1.0000
  S   S197      1.0  0.21385  0.00681  0.81043  1.0000
  H   H749      1.0  0.06613  0.77052  0.76011  1.0000
  H   H750      1.0  0.15357  0.99051  0.88972  1.0000
  C   C472      1.0  0.25845  0.85334  0.00012  1.0000
  H   H751      1.0  0.01233  0.70714  0.79256  1.0000
  H   H752      1.0  0.07319  0.82938  0.76780  1.0000
  C   C473      1.0  0.10424  0.83379  0.79442  1.0000
  H   H753      1.0  0.14515  0.96219  0.87560  1.0000
  H   H754      1.0  0.04622  0.72394  0.95968  1.0000
  H   H755      1.0  0.10829  0.83508  0.80788  1.0000
  H   H756      1.0  0.17770  0.94400  0.87112  1.0000
  H   H757      1.0  0.21092  0.96068  0.88098  1.0000
  N   N46       1.0  0.18359  0.97630  0.88834  1.0000
  S   S198      1.0  0.01858  0.81965  0.82861  1.0000
  H   H758      1.0  0.16436  0.96626  0.91158  1.0000
  C   C474      1.0  0.19393  0.96389  0.87599  1.0000
  C   C475      1.0  0.04755  0.77210  0.75866  1.0000
  C   C476      1.0  0.20603  0.00237  0.89453  1.0000
  H   H759      1.0  0.12358  0.83838  0.78830  1.0000
  C   C477      1.0  0.17232  0.95754  0.90199  1.0000
  C   C478      1.0  0.30533  0.88767  0.00257  1.0000
  H   H760      1.0  0.44498  0.00774  0.98840  1.0000
  H   H761      1.0  0.30012  0.90440  0.99999  1.0000
  H   H762      1.0  0.25176  0.86894  0.99736  1.0000
  H   H763      1.0  0.05237  0.82477  0.79483  1.0000
  H   H764      1.0  0.05970  0.85989  0.79485  1.0000
  C   C479      1.0  0.25279  0.98228  0.76010  1.0000
  C   C480      1.0  0.03416  0.71594  0.97086  1.0000
  H   H765      1.0  0.26210  0.84549  0.98829  1.0000
  H   H766      1.0  0.29543  0.83510  0.00296  1.0000
  H   H767      1.0  0.08068  0.86447  0.76756  1.0000
  H   H768      1.0  0.01132  0.72794  0.88010  1.0000
  H   H769      1.0  0.31034  0.88089  0.99081  1.0000
  H   H770      1.0  0.02115  0.67717  0.94672  1.0000
  C   C481      1.0  0.00959  0.77585  0.77061  1.0000
  H   H771      1.0  0.24132  0.83613  0.00604  1.0000
  Fe  Fe98      1.0  0.98603  0.21801  0.16887  1.0000
  C   C482      1.0  0.63765  0.03132  0.01814  1.0000
  S   S199      1.0  0.94118  0.19176  0.16257  1.0000
  S   S200      1.0  0.81366  0.02276  0.20305  1.0000
  C   C483      1.0  0.74704  0.05920  0.24487  1.0000
  H   H772      1.0  0.91844  0.01173  0.16495  1.0000
  H   H773      1.0  0.99341  0.30692  0.12848  1.0000
  H   H774      1.0  0.98138  0.32035  0.15441  1.0000
  Fe  Fe99      1.0  0.83003  0.04131  0.17887  1.0000
  S   S201      1.0  0.79709  0.05314  0.17420  1.0000
  S   S202      1.0  0.87593  0.06501  0.17713  1.0000
  H   H775      1.0  0.74493  0.08668  0.15515  1.0000
  H   H776      1.0  0.96236  0.24726  0.15498  1.0000
  H   H777      1.0  0.93204  0.27207  0.12291  1.0000
  H   H778      1.0  0.63172  0.04325  0.02618  1.0000
  H   H779      1.0  0.75454  0.06001  0.15333  1.0000
  H   H780      1.0  0.93018  0.24691  0.15641  1.0000
  C   C484      1.0  0.76129  0.04840  0.23598  1.0000
  H   H781      1.0  0.73521  0.06718  0.23849  1.0000
  H   H782      1.0  0.95312  0.29627  0.16575  1.0000
  C   C485      1.0  0.77671  0.03827  0.24444  1.0000
  C   C486      1.0  0.92330  0.15674  0.16727  1.0000
  C   C487      1.0  0.89486  0.14311  0.16552  1.0000
  C   C488      1.0  0.88001  0.11516  0.16879  1.0000
  C   C489      1.0  0.89355  0.10048  0.17362  1.0000
  C   C490      1.0  0.92198  0.11411  0.17536  1.0000
  C   C491      1.0  0.93679  0.14212  0.17231  1.0000
  H   H783      1.0  0.88424  0.15420  0.16159  1.0000
  H   H784      1.0  0.85817  0.10492  0.16732  1.0000
  H   H785      1.0  0.93265  0.10295  0.17905  1.0000
  H   H786      1.0  0.95864  0.15229  0.17361  1.0000
  C   C492      1.0  0.70105  0.03910  0.14746  1.0000
  N   N47       1.0  0.71531  0.04778  0.16354  1.0000
  C   C493      1.0  0.70166  0.05960  0.17393  1.0000
  C   C494      1.0  0.71491  0.02402  0.17163  1.0000
  H   H787      1.0  0.78821  0.03038  0.23766  1.0000
  Fe  Fe100     1.0  0.77903  0.03132  0.19732  1.0000
  N   N48       1.0  0.96007  0.28030  0.14309  1.0000
  C   C495      1.0  0.97002  0.29858  0.15775  1.0000
  C   C496      1.0  0.98302  0.28538  0.13239  1.0000
  C   C497      1.0  0.93984  0.28550  0.13407  1.0000
  C   C498      1.0  0.94748  0.25169  0.14818  1.0000
  H   H788      1.0  0.71193  0.06611  0.18619  1.0000
  H   H789      1.0  0.97636  0.27197  0.12120  1.0000
  H   H790      1.0  0.70177  0.07777  0.16830  1.0000
  H   H791      1.0  0.99852  0.28148  0.13884  1.0000
  S   S203      1.0  0.99773  0.25400  0.18623  1.0000
  H   H792      1.0  0.94880  0.30700  0.13012  1.0000
  H   H793      1.0  0.92213  0.28168  0.14176  1.0000
  C   C499      1.0  0.74373  0.06836  0.16119  1.0000
  H   H794      1.0  0.98419  0.29409  0.16529  1.0000
  H   H795      1.0  0.67993  0.02251  0.14859  1.0000
  H   H796      1.0  0.93987  0.23708  0.13753  1.0000
  S   S204      1.0  0.75899  0.04851  0.21439  1.0000
  H   H797      1.0  0.75520  0.07513  0.17307  1.0000
  H   H798      1.0  0.68015  0.04456  0.17589  1.0000
  H   H799      1.0  0.70008  0.05630  0.14123  1.0000
  H   H800      1.0  0.72520  0.02976  0.18391  1.0000
  H   H801      1.0  0.90586  0.03238  0.17522  1.0000
  H   H802      1.0  0.71162  0.03119  0.13913  1.0000
  H   H803      1.0  0.72558  0.01504  0.16429  1.0000
  H   H804      1.0  0.86545  0.01341  0.15693  1.0000
  H   H805      1.0  0.86052  0.01115  0.18711  1.0000
  C   C500      1.0  0.90529  0.01197  0.17502  1.0000
  Fe  Fe101     1.0  0.77361  0.01178  0.16181  1.0000
  H   H806      1.0  0.91453  0.01017  0.18676  1.0000
  S   S205      1.0  0.75369  0.00938  0.13691  1.0000
  Fe  Fe102     1.0  0.98335  0.21037  0.33781  1.0000
  S   S206      1.0  0.76352  0.05220  0.29214  1.0000
  S   S207      1.0  0.94060  0.18417  0.34664  1.0000
  C   C501      1.0  0.64210  0.02707  0.49243  1.0000
  H   H807      1.0  0.69286  0.04873  0.40378  1.0000
  C   C502      1.0  0.98760  0.22108  0.38774  1.0000
  H   H808      1.0  0.81260  0.10766  0.30227  1.0000
  N   N49       1.0  0.85087  0.11612  0.29174  1.0000
  Fe  Fe103     1.0  0.82812  0.03383  0.32511  1.0000
  S   S208      1.0  0.79833  0.04827  0.33285  1.0000
  S   S209      1.0  0.87379  0.05930  0.32409  1.0000
  H   H809      1.0  0.94615  0.21043  0.40768  1.0000
  S   S210      1.0  0.00123  0.20896  0.31360  1.0000
  H   H810      1.0  0.93469  0.20721  0.38674  1.0000
  H   H811      1.0  0.63568  0.01160  0.43176  1.0000
  N   N50       1.0  0.97521  0.23897  0.39159  1.0000
  H   H812      1.0  0.88762  0.13534  0.30645  1.0000
  C   C503      1.0  0.86465  0.12520  0.27605  1.0000
  H   H813      1.0  0.64710  0.03496  0.41524  1.0000
  C   C504      1.0  0.77751  0.03888  0.26176  1.0000
  H   H814      1.0  0.86693  0.08789  0.29535  1.0000
  C   C505      1.0  0.69212  0.03019  0.40925  1.0000
  C   C506      1.0  0.64813  0.01717  0.42059  1.0000
  C   C507      1.0  0.92212  0.14957  0.34012  1.0000
  C   C508      1.0  0.89509  0.13429  0.34487  1.0000
  C   C509      1.0  0.87992  0.10665  0.33997  1.0000
  C   C510      1.0  0.89177  0.09404  0.33039  1.0000
  C   C511      1.0  0.91874  0.10935  0.32562  1.0000
  C   C512      1.0  0.93382  0.13701  0.33038  1.0000
  H   H815      1.0  0.88591  0.14382  0.35245  1.0000
  H   H816      1.0  0.85924  0.09502  0.34383  1.0000
  H   H817      1.0  0.92811  0.09973  0.31827  1.0000
  H   H818      1.0  0.95462  0.14851  0.32669  1.0000
  C   C513      1.0  0.82405  0.11554  0.29085  1.0000
  C   C514      1.0  0.68862  0.04607  0.43646  1.0000
  H   H819      1.0  0.78978  0.03167  0.26830  1.0000
  H   H820      1.0  0.68288  0.01339  0.39984  1.0000
  C   C515      1.0  0.94698  0.22218  0.39665  1.0000
  C   C516      1.0  0.86755  0.13510  0.30509  1.0000
  H   H821      1.0  0.82593  0.13615  0.28892  1.0000
  H   H822      1.0  0.67712  0.04108  0.44805  1.0000
  H   H823      1.0  0.73678  0.06843  0.26860  1.0000
  H   H824      1.0  0.63941  0.04070  0.48420  1.0000
  C   C517      1.0  0.76289  0.04960  0.27054  1.0000
  C   C518      1.0  0.84719  0.08850  0.29497  1.0000
  H   H825      1.0  0.88502  0.12598  0.27636  1.0000
  Fe  Fe104     1.0  0.77708  0.02882  0.30888  1.0000
  C   C519      1.0  0.97519  0.25406  0.37692  1.0000
  H   H826      1.0  0.83391  0.07343  0.28545  1.0000
  H   H827      1.0  0.97654  0.20650  0.37742  1.0000
  H   H828      1.0  0.87144  0.15634  0.30290  1.0000
  C   C520      1.0  0.99108  0.25854  0.40492  1.0000
  H   H829      1.0  0.86760  0.14593  0.27315  1.0000
  N   N51       1.0  0.67641  0.02313  0.42440  1.0000
  H   H830      1.0  0.68870  0.06478  0.43170  1.0000
  H   H831      1.0  0.98264  0.27274  0.40796  1.0000
  H   H832      1.0  0.96620  0.26797  0.37934  1.0000
  H   H833      1.0  0.96334  0.23988  0.36662  1.0000
  H   H834      1.0  0.93690  0.23499  0.39953  1.0000
  S   S211      1.0  0.80802  0.01667  0.30062  1.0000
  H   H835      1.0  0.85739  0.12915  0.31704  1.0000
  H   H836      1.0  0.81118  0.10190  0.28063  1.0000
  H   H837      1.0  0.83767  0.08137  0.30698  1.0000
  H   H838      1.0  0.99619  0.26680  0.37271  1.0000
  H   H839      1.0  0.99149  0.24793  0.41623  1.0000
  S   S212      1.0  0.99688  0.25551  0.33728  1.0000
  H   H840      1.0  0.70993  0.05099  0.43966  1.0000
  H   H841      1.0  0.98753  0.20894  0.39841  1.0000
  C   C521      1.0  0.74793  0.05991  0.26197  1.0000
  H   H842      1.0  0.85266  0.11115  0.26574  1.0000
  H   H843      1.0  0.71335  0.03392  0.41150  1.0000
  H   H844      1.0  0.55488  0.01247  0.47583  1.0000
  H   H845      1.0  0.65915  0.19116  0.54677  1.0000
  Fe  Fe105     1.0  0.65795  0.10945  0.56539  1.0000
  S   S213      1.0  0.68103  0.10771  0.54329  1.0000
  S   S214      1.0  0.62729  0.12459  0.55817  1.0000
  Fe  Fe106     1.0  0.69336  0.09405  0.58796  1.0000
  S   S215      1.0  0.71844  0.09187  0.56724  1.0000
  S   S216      1.0  0.70661  0.09308  0.61436  1.0000
  Fe  Fe107     1.0  0.71893  0.13062  0.55895  1.0000
  S   S217      1.0  0.75525  0.16592  0.54732  1.0000
  Fe  Fe108     1.0  0.67838  0.06936  0.55341  1.0000
  S   S218      1.0  0.66824  0.02929  0.53970  1.0000
  S   S219      1.0  0.69615  0.13432  0.58042  1.0000
  S   S220      1.0  0.65300  0.06936  0.57476  1.0000
  Fe  Fe109     1.0  0.88419  0.31621  0.56745  1.0000
  C   C522      1.0  0.70265  0.19109  0.56103  1.0000
  S   S221      1.0  0.84417  0.28181  0.57652  1.0000
  H   H846      1.0  0.86633  0.30049  0.60998  1.0000
  H   H847      1.0  0.72562  0.22619  0.52624  1.0000
  S   S222      1.0  0.92241  0.31288  0.56278  1.0000
  C   C523      1.0  0.72664  0.22013  0.53900  1.0000
  H   H848      1.0  0.94116  0.16987  0.63198  1.0000
  C   C524      1.0  0.65561  0.01886  0.51933  1.0000
  S   S223      1.0  0.97232  0.15080  0.67663  1.0000
  S   S224      1.0  0.97304  0.22257  0.67478  1.0000
  Fe  Fe110     1.0  0.81937  0.04677  0.66735  1.0000
  S   S225      1.0  0.78557  0.04557  0.68260  1.0000
  S   S226      1.0  0.84781  0.08686  0.65634  1.0000
  Fe  Fe111     1.0  0.00315  0.24556  0.65559  1.0000
  C   C525      1.0  0.96255  0.17371  0.63348  1.0000
  H   H849      1.0  0.96466  0.25569  0.60019  1.0000
  H   H850      1.0  0.76708  0.03918  0.62307  1.0000
  H   H851      1.0  0.79050  0.07295  0.64444  1.0000
  H   H852      1.0  0.00658  0.20439  0.75199  1.0000
  C   C526      1.0  0.93678  0.13373  0.67325  1.0000
  C   C527      1.0  0.92295  0.14742  0.66723  1.0000
  C   C528      1.0  0.89555  0.13284  0.66234  1.0000
  C   C529      1.0  0.88144  0.10455  0.66398  1.0000
  C   C530      1.0  0.89487  0.09088  0.67059  1.0000
  C   C531      1.0  0.92257  0.10542  0.67504  1.0000
  H   H853      1.0  0.93339  0.16918  0.66597  1.0000
  H   H854      1.0  0.88521  0.14354  0.65733  1.0000
  H   H855      1.0  0.88416  0.06902  0.67182  1.0000
  H   H856      1.0  0.93310  0.09464  0.67965  1.0000
  C   C532      1.0  0.69225  0.17400  0.53313  1.0000
  H   H857      1.0  0.77939  0.10649  0.60862  1.0000
  C   C533      1.0  0.97511  0.31987  0.61018  1.0000
  H   H858      1.0  0.96711  0.17472  0.64679  1.0000
  S   S227      1.0  0.79174  0.01304  0.65026  1.0000
  C   C534      1.0  0.98257  0.27670  0.62308  1.0000
  C   C535      1.0  0.97078  0.27425  0.60742  1.0000
  C   C536      1.0  0.96707  0.29571  0.60099  1.0000
  H   H859      1.0  0.68449  0.22564  0.55113  1.0000
  H   H860      1.0  0.53830  0.04656  0.54594  1.0000
  H   H861      1.0  0.95826  0.29363  0.58886  1.0000
  H   H862      1.0  0.84857  0.25033  0.60910  1.0000
  H   H863      1.0  0.85356  0.25047  0.63085  1.0000
  C   C537      1.0  0.69754  0.03953  0.61786  1.0000
  C   C538      1.0  0.70853  0.06605  0.62456  1.0000
  C   C539      1.0  0.72244  0.07178  0.63974  1.0000
  C   C540      1.0  0.72640  0.05167  0.64785  1.0000
  H   H864      1.0  0.68655  0.03476  0.60625  1.0000
  H   H865      1.0  0.73059  0.09210  0.64514  1.0000
  H   H866      1.0  0.73739  0.05652  0.65945  1.0000
  H   H867      1.0  0.92704  0.12151  0.63039  1.0000
  H   H868      1.0  0.82117  0.07027  0.60440  1.0000
  H   H869      1.0  0.53224  0.32307  0.59197  1.0000
  C   C541      1.0  0.78027  0.19761  0.55593  1.0000
  C   C542      1.0  0.77886  0.20628  0.57190  1.0000
  C   C543      1.0  0.79860  0.23206  0.57793  1.0000
  C   C544      1.0  0.82011  0.24944  0.56817  1.0000
  C   C545      1.0  0.82161  0.24069  0.55224  1.0000
  C   C546      1.0  0.80173  0.21501  0.54616  1.0000
  H   H870      1.0  0.76254  0.19319  0.57960  1.0000
  H   H871      1.0  0.79714  0.23860  0.59025  1.0000
  H   H872      1.0  0.83793  0.25379  0.54455  1.0000
  H   H873      1.0  0.80301  0.20859  0.53377  1.0000
  C   C547      1.0  0.54738  0.11471  0.58049  1.0000
  C   C548      1.0  0.55445  0.12404  0.56463  1.0000
  C   C549      1.0  0.57889  0.12679  0.55805  1.0000
  C   C550      1.0  0.59646  0.11996  0.56710  1.0000
  C   C551      1.0  0.58927  0.11035  0.58290  1.0000
  C   C552      1.0  0.56500  0.10798  0.58958  1.0000
  H   H874      1.0  0.70862  0.20882  0.56964  1.0000
  H   H875      1.0  0.58426  0.13437  0.54585  1.0000
  H   H876      1.0  0.60262  0.10519  0.59008  1.0000
  H   H877      1.0  0.55984  0.10086  0.60189  1.0000
  N   N52       1.0  0.88819  0.27931  0.61810  1.0000
  C   C553      1.0  0.78470  0.00930  0.74257  1.0000
  H   H878      1.0  0.70762  0.16644  0.53361  1.0000
  H   H879      1.0  0.79839  0.09705  0.59467  1.0000
  C   C554      1.0  0.88053  0.30143  0.62001  1.0000
  H   H880      1.0  0.81574  0.12228  0.61068  1.0000
  S   S228      1.0  0.99810  0.26975  0.71590  1.0000
  H   H881      1.0  0.75230  0.05889  0.61448  1.0000
  H   H882      1.0  0.86866  0.23554  0.61738  1.0000
  C   C555      1.0  0.53204  0.04561  0.55886  1.0000
  Fe  Fe112     1.0  0.00498  0.24960  0.69323  1.0000
  C   C556      1.0  0.99058  0.30084  0.63227  1.0000
  S   S229      1.0  0.80348  0.01825  0.72448  1.0000
  H   H883      1.0  0.73358  0.23858  0.54714  1.0000
  C   C557      1.0  0.94855  0.12544  0.63121  1.0000
  H   H884      1.0  0.95022  0.10879  0.62433  1.0000
  H   H885      1.0  0.99874  0.28963  0.74893  1.0000
  Fe  Fe113     1.0  0.79225  0.01509  0.69743  1.0000
  C   C558      1.0  0.90784  0.28201  0.63124  1.0000
  C   C559      1.0  0.71559  0.02523  0.64115  1.0000
  C   C560      1.0  0.00015  0.27084  0.74962  1.0000
  H   H886      1.0  0.92648  0.30203  0.63086  1.0000
  Fe  Fe114     1.0  0.75828  0.00963  0.66636  1.0000
  N   N53       1.0  0.70021  0.19823  0.54402  1.0000
  C   C561      1.0  0.99907  0.25619  0.73516  1.0000
  H   H887      1.0  0.67671  0.21294  0.53031  1.0000
  C   C562      1.0  0.67925  0.20748  0.54299  1.0000
  C   C563      1.0  0.96260  0.15313  0.60731  1.0000
  H   H888      1.0  0.83824  0.09503  0.62068  1.0000
  H   H889      1.0  0.81793  0.06003  0.62530  1.0000
  H   H890      1.0  0.69011  0.17852  0.52018  1.0000
  H   H891      1.0  0.67252  0.15695  0.53669  1.0000
  H   H892      1.0  0.89908  0.28056  0.64355  1.0000
  H   H893      1.0  0.98115  0.33645  0.56880  1.0000
  Fe  Fe115     1.0  0.99433  0.19680  0.67557  1.0000
  H   H894      1.0  0.68307  0.17447  0.56518  1.0000
  H   H895      1.0  0.54129  0.12953  0.55752  1.0000
  H   H896      1.0  0.71834  0.18406  0.56222  1.0000
  C   C564      1.0  0.98702  0.32237  0.62579  1.0000
  H   H897      1.0  0.97578  0.19426  0.62876  1.0000
  N   N54       1.0  0.96730  0.15253  0.62507  1.0000
  H   H898      1.0  0.91830  0.30162  0.60064  1.0000
  C   C565      1.0  0.99561  0.15801  0.62832  1.0000
  H   H899      1.0  0.95310  0.12367  0.64426  1.0000
  H   H900      1.0  0.87037  0.30029  0.63179  1.0000
  H   H901      1.0  0.77143  0.04790  0.60184  1.0000
  H   H902      1.0  0.74270  0.21342  0.53957  1.0000
  H   H903      1.0  0.91448  0.26593  0.63006  1.0000
  H   H904      1.0  0.99968  0.15770  0.64169  1.0000
  S   S230      1.0  0.82789  0.01860  0.68283  1.0000
  C   C566      1.0  0.90079  0.28119  0.60209  1.0000
  H   H905      1.0  0.97630  0.17344  0.60237  1.0000
  H   H906      1.0  0.96627  0.13763  0.60048  1.0000
  C   C567      1.0  0.70075  0.01913  0.62625  1.0000
  H   H907      1.0  0.00007  0.14250  0.62217  1.0000
  S   S231      1.0  0.98709  0.24915  0.63040  1.0000
  S   S232      1.0  0.51664  0.11057  0.58934  1.0000
  N   N55       1.0  0.79524  0.08104  0.61874  1.0000
  C   C568      1.0  0.79377  0.08943  0.63580  1.0000
  C   C569      1.0  0.81921  0.07640  0.61713  1.0000
  C   C570      1.0  0.79738  0.10270  0.60768  1.0000
  C   C571      1.0  0.77050  0.05560  0.61434  1.0000
  H   H908      1.0  0.77695  0.09472  0.63728  1.0000
  H   H909      1.0  0.81283  0.10760  0.63987  1.0000
  C   C572      1.0  0.00459  0.22287  0.75143  1.0000
  H   H910      1.0  0.90808  0.26570  0.60054  1.0000
  H   H911      1.0  0.88626  0.27792  0.59183  1.0000
  H   H912      1.0  0.99252  0.32074  0.55347  1.0000
  H   H913      1.0  0.54423  0.06628  0.56448  1.0000
  H   H914      1.0  0.94137  0.14899  0.60453  1.0000
  C   C573      1.0  0.86367  0.25270  0.61893  1.0000
  C   C574      1.0  0.65172  0.03613  0.50858  1.0000
  H   H915      1.0  0.53799  0.03163  0.56532  1.0000
  H   H916      1.0  0.99976  0.30302  0.64431  1.0000
  C   C575      1.0  0.99423  0.34055  0.55800  1.0000
  H   H917      1.0  0.65634  0.05653  0.51269  1.0000
  C   C576      1.0  0.00058  0.23180  0.73622  1.0000
  H   H918      1.0  0.89865  0.32184  0.61974  1.0000
  H   H919      1.0  0.99896  0.21989  0.72530  1.0000
  H   H920      1.0  0.99349  0.34107  0.63295  1.0000
  Fe  Fe116     1.0  0.88458  0.32447  0.94538  1.0000
  H   H921      1.0  0.96372  0.14481  0.81153  1.0000
  S   S233      1.0  0.83988  0.29382  0.94007  1.0000
  C   C577      1.0  0.65732  0.01628  0.91361  1.0000
  C   C578      1.0  0.00365  0.26159  0.76497  1.0000
  S   S234      1.0  0.91698  0.31386  0.95400  1.0000
  C   C579      1.0  0.80667  0.10888  0.77370  1.0000
  Fe  Fe117     1.0  0.66272  0.12099  0.95101  1.0000
  S   S235      1.0  0.68845  0.12043  0.97251  1.0000
  S   S236      1.0  0.63403  0.13947  0.95561  1.0000
  Fe  Fe118     1.0  0.69206  0.10050  0.92724  1.0000
  S   S237      1.0  0.71893  0.09844  0.94703  1.0000
  S   S238      1.0  0.69698  0.09093  0.90073  1.0000
  Fe  Fe119     1.0  0.68124  0.07968  0.96202  1.0000
  S   S239      1.0  0.67284  0.03944  0.97362  1.0000
  Fe  Fe120     1.0  0.72378  0.13931  0.95554  1.0000
  S   S240      1.0  0.76656  0.17186  0.96321  1.0000
  S   S241      1.0  0.65369  0.07920  0.94141  1.0000
  S   S242      1.0  0.69879  0.14254  0.93484  1.0000
  H   H922      1.0  0.79791  0.10352  0.80638  1.0000
  C   C580      1.0  0.94974  0.16972  0.77701  1.0000
  Fe  Fe121     1.0  0.98812  0.20595  0.84077  1.0000
  S   S243      1.0  0.96679  0.16196  0.84794  1.0000
  S   S244      1.0  0.97231  0.22694  0.82392  1.0000
  C   C581      1.0  0.68445  0.01548  0.93666  1.0000
  S   S245      1.0  0.81647  0.03217  0.85394  1.0000
  H   H923      1.0  0.82206  0.08069  0.79372  1.0000
  Fe  Fe122     1.0  0.81736  0.05550  0.83166  1.0000
  S   S246      1.0  0.84325  0.09961  0.82565  1.0000
  S   S247      1.0  0.77298  0.04379  0.83160  1.0000
  H   H924      1.0  0.92700  0.11557  0.77195  1.0000
  H   H925      1.0  0.76574  0.07359  0.80441  1.0000
  C   C582      1.0  0.93176  0.14474  0.84327  1.0000
  C   C583      1.0  0.91795  0.15909  0.83840  1.0000
  C   C584      1.0  0.89051  0.14500  0.83353  1.0000
  C   C585      1.0  0.87664  0.11649  0.83363  1.0000
  C   C586      1.0  0.89016  0.10208  0.83897  1.0000
  C   C587      1.0  0.91773  0.11622  0.84376  1.0000
  H   H926      1.0  0.92836  0.18107  0.83840  1.0000
  H   H927      1.0  0.88007  0.15625  0.82955  1.0000
  H   H928      1.0  0.87955  0.08006  0.83912  1.0000
  H   H929      1.0  0.92825  0.10500  0.84764  1.0000
  H   H930      1.0  0.67035  0.19020  0.97312  1.0000
  C   C588      1.0  0.76445  0.06710  0.77208  1.0000
  C   C589      1.0  0.71479  0.07294  0.89451  1.0000
  C   C590      1.0  0.71743  0.06898  0.87775  1.0000
  C   C591      1.0  0.73000  0.05335  0.87235  1.0000
  C   C592      1.0  0.73965  0.04115  0.88370  1.0000
  C   C593      1.0  0.73755  0.04567  0.90048  1.0000
  C   C594      1.0  0.72557  0.06182  0.90586  1.0000
  H   H931      1.0  0.70922  0.07758  0.86886  1.0000
  H   H932      1.0  0.73133  0.04991  0.85941  1.0000
  H   H933      1.0  0.98481  0.32706  0.99407  1.0000
  H   H934      1.0  0.72402  0.06502  0.91877  1.0000
  C   C595      1.0  0.68489  0.20478  0.96445  1.0000
  H   H935      1.0  0.81956  0.01392  0.75668  1.0000
  S   S248      1.0  0.97226  0.32896  0.92140  1.0000
  H   H936      1.0  0.70725  0.18060  0.98285  1.0000
  H   H937      1.0  0.90128  0.13368  0.78833  1.0000
  C   C596      1.0  0.54183  0.10267  0.94434  1.0000
  C   C597      1.0  0.55604  0.08810  0.94012  1.0000
  C   C598      1.0  0.58411  0.09891  0.94357  1.0000
  C   C599      1.0  0.59842  0.12454  0.95130  1.0000
  C   C600      1.0  0.58417  0.13903  0.95568  1.0000
  C   C601      1.0  0.55604  0.12816  0.95227  1.0000
  H   H938      1.0  0.54531  0.06840  0.93395  1.0000
  H   H939      1.0  0.59471  0.08751  0.94009  1.0000
  H   H940      1.0  0.59497  0.15887  0.96167  1.0000
  H   H941      1.0  0.54546  0.13965  0.95560  1.0000
  C   C602      1.0  0.97105  0.31576  0.90128  1.0000
  H   H942      1.0  0.74204  0.20413  0.97913  1.0000
  H   H943      1.0  0.93930  0.10814  0.79063  1.0000
  C   C603      1.0  0.97279  0.29761  0.86888  1.0000
  C   C604      1.0  0.95246  0.30460  0.87347  1.0000
  C   C605      1.0  0.95131  0.31323  0.88964  1.0000
  H   H944      1.0  0.82506  0.12213  0.78129  1.0000
  H   H945      1.0  0.76998  0.10469  0.79568  1.0000
  H   H946      1.0  0.66218  0.03775  0.91675  1.0000
  C   C606      1.0  0.82040  0.25955  0.94622  1.0000
  C   C607      1.0  0.82949  0.24814  0.95841  1.0000
  C   C608      1.0  0.81277  0.22131  0.96339  1.0000
  C   C609      1.0  0.78687  0.20542  0.95621  1.0000
  C   C610      1.0  0.77800  0.21656  0.94376  1.0000
  C   C611      1.0  0.79457  0.24351  0.93892  1.0000
  H   H947      1.0  0.84923  0.26017  0.96419  1.0000
  H   H948      1.0  0.81994  0.21291  0.97299  1.0000
  H   H949      1.0  0.75835  0.20453  0.93792  1.0000
  H   H950      1.0  0.78739  0.25208  0.92942  1.0000
  C   C612      1.0  0.64951  0.04199  0.00309  1.0000
  C   C613      1.0  0.00626  0.23773  0.76585  1.0000
  H   H951      1.0  0.95178  0.18908  0.78266  1.0000
  H   H952      1.0  0.80967  0.06175  0.77476  1.0000
  C   C614      1.0  0.99201  0.29937  0.88066  1.0000
  H   H953      1.0  0.73587  0.24173  0.99188  1.0000
  H   H954      1.0  0.91424  0.12688  0.80691  1.0000
  N   N56       1.0  0.78868  0.08411  0.78244  1.0000
  H   H955      1.0  0.68268  0.19300  0.95283  1.0000
  C   C615      1.0  0.73151  0.23635  0.95916  1.0000
  H   H956      1.0  0.52650  0.29116  0.96218  1.0000
  H   H957      1.0  0.98688  0.16605  0.79644  1.0000
  N   N57       1.0  0.94461  0.14901  0.78944  1.0000
  H   H958      1.0  0.73004  0.22590  0.94716  1.0000
  N   N58       1.0  0.52143  0.32739  0.96205  1.0000
  C   C616      1.0  0.99128  0.30866  0.89671  1.0000
  H   H959      1.0  0.93315  0.16260  0.76757  1.0000
  C   C617      1.0  0.72092  0.19563  0.97407  1.0000
  H   H960      1.0  0.70123  0.21813  0.99587  1.0000
  N   N59       1.0  0.78857  0.14913  0.91669  1.0000
  C   C618      1.0  0.78715  0.13070  0.92987  1.0000
  C   C619      1.0  0.81223  0.17613  0.91977  1.0000
  C   C620      1.0  0.76355  0.15214  0.91636  1.0000
  C   C621      1.0  0.79123  0.13753  0.90079  1.0000
  H   H961      1.0  0.76976  0.11002  0.92779  1.0000
  H   H962      1.0  0.78453  0.13855  0.94202  1.0000
  H   H963      1.0  0.80591  0.12831  0.93068  1.0000
  H   H964      1.0  0.81364  0.19078  0.91025  1.0000
  H   H965      1.0  0.81092  0.18516  0.93181  1.0000
  H   H966      1.0  0.83156  0.17476  0.91989  1.0000
  H   H967      1.0  0.76371  0.16574  0.90649  1.0000
  H   H968      1.0  0.76089  0.16084  0.92814  1.0000
  H   H969      1.0  0.74531  0.13216  0.91422  1.0000
  H   H970      1.0  0.77349  0.11725  0.89807  1.0000
  H   H971      1.0  0.80975  0.13465  0.90061  1.0000
  H   H972      1.0  0.79246  0.15095  0.89056  1.0000
  H   H973      1.0  0.75308  0.24543  0.96351  1.0000
  H   H974      1.0  0.67813  0.22035  0.96186  1.0000
  H   H975      1.0  0.93744  0.30317  0.86445  1.0000
  H   H976      1.0  0.95892  0.30174  0.96990  1.0000
  S   S249      1.0  0.97439  0.28831  0.84819  1.0000
  H   H977      1.0  0.96896  0.17490  0.77060  1.0000
  H   H978      1.0  0.96793  0.17831  0.80832  1.0000
  H   H979      1.0  0.70887  0.24847  0.98484  1.0000
  H   H980      1.0  0.93535  0.31817  0.89303  1.0000
  H   H981      1.0  0.75036  0.04834  0.77844  1.0000
  H   H982      1.0  0.74509  0.03639  0.90933  1.0000
  C   C622      1.0  0.91858  0.14221  0.79730  1.0000
  Fe  Fe123     1.0  0.77145  0.01862  0.85305  1.0000
  Fe  Fe124     1.0  0.99620  0.26400  0.84037  1.0000
  C   C623      1.0  0.96675  0.15990  0.80195  1.0000
  H   H983      1.0  0.96284  0.12869  0.77563  1.0000
  H   H984      1.0  0.79058  0.04999  0.79304  1.0000
  C   C624      1.0  0.65748  0.02687  0.99264  1.0000
  H   H985      1.0  0.63998  0.02106  0.94333  1.0000
  N   N60       1.0  0.71304  0.21724  0.97107  1.0000
  H   H986      1.0  0.75289  0.07827  0.76887  1.0000
  H   H987      1.0  0.65262  0.06195  0.99965  1.0000
  H   H988      1.0  0.81357  0.10364  0.76205  1.0000
  H   H989      1.0  0.97658  0.28163  0.96952  1.0000
  H   H990      1.0  0.67256  0.01701  0.90468  1.0000
  H   H991      1.0  0.77005  0.06033  0.76047  1.0000
  C   C625      1.0  0.78022  0.09189  0.79788  1.0000
  C   C626      1.0  0.94337  0.12423  0.78156  1.0000
  H   H992      1.0  0.91886  0.16058  0.80328  1.0000
  H   H993      1.0  0.68958  0.03688  0.94010  1.0000
  H   H994      1.0  0.72001  0.18417  0.96258  1.0000
  C   C627      1.0  0.80343  0.06847  0.78612  1.0000
  H   H995      1.0  0.79617  0.12116  0.77062  1.0000
  C   C628      1.0  0.00314  0.32641  0.98925  1.0000
  C   C629      1.0  0.71483  0.23208  0.98661  1.0000
  H   H996      1.0  0.00665  0.31053  0.90559  1.0000
  C   C630      1.0  0.97729  0.30090  0.96531  1.0000
  H   H997      1.0  0.72665  0.25338  0.95692  1.0000
  S   S250      1.0  0.81234  0.02156  0.81449  1.0000
  H   H998      1.0  0.70077  0.01597  0.92875  1.0000
  S   S251      1.0  0.75236  0.01844  0.87759  1.0000
  H   H999      1.0  0.97558  0.29973  0.95169  1.0000
  H   H1000     1.0  0.56083  0.33701  0.95295  1.0000
  H   H1001     1.0  0.51745  0.31096  0.93753  1.0000
  H   H1002     1.0  0.51944  0.05358  0.99198  1.0000
  C   C631      1.0  0.51762  0.30191  0.96966  1.0000
  C   C632      1.0  0.79848  0.00949  0.75707  1.0000
  H   H1003     1.0  0.00480  0.27314  0.77603  1.0000
  H   H1004     1.0  0.52712  0.30587  0.98211  1.0000
  H   H1005     1.0  0.51089  0.33976  0.93949  1.0000
  Fe  Fe125     1.0  0.94157  0.33954  0.93354  1.0000
  N   N61       1.0  0.00234  0.32495  0.97117  1.0000
  H   H1006     1.0  0.00392  0.30844  0.99453  1.0000
  H   H1007     1.0  0.00786  0.29425  0.87728  1.0000
  Fe  Fe126     1.0  0.55525  0.64454  0.07134  1.0000
  H   H1008     1.0  0.57572  0.60134  0.13419  1.0000
  H   H1009     1.0  0.97821  0.35942  0.02539  1.0000
  C   C633      1.0  0.57936  0.59744  0.12130  1.0000
  S   S252      1.0  0.59477  0.64803  0.06229  1.0000
  C   C634      1.0  0.65121  0.63614  0.01136  1.0000
  H   H1010     1.0  0.60474  0.66230  0.10856  1.0000
  H   H1011     1.0  0.62376  0.63870  0.13598  1.0000
  H   H1012     1.0  0.61079  0.60076  0.09593  1.0000
  C   C635      1.0  0.99262  0.37428  0.01741  1.0000
  H   H1013     1.0  0.66250  0.62966  0.01944  1.0000
  C   C636      1.0  0.98228  0.62506  0.01830  1.0000
  C   C637      1.0  0.63419  0.64615  0.01803  1.0000
  Fe  Fe127     1.0  0.59135  0.67339  0.04240  1.0000
  C   C638      1.0  0.62581  0.63329  0.12309  1.0000
  H   H1014     1.0  0.64151  0.65217  0.11755  1.0000
  H   H1015     1.0  0.63385  0.61829  0.12317  1.0000
  H   H1016     1.0  0.63244  0.64730  0.03114  1.0000
  H   H1017     1.0  0.58683  0.64854  0.12688  1.0000
  H   H1018     1.0  0.58448  0.60887  0.08933  1.0000
  S   S253      1.0  0.55040  0.66791  0.05045  1.0000
  N   N62       1.0  0.59971  0.62256  0.11386  1.0000
  H   H1019     1.0  0.96544  0.61966  0.02640  1.0000
  H   H1020     1.0  0.57024  0.63577  0.10730  1.0000
  C   C639      1.0  0.58991  0.64317  0.11419  1.0000
  C   C640      1.0  0.60369  0.61646  0.09674  1.0000
  H   H1021     1.0  0.61914  0.63499  0.09082  1.0000
  S   S254      1.0  0.52729  0.60242  0.08161  1.0000
  H   H1022     1.0  0.58596  0.58131  0.12120  1.0000
  H   H1023     1.0  0.55950  0.58913  0.11447  1.0000
  H   H1024     1.0  0.74254  0.59927  0.01462  1.0000
  C   C641      1.0  0.61951  0.65468  0.00773  1.0000
  S   S255      1.0  0.59684  0.66623  0.01541  1.0000
  H   H1025     1.0  0.91488  0.49189  0.00658  1.0000
  H   H1026     1.0  0.00730  0.61480  0.50261  1.0000
  S   S256      1.0  0.58408  0.63457  0.44029  1.0000
  C   C642      1.0  0.60862  0.63970  0.50126  1.0000
  Fe  Fe128     1.0  0.54379  0.63324  0.44599  1.0000
  H   H1027     1.0  0.97698  0.65224  0.48945  1.0000
  S   S257      1.0  0.54840  0.66388  0.42706  1.0000
  H   H1028     1.0  0.95028  0.56558  0.50072  1.0000
  C   C643      1.0  0.65716  0.65623  0.50132  1.0000
  H   H1029     1.0  0.97596  0.53923  0.50318  1.0000
  S   S258      1.0  0.56152  0.66571  0.46607  1.0000
  C   C644      1.0  0.99173  0.36154  0.49894  1.0000
  C   C645      1.0  0.99455  0.65787  0.49741  1.0000
  C   C646      1.0  0.63363  0.65518  0.49406  1.0000
  H   H1030     1.0  0.90631  0.64983  0.28532  1.0000
  H   H1031     1.0  0.99697  0.58459  0.49013  1.0000
  H   H1032     1.0  0.59037  0.63881  0.49586  1.0000
  H   H1033     1.0  0.95490  0.66296  0.29167  1.0000
  H   H1034     1.0  0.90628  0.67171  0.30183  1.0000
  Fe  Fe129     1.0  0.59021  0.66821  0.42296  1.0000
  Fe  Fe130     1.0  0.60171  0.66848  0.45938  1.0000
  S   S259      1.0  0.60465  0.67306  0.39668  1.0000
  C   C647      1.0  0.00487  0.59374  0.50251  1.0000
  H   H1035     1.0  0.67662  0.66826  0.49589  1.0000
  H   H1036     1.0  0.94019  0.66833  0.26368  1.0000
  C   C648      1.0  0.91075  0.67110  0.28864  1.0000
  H   H1037     1.0  0.97905  0.34244  0.49251  1.0000
  N   N63       1.0  0.84673  0.49712  0.55972  1.0000
  Fe  Fe131     1.0  0.65341  0.54471  0.56606  1.0000
  S   S260      1.0  0.67035  0.56877  0.54336  1.0000
  S   S261      1.0  0.62554  0.49905  0.56088  1.0000
  Fe  Fe132     1.0  0.68244  0.59675  0.58808  1.0000
  S   S262      1.0  0.69907  0.62387  0.56671  1.0000
  S   S263      1.0  0.69391  0.61133  0.61463  1.0000
  Fe  Fe133     1.0  0.65819  0.59882  0.55439  1.0000
  S   S264      1.0  0.62794  0.60988  0.54159  1.0000
  Fe  Fe134     1.0  0.70987  0.59135  0.55770  1.0000
  S   S265      1.0  0.75302  0.60690  0.54839  1.0000
  S   S266      1.0  0.64039  0.57418  0.57682  1.0000
  S   S267      1.0  0.69418  0.56483  0.57937  1.0000
  C   C649      1.0  0.99922  0.39290  0.52167  1.0000
  S   S268      1.0  0.95576  0.38077  0.56452  1.0000
  H   H1038     1.0  0.71758  0.63714  0.64571  1.0000
  Fe  Fe135     1.0  0.91544  0.37996  0.56881  1.0000
  S   S269      1.0  0.90832  0.41542  0.57814  1.0000
  H   H1039     1.0  0.99229  0.39843  0.53271  1.0000
  Fe  Fe136     1.0  0.88997  0.59274  0.56519  1.0000
  S   S270      1.0  0.91126  0.57880  0.58342  1.0000
  S   S271      1.0  0.84388  0.57191  0.56856  1.0000
  Fe  Fe137     1.0  0.94359  0.62500  0.54698  1.0000
  S   S272      1.0  0.96778  0.61323  0.56431  1.0000
  S   S273      1.0  0.95843  0.64477  0.52244  1.0000
  Fe  Fe138     1.0  0.93238  0.57092  0.56237  1.0000
  S   S274      1.0  0.93650  0.53387  0.55261  1.0000
  Fe  Fe139     1.0  0.94450  0.62229  0.58397  1.0000
  S   S275      1.0  0.95872  0.63923  0.61001  1.0000
  S   S276      1.0  0.90935  0.58248  0.54413  1.0000
  S   S277      1.0  0.92214  0.63665  0.56670  1.0000
  N   N64       1.0  0.57519  0.52919  0.53593  1.0000
  C   C650      1.0  0.85035  0.47260  0.55673  1.0000
  H   H1040     1.0  0.87197  0.47818  0.55442  1.0000
  C   C651      1.0  0.91736  0.44860  0.57096  1.0000
  C   C652      1.0  0.92729  0.45661  0.55531  1.0000
  C   C653      1.0  0.93321  0.48284  0.55002  1.0000
  C   C654      1.0  0.92958  0.50151  0.56032  1.0000
  C   C655      1.0  0.92001  0.49364  0.57605  1.0000
  C   C656      1.0  0.91371  0.46727  0.58125  1.0000
  H   H1041     1.0  0.93009  0.44247  0.54724  1.0000
  H   H1042     1.0  0.94055  0.48860  0.53782  1.0000
  H   H1043     1.0  0.91763  0.50784  0.58428  1.0000
  H   H1044     1.0  0.90621  0.46135  0.59342  1.0000
  H   H1045     1.0  0.81862  0.64568  0.60245  1.0000
  H   H1046     1.0  0.96049  0.59632  0.51268  1.0000
  C   C657      1.0  0.99134  0.65621  0.51445  1.0000
  C   C658      1.0  0.86304  0.51232  0.57429  1.0000
  Fe  Fe140     1.0  0.94277  0.34611  0.58185  1.0000
  C   C659      1.0  0.95944  0.57577  0.51268  1.0000
  H   H1047     1.0  0.53738  0.49388  0.54052  1.0000
  C   C660      1.0  0.77816  0.59739  0.55467  1.0000
  C   C661      1.0  0.77212  0.57495  0.56443  1.0000
  C   C662      1.0  0.79255  0.56769  0.56869  1.0000
  C   C663      1.0  0.81933  0.58290  0.56342  1.0000
  C   C664      1.0  0.82551  0.60571  0.55398  1.0000
  C   C665      1.0  0.80500  0.61279  0.54957  1.0000
  H   H1048     1.0  0.75158  0.56283  0.56841  1.0000
  H   H1049     1.0  0.78749  0.55000  0.57600  1.0000
  H   H1050     1.0  0.84594  0.61757  0.54977  1.0000
  H   H1051     1.0  0.80992  0.63016  0.54199  1.0000
  H   H1052     1.0  0.59156  0.52806  0.55963  1.0000
  H   H1053     1.0  0.76057  0.60176  0.61070  1.0000
  H   H1054     1.0  0.80484  0.47758  0.55176  1.0000
  C   C666      1.0  0.65575  0.64185  0.51561  1.0000
  C   C667      1.0  0.53798  0.44175  0.57622  1.0000
  C   C668      1.0  0.54973  0.43468  0.56317  1.0000
  C   C669      1.0  0.57668  0.45222  0.55889  1.0000
  C   C670      1.0  0.59198  0.47738  0.56724  1.0000
  C   C671      1.0  0.58009  0.48459  0.58014  1.0000
  C   C672      1.0  0.55337  0.46678  0.58465  1.0000
  C   C673      1.0  0.60117  0.53549  0.52812  1.0000
  H   H1055     1.0  0.58565  0.44644  0.54888  1.0000
  H   H1056     1.0  0.59164  0.50372  0.58681  1.0000
  H   H1057     1.0  0.54459  0.47243  0.59483  1.0000
  C   C674      1.0  0.98421  0.54992  0.51517  1.0000
  H   H1058     1.0  0.54577  0.36923  0.56768  1.0000
  H   H1059     1.0  0.00424  0.55053  0.51743  1.0000
  S   S278      1.0  0.90442  0.34776  0.58764  1.0000
  H   H1060     1.0  0.75070  0.62493  0.62038  1.0000
  C   C675      1.0  0.71054  0.64615  0.62113  1.0000
  H   H1061     1.0  0.61546  0.55766  0.52906  1.0000
  C   C676      1.0  0.76805  0.62346  0.61465  1.0000
  H   H1062     1.0  0.58799  0.61470  0.52149  1.0000
  C   C677      1.0  0.72050  0.65309  0.63735  1.0000
  H   H1063     1.0  0.73888  0.63574  0.59313  1.0000
  N   N65       1.0  0.53799  0.36418  0.59340  1.0000
  H   H1064     1.0  0.56101  0.53144  0.56002  1.0000
  H   H1065     1.0  0.85781  0.49938  0.58522  1.0000
  H   H1066     1.0  0.53817  0.41569  0.55641  1.0000
  H   H1067     1.0  0.97476  0.66079  0.64264  1.0000
  H   H1068     1.0  0.55243  0.49262  0.52135  1.0000
  H   H1069     1.0  0.55857  0.53872  0.51461  1.0000
  H   H1070     1.0  0.83817  0.46045  0.54590  1.0000
  H   H1071     1.0  0.81467  0.50737  0.56469  1.0000
  N   N66       1.0  0.77833  0.64177  0.60070  1.0000
  C   C678      1.0  0.85583  0.51468  0.54539  1.0000
  S   S279      1.0  0.89280  0.34856  0.54875  1.0000
  C   C679      1.0  0.81784  0.48910  0.56250  1.0000
  H   H1072     1.0  0.85970  0.53019  0.57737  1.0000
  H   H1073     1.0  0.87758  0.52110  0.54294  1.0000
  C   C680      1.0  0.55695  0.49959  0.53438  1.0000
  C   C681      1.0  0.60732  0.62593  0.51577  1.0000
  H   H1074     1.0  0.57722  0.39805  0.58950  1.0000
  H   H1075     1.0  0.84426  0.45911  0.56743  1.0000
  H   H1076     1.0  0.54300  0.54016  0.53356  1.0000
  H   H1077     1.0  0.80898  0.65220  0.58257  1.0000
  H   H1078     1.0  0.88509  0.52008  0.57225  1.0000
  C   C682      1.0  0.63083  0.62687  0.52300  1.0000
  H   H1079     1.0  0.84385  0.50404  0.53416  1.0000
  N   N67       1.0  0.98655  0.57760  0.51547  1.0000
  H   H1080     1.0  0.57599  0.56664  0.52888  1.0000
  C   C683      1.0  0.58022  0.53745  0.55343  1.0000
  H   H1081     1.0  0.85361  0.53353  0.54734  1.0000
  H   H1082     1.0  0.81039  0.47611  0.57336  1.0000
  H   H1083     1.0  0.52005  0.37759  0.57471  1.0000
  C   C684      1.0  0.98267  0.36808  0.51353  1.0000
  H   H1084     1.0  0.74908  0.61247  0.58381  1.0000
  S   S280      1.0  0.95085  0.34445  0.52123  1.0000
  H   H1085     1.0  0.61145  0.52467  0.53401  1.0000
  C   C685      1.0  0.52881  0.36337  0.57631  1.0000
  S   S281      1.0  0.97131  0.34764  0.60254  1.0000
  C   C686      1.0  0.56251  0.54424  0.52786  1.0000
  H   H1086     1.0  0.99830  0.61133  0.53253  1.0000
  H   H1087     1.0  0.56634  0.48787  0.54015  1.0000
  C   C687      1.0  0.80142  0.63939  0.59351  1.0000
  H   H1088     1.0  0.55217  0.40731  0.59657  1.0000
  H   H1089     1.0  0.56724  0.39329  0.61051  1.0000
  H   H1090     1.0  0.79543  0.61804  0.58939  1.0000
  H   H1091     1.0  0.67402  0.64290  0.52109  1.0000
  H   H1092     1.0  0.59253  0.55989  0.55509  1.0000
  C   C688      1.0  0.75649  0.63391  0.58819  1.0000
  H   H1093     1.0  0.98492  0.57880  0.54170  1.0000
  H   H1094     1.0  0.59824  0.52954  0.51491  1.0000
  H   H1095     1.0  0.94525  0.56417  0.52242  1.0000
  H   H1096     1.0  0.78401  0.62851  0.62431  1.0000
  Fe  Fe141     1.0  0.93292  0.34769  0.54559  1.0000
  H   H1097     1.0  0.70676  0.66199  0.59799  1.0000
  H   H1098     1.0  0.97037  0.53724  0.52479  1.0000
  C   C689      1.0  0.55965  0.39188  0.59770  1.0000
  H   H1099     1.0  0.55539  0.34405  0.60796  1.0000
  C   C690      1.0  0.71440  0.66697  0.61047  1.0000
  H   H1100     1.0  0.76342  0.64690  0.57729  1.0000
  H   H1101     1.0  0.98560  0.34819  0.54825  1.0000
  C   C691      1.0  0.54835  0.34413  0.59518  1.0000
  C   C692      1.0  0.99763  0.59100  0.53158  1.0000
  H   H1102     1.0  0.52094  0.35738  0.61735  1.0000
  H   H1103     1.0  0.56565  0.34861  0.58701  1.0000
  H   H1104     1.0  0.51286  0.34262  0.57251  1.0000
  C   C693      1.0  0.51491  0.35728  0.60434  1.0000
  C   C694      1.0  0.97849  0.67320  0.61762  1.0000
  C   C695      1.0  0.78708  0.67018  0.60638  1.0000
  H   H1105     1.0  0.76999  0.67249  0.61188  1.0000
  H   H1106     1.0  0.61866  0.58269  0.97874  1.0000
  Fe  Fe142     1.0  0.63340  0.55944  0.93634  1.0000
  S   S282      1.0  0.66193  0.56284  0.95687  1.0000
  S   S283      1.0  0.58790  0.52911  0.93430  1.0000
  Fe  Fe143     1.0  0.67495  0.61476  0.92275  1.0000
  S   S284      1.0  0.70622  0.62219  0.94263  1.0000
  S   S285      1.0  0.67663  0.64411  0.90297  1.0000
  Fe  Fe144     1.0  0.69521  0.57797  0.93845  1.0000
  S   S286      1.0  0.72435  0.55952  0.94066  1.0000
  Fe  Fe145     1.0  0.67115  0.60663  0.95981  1.0000
  S   S287      1.0  0.67455  0.62087  0.98642  1.0000
  S   S288      1.0  0.66577  0.57115  0.91735  1.0000
  S   S289      1.0  0.64075  0.60274  0.94044  1.0000
  H   H1107     1.0  0.90581  0.54132  0.99789  1.0000
  S   S290      1.0  0.96017  0.37794  0.94908  1.0000
  H   H1108     1.0  0.76458  0.63112  0.00557  1.0000
  Fe  Fe146     1.0  0.92513  0.38510  0.94115  1.0000
  S   S291      1.0  0.94114  0.43005  0.93461  1.0000
  H   H1109     1.0  0.88024  0.50681  0.00078  1.0000
  Fe  Fe147     1.0  0.88450  0.59920  0.94507  1.0000
  S   S292      1.0  0.90091  0.58866  0.92248  1.0000
  S   S293      1.0  0.85399  0.61621  0.94475  1.0000
  Fe  Fe148     1.0  0.93015  0.59814  0.96720  1.0000
  S   S294      1.0  0.94970  0.58816  0.94614  1.0000
  S   S295      1.0  0.94322  0.60096  0.99397  1.0000
  Fe  Fe149     1.0  0.94216  0.61920  0.93230  1.0000
  S   S296      1.0  0.97565  0.65737  0.92130  1.0000
  Fe  Fe150     1.0  0.90688  0.55838  0.93826  1.0000
  S   S297      1.0  0.88994  0.51248  0.93294  1.0000
  S   S298      1.0  0.92559  0.63094  0.95420  1.0000
  S   S299      1.0  0.88756  0.56720  0.96012  1.0000
  H   H1110     1.0  0.70643  0.65766  0.79972  1.0000
  C   C696      1.0  0.95934  0.65300  0.88857  1.0000
  C   C697      1.0  0.97611  0.66965  0.90136  1.0000
  C   C698      1.0  0.89392  0.52100  0.99167  1.0000
  N   N68       1.0  0.91188  0.51081  0.98451  1.0000
  C   C699      1.0  0.92640  0.45257  0.93517  1.0000
  C   C700      1.0  0.89834  0.44317  0.93512  1.0000
  C   C701      1.0  0.88763  0.46180  0.93431  1.0000
  C   C702      1.0  0.90477  0.49008  0.93393  1.0000
  C   C703      1.0  0.93285  0.49953  0.93439  1.0000
  C   C704      1.0  0.94354  0.48086  0.93484  1.0000
  H   H1111     1.0  0.88484  0.42151  0.93522  1.0000
  H   H1112     1.0  0.86587  0.45421  0.93388  1.0000
  H   H1113     1.0  0.94631  0.52116  0.93393  1.0000
  H   H1114     1.0  0.96528  0.48840  0.93475  1.0000
  C   C705      1.0  0.71378  0.57471  0.98719  1.0000
  H   H1115     1.0  0.72818  0.62517  0.97642  1.0000
  H   H1116     1.0  0.59996  0.55006  0.98768  1.0000
  H   H1117     1.0  0.97988  0.41323  0.86870  1.0000
  H   H1118     1.0  0.57382  0.43617  0.94644  1.0000
  H   H1119     1.0  0.93635  0.39814  0.88294  1.0000
  C   C706      1.0  0.89526  0.48458  0.97568  1.0000
  H   H1120     1.0  0.67008  0.65011  0.82936  1.0000
  H   H1121     1.0  0.71106  0.56003  0.99694  1.0000
  C   C707      1.0  0.92810  0.50690  0.99765  1.0000
  H   H1122     1.0  0.95991  0.36926  0.88286  1.0000
  C   C708      1.0  0.76044  0.57559  0.94071  1.0000
  C   C709      1.0  0.77606  0.60383  0.93971  1.0000
  C   C710      1.0  0.80461  0.61579  0.94092  1.0000
  C   C711      1.0  0.81796  0.59974  0.94286  1.0000
  C   C712      1.0  0.80236  0.57148  0.94366  1.0000
  C   C713      1.0  0.77378  0.55954  0.94266  1.0000
  H   H1123     1.0  0.76621  0.61647  0.93797  1.0000
  H   H1124     1.0  0.81647  0.63766  0.94021  1.0000
  H   H1125     1.0  0.81230  0.55885  0.94514  1.0000
  H   H1126     1.0  0.76193  0.53767  0.94342  1.0000
  C   C714      1.0  0.65361  0.63442  0.99435  1.0000
  Fe  Fe151     1.0  0.93376  0.35316  0.96891  1.0000
  H   H1127     1.0  0.97882  0.41229  0.92083  1.0000
  C   C715      1.0  0.63907  0.64310  0.98404  1.0000
  H   H1128     1.0  0.88144  0.46875  0.98399  1.0000
  H   H1129     1.0  0.55912  0.58519  0.95980  1.0000
  H   H1130     1.0  0.64114  0.64238  0.97095  1.0000
  C   C716      1.0  0.53579  0.43649  0.94154  1.0000
  H   H1131     1.0  0.91866  0.53409  0.96290  1.0000
  C   C717      1.0  0.54011  0.48121  0.93543  1.0000
  C   C718      1.0  0.56858  0.49335  0.93721  1.0000
  C   C719      1.0  0.58055  0.47690  0.94135  1.0000
  C   C720      1.0  0.56425  0.44868  0.94345  1.0000
  H   H1132     1.0  0.94412  0.52386  0.96729  1.0000
  H   H1133     1.0  0.53058  0.49364  0.93215  1.0000
  H   H1134     1.0  0.60237  0.48584  0.94273  1.0000
  H   H1135     1.0  0.59516  0.60331  0.96320  1.0000
  C   C721      1.0  0.93028  0.53084  0.97300  1.0000
  N   N69       1.0  0.97503  0.40887  0.89465  1.0000
  H   H1136     1.0  0.55332  0.58111  0.98960  1.0000
  H   H1137     1.0  0.99086  0.37993  0.89456  1.0000
  S   S300      1.0  0.51637  0.40064  0.94412  1.0000
  H   H1138     1.0  0.58919  0.59789  0.99340  1.0000
  C   C722      1.0  0.57767  0.58263  0.96145  1.0000
  C   C723      1.0  0.76196  0.58963  0.98653  1.0000
  H   H1139     1.0  0.96389  0.66150  0.80889  1.0000
  N   N70       1.0  0.57543  0.56520  0.97539  1.0000
  C   C724      1.0  0.57150  0.57772  0.99058  1.0000
  C   C725      1.0  0.69917  0.67286  0.80263  1.0000
  H   H1140     1.0  0.69741  0.58086  0.98832  1.0000
  C   C726      1.0  0.55207  0.53798  0.97245  1.0000
  C   C727      1.0  0.97716  0.61819  0.00154  1.0000
  C   C728      1.0  0.69255  0.66019  0.83098  1.0000
  H   H1141     1.0  0.73995  0.60705  0.96301  1.0000
  H   H1142     1.0  0.71053  0.56357  0.97521  1.0000
  H   H1143     1.0  0.56912  0.56485  0.00130  1.0000
  H   H1144     1.0  0.94150  0.65096  0.79121  1.0000
  C   C729      1.0  0.52381  0.45302  0.93760  1.0000
  H   H1145     1.0  0.99393  0.44480  0.88040  1.0000
  C   C730      1.0  0.99000  0.42293  0.90986  1.0000
  C   C731      1.0  0.60053  0.56248  0.97705  1.0000
  H   H1146     1.0  0.99669  0.39955  0.97950  1.0000
  H   H1147     1.0  0.95951  0.36907  0.90476  1.0000
  H   H1148     1.0  0.55438  0.52818  0.96097  1.0000
  C   C732      1.0  0.70576  0.66768  0.89277  1.0000
  C   C733      1.0  0.99906  0.62499  0.99124  1.0000
  C   C734      1.0  0.00258  0.34981  0.96484  1.0000
  H   H1149     1.0  0.94924  0.64991  0.86279  1.0000
  H   H1150     1.0  0.94508  0.63203  0.89081  1.0000
  H   H1151     1.0  0.75934  0.57833  0.97468  1.0000
  C   C735      1.0  0.96177  0.66319  0.87268  1.0000
  H   H1152     1.0  0.61104  0.65996  0.98266  1.0000
  H   H1153     1.0  0.90816  0.47662  0.96969  1.0000
  H   H1154     1.0  0.60382  0.55254  0.96597  1.0000
  H   H1155     1.0  0.88087  0.52339  0.98209  1.0000
  H   H1156     1.0  0.94185  0.49920  0.99259  1.0000
  C   C736      1.0  0.99064  0.42339  0.88038  1.0000
  C   C737      1.0  0.97117  0.38061  0.89415  1.0000
  H   H1157     1.0  0.99535  0.61911  0.97841  1.0000
  H   H1158     1.0  0.53275  0.53922  0.97119  1.0000
  H   H1159     1.0  0.88242  0.48681  0.96585  1.0000
  C   C738      1.0  0.96250  0.66506  0.79562  1.0000
  C   C739      1.0  0.00297  0.39664  0.99153  1.0000
  H   H1160     1.0  0.51090  0.35963  0.96670  1.0000
  H   H1161     1.0  0.67692  0.66302  0.80005  1.0000
  H   H1162     1.0  0.78271  0.60721  0.98674  1.0000
  H   H1163     1.0  0.73418  0.65811  0.90551  1.0000
  N   N71       1.0  0.74091  0.59865  0.98835  1.0000
  H   H1164     1.0  0.94294  0.55102  0.97917  1.0000
  S   S301      1.0  0.95037  0.35498  0.99479  1.0000
  C   C740      1.0  0.73162  0.67058  0.89633  1.0000
  H   H1165     1.0  0.76109  0.57578  0.99641  1.0000
  C   C741      1.0  0.74336  0.61745  0.97520  1.0000
  C   C742      1.0  0.62214  0.65320  0.99071  1.0000
  H   H1166     1.0  0.55392  0.36557  0.95497  1.0000
  C   C743      1.0  0.94829  0.40853  0.89425  1.0000
  H   H1167     1.0  0.98443  0.35157  0.96882  1.0000
  S   S302      1.0  0.89925  0.36207  0.96208  1.0000
  H   H1168     1.0  0.95038  0.42951  0.89495  1.0000
  H   H1169     1.0  0.55004  0.52407  0.98254  1.0000
  H   H1170     1.0  0.76384  0.63538  0.97526  1.0000
  H   H1171     1.0  0.97658  0.65919  0.78914  1.0000
  H   H1172     1.0  0.58069  0.57374  0.94979  1.0000
  S   S303      1.0  0.90855  0.34833  0.92383  1.0000
  C   C744      1.0  0.98412  0.37722  0.00165  1.0000
  H   H1173     1.0  0.99268  0.44412  0.91091  1.0000
  H   H1174     1.0  0.93596  0.39767  0.90483  1.0000
  H   H1175     1.0  0.69934  0.64439  0.82889  1.0000
  H   H1176     1.0  0.51816  0.34591  0.98471  1.0000
  C   C745      1.0  0.55067  0.34617  0.96067  1.0000
  C   C746      1.0  0.74437  0.61283  0.00436  1.0000
  H   H1177     1.0  0.69743  0.66722  0.84402  1.0000
  H   H1178     1.0  0.94085  0.52640  0.00450  1.0000
  H   H1179     1.0  0.99112  0.65248  0.95596  1.0000
  H   H1180     1.0  0.97232  0.66421  0.97953  1.0000
  H   H1181     1.0  0.56114  0.35153  0.97286  1.0000
  H   H1182     1.0  0.00240  0.34971  0.95125  1.0000
  H   H1183     1.0  0.72867  0.61985  0.00594  1.0000
  S   S304      1.0  0.98438  0.72652  0.22101  1.0000
  C   C747      1.0  0.70202  0.79206  0.20473  1.0000
  Fe  Fe152     1.0  0.99116  0.79986  0.18398  1.0000
  S   S305      1.0  0.96398  0.81973  0.17935  1.0000
  S   S306      1.0  0.97883  0.75589  0.17834  1.0000
  Fe  Fe153     1.0  0.78951  0.98398  0.18849  1.0000
  H   H1184     1.0  0.51825  0.94300  0.06722  1.0000
  S   S307      1.0  0.78642  0.94608  0.20000  1.0000
  H   H1185     1.0  0.61571  0.86479  0.08501  1.0000
  Fe  Fe154     1.0  0.80777  0.77687  0.17445  1.0000
  S   S308      1.0  0.76975  0.75648  0.18915  1.0000
  S   S309      1.0  0.83488  0.75622  0.17434  1.0000
  Fe  Fe155     1.0  0.79759  0.82480  0.16697  1.0000
  S   S310      1.0  0.75971  0.80855  0.18127  1.0000
  S   S311      1.0  0.81131  0.86569  0.15568  1.0000
  Fe  Fe156     1.0  0.78283  0.79822  0.20005  1.0000
  S   S312      1.0  0.78524  0.81240  0.22647  1.0000
  Fe  Fe157     1.0  0.74943  0.76821  0.16894  1.0000
  S   S313      1.0  0.70425  0.74389  0.16222  1.0000
  S   S314      1.0  0.82182  0.81786  0.18664  1.0000
  S   S315      1.0  0.78635  0.78516  0.15325  1.0000
  H   H1186     1.0  0.63829  0.97032  0.01593  1.0000
  S   S316      1.0  0.61511  0.71310  0.05661  1.0000
  C   C748      1.0  0.86303  0.76653  0.22490  1.0000
  Fe  Fe158     1.0  0.57461  0.70614  0.06605  1.0000
  S   S317      1.0  0.56104  0.73871  0.07161  1.0000
  H   H1187     1.0  0.85978  0.80268  0.20474  1.0000
  Fe  Fe159     1.0  0.61128  0.93261  0.08883  1.0000
  S   S318      1.0  0.63350  0.93701  0.06550  1.0000
  S   S319      1.0  0.63010  0.93665  0.11436  1.0000
  Fe  Fe160     1.0  0.55531  0.90957  0.07050  1.0000
  S   S320      1.0  0.57426  0.91181  0.04606  1.0000
  Fe  Fe161     1.0  0.59952  0.89523  0.05882  1.0000
  S   S321      1.0  0.60921  0.86195  0.04889  1.0000
  Fe  Fe162     1.0  0.60623  0.95321  0.05505  1.0000
  H   H1188     1.0  0.74816  0.94886  0.22663  1.0000
  S   S322      1.0  0.57861  0.89026  0.08249  1.0000
  S   S323      1.0  0.58593  0.95154  0.07915  1.0000
  H   H1189     1.0  0.74079  0.72642  0.25602  1.0000
  C   C749      1.0  0.85846  0.80636  0.21805  1.0000
  H   H1190     1.0  0.62333  0.88417  0.10384  1.0000
  H   H1191     1.0  0.86477  0.76196  0.21176  1.0000
  H   H1192     1.0  0.64956  0.85227  0.07318  1.0000
  C   C750      1.0  0.57561  0.77317  0.06551  1.0000
  C   C751      1.0  0.56623  0.79059  0.07250  1.0000
  C   C752      1.0  0.57659  0.81786  0.06776  1.0000
  C   C753      1.0  0.59620  0.82798  0.05573  1.0000
  C   C754      1.0  0.60571  0.81067  0.04880  1.0000
  C   C755      1.0  0.59562  0.78347  0.05371  1.0000
  H   H1193     1.0  0.55084  0.78285  0.08168  1.0000
  H   H1194     1.0  0.56923  0.83094  0.07332  1.0000
  H   H1195     1.0  0.62089  0.81823  0.03949  1.0000
  H   H1196     1.0  0.60299  0.77032  0.04818  1.0000
  C   C756      1.0  0.69120  0.73213  0.14203  1.0000
  C   C757      1.0  0.70686  0.72825  0.13004  1.0000
  C   C758      1.0  0.69526  0.71700  0.11454  1.0000
  C   C759      1.0  0.66811  0.71015  0.11064  1.0000
  C   C760      1.0  0.65257  0.71459  0.12251  1.0000
  C   C761      1.0  0.66398  0.72518  0.13818  1.0000
  H   H1197     1.0  0.72776  0.73335  0.13281  1.0000
  H   H1198     1.0  0.88579  0.95984  0.18395  1.0000
  H   H1199     1.0  0.65250  0.83840  0.09226  1.0000
  C   C762      1.0  0.77444  0.79210  0.24386  1.0000
  C   C763      1.0  0.76087  0.76362  0.24270  1.0000
  C   C764      1.0  0.84399  0.78617  0.24430  1.0000
  H   H1200     1.0  0.75733  0.75327  0.23092  1.0000
  H   H1201     1.0  0.83117  0.79663  0.24599  1.0000
  C   C765      1.0  0.79230  0.92336  0.18735  1.0000
  C   C766      1.0  0.79603  0.92735  0.17056  1.0000
  C   C767      1.0  0.80192  0.90962  0.16087  1.0000
  C   C768      1.0  0.80366  0.88758  0.16789  1.0000
  C   C769      1.0  0.79965  0.88347  0.18466  1.0000
  C   C770      1.0  0.79406  0.90136  0.19436  1.0000
  H   H1202     1.0  0.79416  0.94391  0.16498  1.0000
  H   H1203     1.0  0.80475  0.91270  0.14788  1.0000
  H   H1204     1.0  0.80127  0.86671  0.19020  1.0000
  H   H1205     1.0  0.79127  0.89817  0.20734  1.0000
  C   C771      1.0  0.71969  0.98741  0.13053  1.0000
  N   N72       1.0  0.84607  0.78047  0.22679  1.0000
  C   C772      1.0  0.68389  0.97387  0.10938  1.0000
  C   C773      1.0  0.66482  0.95613  0.12009  1.0000
  C   C774      1.0  0.67340  0.95381  0.13596  1.0000
  C   C775      1.0  0.70071  0.96924  0.14115  1.0000
  H   H1206     1.0  0.67756  0.97594  0.09715  1.0000
  H   H1207     1.0  0.65879  0.94004  0.14431  1.0000
  H   H1208     1.0  0.70698  0.96721  0.15338  1.0000
  H   H1209     1.0  0.72564  0.00355  0.10632  1.0000
  H   H1210     1.0  0.51868  0.86636  0.04169  1.0000
  C   C776      1.0  0.92808  0.80174  0.17844  1.0000
  C   C777      1.0  0.91402  0.77345  0.17983  1.0000
  C   C778      1.0  0.88550  0.75980  0.17842  1.0000
  C   C779      1.0  0.87075  0.77428  0.17578  1.0000
  C   C780      1.0  0.88479  0.80259  0.17453  1.0000
  C   C781      1.0  0.91333  0.81621  0.17580  1.0000
  H   H1211     1.0  0.92509  0.76205  0.18193  1.0000
  H   H1212     1.0  0.87480  0.73788  0.17939  1.0000
  H   H1213     1.0  0.87371  0.81397  0.17236  1.0000
  H   H1214     1.0  0.92404  0.83809  0.17465  1.0000
  H   H1215     1.0  0.61830  0.84970  0.10368  1.0000
  H   H1216     1.0  0.93385  0.75215  0.13888  1.0000
  H   H1217     1.0  0.83455  0.76708  0.25128  1.0000
  H   H1218     1.0  0.81948  0.75747  0.20675  1.0000
  H   H1219     1.0  0.73567  0.77131  0.21125  1.0000
  H   H1220     1.0  0.68224  0.86427  0.08306  1.0000
  H   H1221     1.0  0.69947  0.78667  0.19138  1.0000
  C   C782      1.0  0.00094  0.73556  0.24028  1.0000
  S   S324      1.0  0.61881  0.99342  0.04218  1.0000
  N   N73       1.0  0.96355  0.79132  0.13087  1.0000
  N   N74       1.0  0.69620  0.76801  0.21462  1.0000
  C   C783      1.0  0.70138  0.77634  0.23212  1.0000
  C   C784      1.0  0.66758  0.74746  0.21190  1.0000
  H   H1222     1.0  0.69772  0.75880  0.23995  1.0000
  H   H1223     1.0  0.68820  0.78524  0.23640  1.0000
  H   H1224     1.0  0.66332  0.74083  0.19875  1.0000
  H   H1225     1.0  0.66255  0.72898  0.21912  1.0000
  H   H1226     1.0  0.65348  0.75567  0.21545  1.0000
  H   H1227     1.0  0.71049  0.73816  0.21697  1.0000
  N   N75       1.0  0.65638  0.87888  0.09413  1.0000
  C   C785      1.0  0.67109  0.88553  0.11008  1.0000
  C   C786      1.0  0.66673  0.90359  0.08428  1.0000
  C   C787      1.0  0.62714  0.86892  0.09682  1.0000
  C   C788      1.0  0.66041  0.85753  0.08530  1.0000
  H   H1228     1.0  0.66368  0.86738  0.11789  1.0000
  H   H1229     1.0  0.66838  0.90169  0.11693  1.0000
  H   H1230     1.0  0.69326  0.89319  0.10854  1.0000
  H   H1231     1.0  0.65643  0.89913  0.07201  1.0000
  H   H1232     1.0  0.66330  0.91985  0.09039  1.0000
  H   H1233     1.0  0.68888  0.91211  0.08230  1.0000
  C   C789      1.0  0.71398  0.75615  0.20965  1.0000
  H   H1234     1.0  0.72286  0.79198  0.23445  1.0000
  H   H1235     1.0  0.68835  0.80104  0.20771  1.0000
  H   H1236     1.0  0.97202  0.79745  0.10530  1.0000
  H   H1237     1.0  0.71053  0.74939  0.19655  1.0000
  H   H1238     1.0  0.51929  0.81183  0.06738  1.0000
  C   C790      1.0  0.95435  0.76873  0.14236  1.0000
  H   H1239     1.0  0.84636  0.81763  0.21938  1.0000
  H   H1240     1.0  0.72325  0.80833  0.20691  1.0000
  H   H1241     1.0  0.96851  0.75965  0.14280  1.0000
  H   H1242     1.0  0.00576  0.80476  0.13653  1.0000
  H   H1243     1.0  0.95044  0.81983  0.12220  1.0000
  C   C791      1.0  0.63350  0.00542  0.02292  1.0000
  H   H1244     1.0  0.80460  0.95735  0.23657  1.0000
  H   H1245     1.0  0.65168  0.72813  0.14734  1.0000
  H   H1246     1.0  0.77773  0.98081  0.22988  1.0000
  Fe  Fe163     1.0  0.00159  0.75822  0.20174  1.0000
  C   C792      1.0  0.96499  0.78095  0.11433  1.0000
  C   C793      1.0  0.81866  0.76286  0.21982  1.0000
  H   H1247     1.0  0.80572  0.77323  0.22044  1.0000
  H   H1248     1.0  0.92338  0.78702  0.12712  1.0000
  C   C794      1.0  0.86578  0.99343  0.15707  1.0000
  N   N76       1.0  0.76945  0.95296  0.24949  1.0000
  H   H1249     1.0  0.77530  0.92505  0.23341  1.0000
  H   H1250     1.0  0.88912  0.96129  0.16210  1.0000
  C   C795      1.0  0.64128  0.99021  0.01241  1.0000
  H   H1251     1.0  0.69384  0.00769  0.17328  1.0000
  S   S325      1.0  0.57632  0.68224  0.08770  1.0000
  H   H1252     1.0  0.80825  0.74347  0.22643  1.0000
  C   C796      1.0  0.76025  0.96462  0.23617  1.0000
  H   H1253     1.0  0.79417  0.93276  0.25247  1.0000
  H   H1254     1.0  0.98764  0.76539  0.24649  1.0000
  C   C797      1.0  0.86062  0.99113  0.18634  1.0000
  C   C798      1.0  0.99073  0.81279  0.13612  1.0000
  H   H1255     1.0  0.94299  0.81083  0.14315  1.0000
  H   H1256     1.0  0.86428  0.79952  0.24998  1.0000
  H   H1257     1.0  0.95315  0.77592  0.15496  1.0000
  S   S326      1.0  0.75321  0.99092  0.18465  1.0000
  C   C799      1.0  0.71115  0.98948  0.11461  1.0000
  H   H1258     1.0  0.97948  0.77218  0.11421  1.0000
  H   H1259     1.0  0.74754  0.97385  0.24084  1.0000
  H   H1260     1.0  0.70745  0.71358  0.10549  1.0000
  C   C800      1.0  0.94423  0.80274  0.13077  1.0000
  N   N77       1.0  0.87722  0.98991  0.17270  1.0000
  C   C801      1.0  0.87714  0.96317  0.17239  1.0000
  H   H1261     1.0  0.63173  0.70962  0.11971  1.0000
  H   H1262     1.0  0.85616  0.94612  0.17085  1.0000
  C   C802      1.0  0.53567  0.82879  0.03688  1.0000
  C   C803      1.0  0.99823  0.75447  0.25079  1.0000
  H   H1263     1.0  0.53380  0.82754  0.02331  1.0000
  H   H1264     1.0  0.99847  0.83014  0.12769  1.0000
  S   S327      1.0  0.65414  0.69390  0.09135  1.0000
  H   H1265     1.0  0.99037  0.82114  0.14855  1.0000
  C   C804      1.0  0.51401  0.82740  0.06247  1.0000
  H   H1266     1.0  0.88399  0.77931  0.22987  1.0000
  H   H1267     1.0  0.86832  0.98805  0.19831  1.0000
  H   H1268     1.0  0.87941  0.82001  0.22272  1.0000
  H   H1269     1.0  0.94487  0.76460  0.11000  1.0000
  H   H1270     1.0  0.84461  0.97709  0.15487  1.0000
  H   H1271     1.0  0.85427  0.74684  0.23129  1.0000
  H   H1272     1.0  0.73313  0.91459  0.24822  1.0000
  H   H1273     1.0  0.83920  0.97524  0.18482  1.0000
  H   H1274     1.0  0.53055  0.84780  0.06622  1.0000
  N   N78       1.0  0.51015  0.82467  0.04450  1.0000
  Fe  Fe164     1.0  0.61544  0.68706  0.07739  1.0000
  C   C805      1.0  0.78666  0.94152  0.24274  1.0000
  H   H1275     1.0  0.87789  0.99278  0.14651  1.0000
  H   H1276     1.0  0.55273  0.84911  0.04035  1.0000
  S   S328      1.0  0.80814  0.00156  0.16465  1.0000
  H   H1277     1.0  0.54180  0.81323  0.04075  1.0000
  S   S329      1.0  0.50911  0.88731  0.07274  1.0000
  Fe  Fe165     1.0  0.97209  0.77216  0.32572  1.0000
  C   C806      1.0  0.94407  0.71844  0.28997  1.0000
  S   S330      1.0  0.93149  0.76521  0.31478  1.0000
  H   H1278     1.0  0.90953  0.84294  0.32000  1.0000
  H   H1279     1.0  0.56826  0.70038  0.39798  1.0000
  H   H1280     1.0  0.59929  0.69121  0.49302  1.0000
  Fe  Fe166     1.0  0.78309  0.97791  0.31345  1.0000
  S   S331      1.0  0.74995  0.98853  0.31987  1.0000
  S   S332      1.0  0.77015  0.93662  0.30131  1.0000
  H   H1281     1.0  0.79621  0.71013  0.37700  1.0000
  Fe  Fe167     1.0  0.80003  0.76879  0.34125  1.0000
  S   S333      1.0  0.75653  0.73814  0.33661  1.0000
  S   S334      1.0  0.83111  0.75954  0.35397  1.0000
  Fe  Fe168     1.0  0.78929  0.81676  0.33304  1.0000
  S   S335      1.0  0.74477  0.79013  0.32793  1.0000
  S   S336      1.0  0.81373  0.86243  0.33543  1.0000
  Fe  Fe169     1.0  0.74535  0.76700  0.35026  1.0000
  S   S337      1.0  0.72238  0.75905  0.37414  1.0000
  Fe  Fe170     1.0  0.75944  0.76339  0.31463  1.0000
  S   S338      1.0  0.74386  0.74212  0.28997  1.0000
  S   S339      1.0  0.78895  0.79613  0.35617  1.0000
  S   S340      1.0  0.80399  0.79174  0.31835  1.0000
  Fe  Fe171     1.0  0.61663  0.93266  0.41767  1.0000
  S   S341      1.0  0.63646  0.93208  0.44153  1.0000
  S   S342      1.0  0.63682  0.95084  0.39360  1.0000
  Fe  Fe172     1.0  0.55946  0.91053  0.43333  1.0000
  S   S343      1.0  0.57598  0.90784  0.45822  1.0000
  Fe  Fe173     1.0  0.61102  0.94904  0.45347  1.0000
  H   H1282     1.0  0.79368  0.74890  0.39060  1.0000
  Fe  Fe174     1.0  0.60010  0.89066  0.44425  1.0000
  S   S344      1.0  0.61363  0.85909  0.45183  1.0000
  S   S345      1.0  0.59347  0.95207  0.42930  1.0000
  S   S346      1.0  0.58133  0.89077  0.41964  1.0000
  Fe  Fe175     1.0  0.56886  0.69637  0.44664  1.0000
  H   H1283     1.0  0.87520  0.81649  0.32120  1.0000
  S   S347      1.0  0.55475  0.72900  0.44756  1.0000
  H   H1284     1.0  0.90045  0.81835  0.33574  1.0000
  H   H1285     1.0  0.79331  0.96663  0.27182  1.0000
  S   S348      1.0  0.61059  0.70208  0.44161  1.0000
  C   C807      1.0  0.59713  0.82297  0.44958  1.0000
  C   C808      1.0  0.61234  0.80882  0.45199  1.0000
  C   C809      1.0  0.59991  0.78010  0.45108  1.0000
  C   C810      1.0  0.57195  0.76518  0.44806  1.0000
  C   C811      1.0  0.55681  0.77931  0.44548  1.0000
  C   C812      1.0  0.56932  0.80803  0.44609  1.0000
  H   H1286     1.0  0.63387  0.82025  0.45471  1.0000
  H   H1287     1.0  0.61187  0.76958  0.45303  1.0000
  H   H1288     1.0  0.53515  0.76799  0.44316  1.0000
  H   H1289     1.0  0.55733  0.81858  0.44429  1.0000
  H   H1290     1.0  0.60009  0.74401  0.42402  1.0000
  H   H1291     1.0  0.57436  0.76675  0.41280  1.0000
  H   H1292     1.0  0.65247  0.71403  0.41463  1.0000
  C   C813      1.0  0.68955  0.73464  0.37991  1.0000
  C   C814      1.0  0.67026  0.71631  0.36869  1.0000
  H   H1293     1.0  0.75198  0.92180  0.26726  1.0000
  H   H1294     1.0  0.73387  0.97453  0.39968  1.0000
  H   H1295     1.0  0.77243  0.98264  0.26779  1.0000
  C   C815      1.0  0.68284  0.73367  0.39648  1.0000
  H   H1296     1.0  0.67513  0.71679  0.35591  1.0000
  H   H1297     1.0  0.60683  0.72787  0.38074  1.0000
  C   C816      1.0  0.77927  0.80516  0.25930  1.0000
  H   H1298     1.0  0.60273  0.78723  0.40055  1.0000
  C   C817      1.0  0.75631  0.76158  0.27238  1.0000
  C   C818      1.0  0.77041  0.79000  0.27352  1.0000
  H   H1299     1.0  0.63538  0.96293  0.49356  1.0000
  H   H1300     1.0  0.77403  0.80031  0.28535  1.0000
  C   C819      1.0  0.78256  0.91609  0.31058  1.0000
  C   C820      1.0  0.76957  0.88788  0.30734  1.0000
  C   C821      1.0  0.77884  0.87111  0.31497  1.0000
  C   C822      1.0  0.80134  0.88259  0.32571  1.0000
  C   C823      1.0  0.81441  0.91081  0.32883  1.0000
  C   C824      1.0  0.80501  0.92750  0.32132  1.0000
  H   H1301     1.0  0.75221  0.87894  0.29901  1.0000
  H   H1302     1.0  0.76874  0.84936  0.31243  1.0000
  H   H1303     1.0  0.83194  0.91981  0.33703  1.0000
  H   H1304     1.0  0.81549  0.94927  0.32363  1.0000
  C   C825      1.0  0.67037  0.96152  0.38681  1.0000
  C   C826      1.0  0.69112  0.96260  0.39712  1.0000
  H   H1305     1.0  0.69760  0.00214  0.43395  1.0000
  C   C827      1.0  0.72414  0.98258  0.37546  1.0000
  C   C828      1.0  0.70329  0.98087  0.36503  1.0000
  C   C829      1.0  0.67663  0.97064  0.37075  1.0000
  H   H1306     1.0  0.68664  0.95534  0.40943  1.0000
  H   H1307     1.0  0.92786  0.88058  0.34087  1.0000
  H   H1308     1.0  0.77402  0.70982  0.36098  1.0000
  S   S349      1.0  0.62449  0.99053  0.46632  1.0000
  H   H1309     1.0  0.66670  0.98097  0.42281  1.0000
  C   C830      1.0  0.74566  0.93113  0.25723  1.0000
  C   C831      1.0  0.90407  0.76398  0.32605  1.0000
  C   C832      1.0  0.88113  0.76201  0.31750  1.0000
  C   C833      1.0  0.85869  0.76069  0.32593  1.0000
  C   C834      1.0  0.85895  0.76115  0.34301  1.0000
  C   C835      1.0  0.88185  0.76310  0.35158  1.0000
  C   C836      1.0  0.90443  0.76468  0.34314  1.0000
  H   H1310     1.0  0.88067  0.76135  0.30428  1.0000
  H   H1311     1.0  0.84108  0.75897  0.31920  1.0000
  H   H1312     1.0  0.88216  0.76336  0.36481  1.0000
  H   H1313     1.0  0.92194  0.76608  0.34985  1.0000
  Fe  Fe176     1.0  0.00815  0.76062  0.35022  1.0000
  H   H1314     1.0  0.72917  0.70726  0.36763  1.0000
  N   N79       1.0  0.93919  0.69060  0.28532  1.0000
  C   C837      1.0  0.59541  0.73740  0.48879  1.0000
  C   C838      1.0  0.77442  0.70180  0.37329  1.0000
  S   S350      1.0  0.98254  0.73764  0.32811  1.0000
  H   H1315     1.0  0.66548  0.99332  0.44304  1.0000
  H   H1316     1.0  0.50996  0.98404  0.46259  1.0000
  C   C839      1.0  0.63982  0.98329  0.49764  1.0000
  N   N80       1.0  0.74710  0.91691  0.35847  1.0000
  C   C840      1.0  0.72924  0.91354  0.37239  1.0000
  C   C841      1.0  0.77553  0.93534  0.36351  1.0000
  C   C842      1.0  0.73903  0.92874  0.34474  1.0000
  C   C843      1.0  0.74463  0.89015  0.35325  1.0000
  H   H1317     1.0  0.70754  0.90030  0.36895  1.0000
  H   H1318     1.0  0.73110  0.93353  0.37672  1.0000
  H   H1319     1.0  0.73447  0.90436  0.38295  1.0000
  H   H1320     1.0  0.78959  0.93824  0.35332  1.0000
  H   H1321     1.0  0.77820  0.95586  0.36735  1.0000
  H   H1322     1.0  0.78225  0.92721  0.37395  1.0000
  H   H1323     1.0  0.75255  0.93233  0.33419  1.0000
  H   H1324     1.0  0.74005  0.94866  0.34836  1.0000
  H   H1325     1.0  0.71792  0.91515  0.34032  1.0000
  H   H1326     1.0  0.72345  0.87567  0.34938  1.0000
  H   H1327     1.0  0.75085  0.88071  0.36323  1.0000
  H   H1328     1.0  0.75775  0.89209  0.34268  1.0000
  N   N81       1.0  0.88677  0.84851  0.33950  1.0000
  C   C844      1.0  0.87696  0.86432  0.32956  1.0000
  C   C845      1.0  0.86542  0.83148  0.35081  1.0000
  C   C846      1.0  0.91133  0.86734  0.34902  1.0000
  C   C847      1.0  0.89330  0.83085  0.32863  1.0000
  H   H1329     1.0  0.87193  0.87798  0.33738  1.0000
  H   H1330     1.0  0.85809  0.85070  0.32247  1.0000
  H   H1331     1.0  0.89233  0.87721  0.32072  1.0000
  H   H1332     1.0  0.87213  0.81944  0.35868  1.0000
  H   H1333     1.0  0.85931  0.84399  0.35889  1.0000
  H   H1334     1.0  0.84686  0.81663  0.34401  1.0000
  H   H1335     1.0  0.91927  0.85597  0.35659  1.0000
  H   H1336     1.0  0.90704  0.88085  0.35742  1.0000
  S   S351      1.0  0.80600  0.99349  0.33725  1.0000
  C   C848      1.0  0.63772  0.69651  0.39060  1.0000
  S   S352      1.0  0.75825  0.99609  0.36912  1.0000
  H   H1337     1.0  0.75112  0.67616  0.40077  1.0000
  C   C849      1.0  0.78523  0.97452  0.26188  1.0000
  H   H1338     1.0  0.55471  0.71667  0.41159  1.0000
  H   H1339     1.0  0.60217  0.75839  0.48437  1.0000
  H   H1340     1.0  0.56567  0.95207  0.47053  1.0000
  H   H1341     1.0  0.66076  0.96995  0.36267  1.0000
  C   C850      1.0  0.55613  0.99341  0.47829  1.0000
  H   H1342     1.0  0.93897  0.71979  0.30294  1.0000
  H   H1343     1.0  0.53452  0.93149  0.45945  1.0000
  C   C851      1.0  0.94425  0.68918  0.26773  1.0000
  H   H1344     1.0  0.62832  0.76460  0.41162  1.0000
  N   N82       1.0  0.75943  0.70979  0.38521  1.0000
  H   H1345     1.0  0.69765  0.74769  0.40527  1.0000
  H   H1346     1.0  0.57806  0.99867  0.47901  1.0000
  H   H1347     1.0  0.56974  0.76730  0.39111  1.0000
  S   S353      1.0  0.51964  0.91034  0.42522  1.0000
  C   C852      1.0  0.51258  0.96568  0.46490  1.0000
  C   C853      1.0  0.65716  0.71465  0.40182  1.0000
  H   H1348     1.0  0.63172  0.72520  0.47452  1.0000
  C   C854      1.0  0.71789  0.97338  0.39152  1.0000
  H   H1349     1.0  0.96568  0.73359  0.28860  1.0000
  C   C855      1.0  0.75160  0.74844  0.25693  1.0000
  H   H1350     1.0  0.58708  0.72332  0.47795  1.0000
  H   H1351     1.0  0.00571  0.77256  0.27521  1.0000
  C   C856      1.0  0.63947  0.73983  0.48513  1.0000
  C   C857      1.0  0.73082  0.69889  0.37961  1.0000
  H   H1352     1.0  0.58847  0.74446  0.37241  1.0000
  H   H1353     1.0  0.61396  0.72816  0.41035  1.0000
  H   H1354     1.0  0.65648  0.73728  0.49075  1.0000
  S   S354      1.0  0.99427  0.79291  0.34904  1.0000
  H   H1355     1.0  0.54949  0.71670  0.38990  1.0000
  C   C858      1.0  0.64442  0.69744  0.37402  1.0000
  H   H1356     1.0  0.76567  0.67929  0.37193  1.0000
  C   C859      1.0  0.56446  0.71835  0.39956  1.0000
  H   H1357     1.0  0.57545  0.98741  0.44952  1.0000
  H   H1358     1.0  0.55176  0.00053  0.44601  1.0000
  H   H1359     1.0  0.54332  0.96630  0.43955  1.0000
  C   C860      1.0  0.58395  0.76739  0.40083  1.0000
  Fe  Fe177     1.0  0.77405  0.00643  0.34318  1.0000
  H   H1360     1.0  0.64787  0.76073  0.48030  1.0000
  C   C861      1.0  0.60894  0.74533  0.41175  1.0000
  H   H1361     1.0  0.53406  0.93850  0.48091  1.0000
  C   C862      1.0  0.54401  0.94746  0.46928  1.0000
  H   H1362     1.0  0.93156  0.72509  0.28241  1.0000
  C   C863      1.0  0.67661  0.99886  0.43137  1.0000
  N   N83       1.0  0.61786  0.73463  0.49695  1.0000
  N   N84       1.0  0.58989  0.74414  0.39867  1.0000
  H   H1363     1.0  0.74948  0.70461  0.41061  1.0000
  C   C864      1.0  0.63618  0.00064  0.48686  1.0000
  C   C865      1.0  0.55356  0.98211  0.44944  1.0000
  N   N85       1.0  0.54153  0.97218  0.46548  1.0000
  C   C866      1.0  0.60225  0.74532  0.38262  1.0000
  H   H1364     1.0  0.95430  0.68431  0.30834  1.0000
  H   H1365     1.0  0.62953  0.68346  0.36524  1.0000
  H   H1366     1.0  0.80277  0.99187  0.25640  1.0000
  H   H1367     1.0  0.62168  0.76436  0.38160  1.0000
  C   C867      1.0  0.77199  0.73980  0.38659  1.0000
  H   H1368     1.0  0.73245  0.93912  0.26271  1.0000
  H   H1369     1.0  0.97934  0.69828  0.29295  1.0000
  H   H1370     1.0  0.54768  0.98642  0.49056  1.0000
  H   H1371     1.0  0.96569  0.70300  0.26495  1.0000
  H   H1372     1.0  0.70775  0.98789  0.35266  1.0000
  H   H1373     1.0  0.77132  0.74856  0.37462  1.0000
  C   C868      1.0  0.60771  0.70677  0.50312  1.0000
  H   H1374     1.0  0.78184  0.70665  0.40593  1.0000
  C   C869      1.0  0.95767  0.68368  0.29499  1.0000
  C   C870      1.0  0.00818  0.75829  0.26708  1.0000
  H   H1375     1.0  0.93147  0.69527  0.25999  1.0000
  H   H1376     1.0  0.63829  0.99976  0.41158  1.0000
  H   H1377     1.0  0.76110  0.74673  0.39533  1.0000
  H   H1378     1.0  0.57830  0.73276  0.49716  1.0000
  H   H1379     1.0  0.78976  0.82719  0.26030  1.0000
  H   H1380     1.0  0.71895  0.70448  0.38839  1.0000
  C   C871      1.0  0.76053  0.69880  0.40135  1.0000
  S   S355      1.0  0.00757  0.79732  0.31002  1.0000
  H   H1381     1.0  0.72067  0.67630  0.37819  1.0000
  H   H1382     1.0  0.89634  0.67588  0.28156  1.0000
  S   S356      1.0  0.63662  0.67509  0.47677  1.0000
  H   H1383     1.0  0.00288  0.70754  0.65432  1.0000
  Fe  Fe178     1.0  0.99435  0.78780  0.68752  1.0000
  S   S357      1.0  0.95013  0.77139  0.69340  1.0000
  H   H1384     1.0  0.98636  0.69215  0.59426  1.0000
  H   H1385     1.0  0.88740  0.81923  0.74362  1.0000
  S   S358      1.0  0.76160  0.97878  0.68272  1.0000
  S   S359      1.0  0.79980  0.94881  0.65507  1.0000
  C   C872      1.0  0.85635  0.91075  0.68457  1.0000
  H   H1386     1.0  0.79605  0.72012  0.75351  1.0000
  Fe  Fe179     1.0  0.78465  0.80741  0.68441  1.0000
  S   S360      1.0  0.75641  0.76245  0.68647  1.0000
  S   S361      1.0  0.77536  0.84139  0.69326  1.0000
  Fe  Fe180     1.0  0.83206  0.79759  0.67403  1.0000
  S   S362      1.0  0.80811  0.75218  0.67516  1.0000
  S   S363      1.0  0.87597  0.82158  0.66712  1.0000
  Fe  Fe181     1.0  0.77438  0.75715  0.66279  1.0000
  S   S364      1.0  0.75308  0.73623  0.63867  1.0000
  Fe  Fe182     1.0  0.79218  0.76080  0.69868  1.0000
  S   S365      1.0  0.79421  0.73937  0.72165  1.0000
  S   S366      1.0  0.79979  0.80247  0.65999  1.0000
  S   S367      1.0  0.81893  0.80580  0.69829  1.0000
  C   C873      1.0  0.78048  0.74333  0.74026  1.0000
  C   C874      1.0  0.76558  0.75783  0.74138  1.0000
  C   C875      1.0  0.90881  0.72373  0.65491  1.0000
  H   H1387     1.0  0.76189  0.76669  0.73057  1.0000
  C   C876      1.0  0.94129  0.70979  0.66499  1.0000
  C   C877      1.0  0.79249  0.91894  0.66578  1.0000
  C   C878      1.0  0.78678  0.91707  0.68243  1.0000
  C   C879      1.0  0.78096  0.89292  0.69057  1.0000
  C   C880      1.0  0.78087  0.87050  0.68218  1.0000
  C   C881      1.0  0.78596  0.87218  0.66545  1.0000
  C   C882      1.0  0.79194  0.89639  0.65732  1.0000
  H   H1388     1.0  0.78704  0.93429  0.68906  1.0000
  H   H1389     1.0  0.77686  0.89171  0.70350  1.0000
  H   H1390     1.0  0.78529  0.85481  0.65878  1.0000
  H   H1391     1.0  0.79601  0.89757  0.64438  1.0000
  C   C883      1.0  0.00571  0.72195  0.61401  1.0000
  H   H1392     1.0  0.92386  0.71375  0.62553  1.0000
  H   H1393     1.0  0.90751  0.91997  0.67899  1.0000
  C   C884      1.0  0.93041  0.78632  0.68614  1.0000
  C   C885      1.0  0.94091  0.80848  0.67580  1.0000
  C   C886      1.0  0.92411  0.81931  0.66998  1.0000
  C   C887      1.0  0.89683  0.80792  0.67445  1.0000
  C   C888      1.0  0.88645  0.78580  0.68478  1.0000
  C   C889      1.0  0.90319  0.77501  0.69058  1.0000
  H   H1394     1.0  0.96192  0.81730  0.67235  1.0000
  H   H1395     1.0  0.93222  0.83647  0.66200  1.0000
  H   H1396     1.0  0.86552  0.77701  0.68837  1.0000
  H   H1397     1.0  0.89498  0.75784  0.69856  1.0000
  H   H1398     1.0  0.87359  0.76989  0.74707  1.0000
  H   H1399     1.0  0.89155  0.70318  0.65668  1.0000
  H   H1400     1.0  0.98089  0.77734  0.75325  1.0000
  N   N86       1.0  0.93398  0.72213  0.65119  1.0000
  C   C890      1.0  0.92980  0.70528  0.63615  1.0000
  H   H1401     1.0  0.62424  0.70384  0.50911  1.0000
  H   H1402     1.0  0.85152  0.85510  0.66365  1.0000
  C   C891      1.0  0.75737  0.00332  0.74318  1.0000
  H   H1403     1.0  0.74118  0.68561  0.65548  1.0000
  C   C892      1.0  0.73730  0.70134  0.63233  1.0000
  H   H1404     1.0  0.97563  0.74952  0.64635  1.0000
  H   H1405     1.0  0.73006  0.71029  0.60779  1.0000
  Fe  Fe183     1.0  0.79665  0.98432  0.66730  1.0000
  H   H1406     1.0  0.82553  0.85775  0.67495  1.0000
  H   H1407     1.0  0.84007  0.87907  0.65779  1.0000
  H   H1408     1.0  0.87506  0.86122  0.69083  1.0000
  H   H1409     1.0  0.79455  0.68449  0.59610  1.0000
  C   C893      1.0  0.72761  0.69437  0.61607  1.0000
  C   C894      1.0  0.95614  0.74984  0.64876  1.0000
  H   H1410     1.0  0.85244  0.81203  0.74271  1.0000
  H   H1411     1.0  0.61316  0.75121  0.51994  1.0000
  C   C895      1.0  0.86899  0.87719  0.69422  1.0000
  C   C896      1.0  0.84474  0.86976  0.66849  1.0000
  H   H1412     1.0  0.69203  0.99866  0.62104  1.0000
  H   H1413     1.0  0.00540  0.77441  0.72898  1.0000
  C   C897      1.0  0.89136  0.90408  0.67103  1.0000
  H   H1414     1.0  0.91374  0.68398  0.63763  1.0000
  H   H1415     1.0  0.89856  0.88911  0.66721  1.0000
  C   C898      1.0  0.98970  0.69544  0.60735  1.0000
  C   C899      1.0  0.99958  0.77602  0.75486  1.0000
  H   H1416     1.0  0.95162  0.75967  0.63827  1.0000
  H   H1417     1.0  0.83699  0.90098  0.69127  1.0000
  H   H1418     1.0  0.88919  0.91400  0.65980  1.0000
  H   H1419     1.0  0.92515  0.68878  0.66713  1.0000
  C   C900      1.0  0.86997  0.81671  0.75121  1.0000
  H   H1420     1.0  0.88485  0.89210  0.70276  1.0000
  H   H1421     1.0  0.84977  0.86703  0.70105  1.0000
  H   H1422     1.0  0.83921  0.76383  0.74515  1.0000
  H   H1423     1.0  0.87160  0.92705  0.69275  1.0000
  H   H1424     1.0  0.64593  0.75296  0.51721  1.0000
  H   H1425     1.0  0.85258  0.92063  0.67379  1.0000
  N   N87       1.0  0.86541  0.89051  0.67959  1.0000
  H   H1426     1.0  0.90299  0.73355  0.64496  1.0000
  N   N88       1.0  0.71324  0.91837  0.64738  1.0000
  C   C901      1.0  0.72499  0.90615  0.65886  1.0000
  C   C902      1.0  0.69638  0.89774  0.63479  1.0000
  C   C903      1.0  0.73534  0.94161  0.63942  1.0000
  C   C904      1.0  0.69631  0.92802  0.65641  1.0000
  H   H1427     1.0  0.70900  0.88864  0.66523  1.0000
  H   H1428     1.0  0.73816  0.92127  0.66840  1.0000
  H   H1429     1.0  0.73789  0.89867  0.65243  1.0000
  H   H1430     1.0  0.68725  0.90635  0.62593  1.0000
  H   H1431     1.0  0.70860  0.89011  0.62775  1.0000
  H   H1432     1.0  0.67951  0.87987  0.64038  1.0000
  H   H1433     1.0  0.74871  0.93522  0.63255  1.0000
  H   H1434     1.0  0.74849  0.95736  0.64861  1.0000
  H   H1435     1.0  0.72734  0.95171  0.63087  1.0000
  H   H1436     1.0  0.67940  0.91110  0.66261  1.0000
  H   H1437     1.0  0.68738  0.93764  0.64812  1.0000
  H   H1438     1.0  0.70844  0.94378  0.66592  1.0000
  H   H1439     1.0  0.91132  0.73602  0.66635  1.0000
  H   H1440     1.0  0.59141  0.70199  0.51211  1.0000
  H   H1441     1.0  0.94866  0.70424  0.63283  1.0000
  H   H1442     1.0  0.96039  0.70861  0.66272  1.0000
  H   H1443     1.0  0.65249  0.97889  0.52198  1.0000
  H   H1444     1.0  0.94446  0.72197  0.67656  1.0000
  C   C905      1.0  0.85620  0.76891  0.75412  1.0000
  C   C906      1.0  0.73392  0.68055  0.64293  1.0000
  C   C907      1.0  0.64954  0.99240  0.51376  1.0000
  C   C908      1.0  0.99894  0.70439  0.64127  1.0000
  H   H1445     1.0  0.95941  0.76321  0.65977  1.0000
  C   C909      1.0  0.62896  0.75455  0.51079  1.0000
  H   H1446     1.0  0.80356  0.67692  0.61586  1.0000
  H   H1447     1.0  0.74653  0.00307  0.73205  1.0000
  S   S368      1.0  0.00602  0.75408  0.68654  1.0000
  C   C910      1.0  0.78491  0.73172  0.75435  1.0000
  S   S369      1.0  0.72012  0.99943  0.65113  1.0000
  C   C911      1.0  0.98313  0.67788  0.63461  1.0000
  H   H1448     1.0  0.63691  0.77583  0.50659  1.0000
  H   H1449     1.0  0.88238  0.78580  0.78340  1.0000
  Fe  Fe184     1.0  0.98902  0.79368  0.84721  1.0000
  S   S370      1.0  0.95722  0.79975  0.86074  1.0000
  S   S371      1.0  0.97226  0.75628  0.83124  1.0000
  C   C912      1.0  0.65324  0.00092  0.99737  1.0000
  H   H1450     1.0  0.76431  0.91471  0.76715  1.0000
  H   H1451     1.0  0.94676  0.68453  0.77001  1.0000
  H   H1452     1.0  0.68285  0.68198  0.87803  1.0000
  S   S372      1.0  0.82724  0.96942  0.83431  1.0000
  S   S373      1.0  0.76144  0.98106  0.83717  1.0000
  Fe  Fe185     1.0  0.82964  0.79829  0.82383  1.0000
  S   S374      1.0  0.80026  0.75394  0.82112  1.0000
  S   S375      1.0  0.87128  0.81087  0.81399  1.0000
  Fe  Fe186     1.0  0.78739  0.81350  0.83723  1.0000
  S   S376      1.0  0.75454  0.76996  0.83536  1.0000
  S   S377      1.0  0.77369  0.84264  0.84866  1.0000
  Fe  Fe187     1.0  0.78554  0.75909  0.84579  1.0000
  S   S378      1.0  0.78066  0.73008  0.86626  1.0000
  Fe  Fe188     1.0  0.77201  0.76871  0.81095  1.0000
  S   S379      1.0  0.74400  0.74997  0.78904  1.0000
  S   S380      1.0  0.81753  0.80270  0.84934  1.0000
  S   S381      1.0  0.80225  0.81295  0.81189  1.0000
  H   H1453     1.0  0.74189  0.93055  0.80671  1.0000
  H   H1454     1.0  0.63663  0.98984  0.95108  1.0000
  H   H1455     1.0  0.94862  0.76369  0.89110  1.0000
  H   H1456     1.0  0.77249  0.88873  0.78923  1.0000
  H   H1457     1.0  0.74408  0.88760  0.80008  1.0000
  C   C913      1.0  0.81168  0.93410  0.83816  1.0000
  C   C914      1.0  0.82446  0.91864  0.83297  1.0000
  C   C915      1.0  0.81276  0.89049  0.83575  1.0000
  C   C916      1.0  0.78833  0.87763  0.84399  1.0000
  C   C917      1.0  0.77542  0.89304  0.84904  1.0000
  C   C918      1.0  0.78691  0.92111  0.84604  1.0000
  H   H1458     1.0  0.84366  0.92853  0.82691  1.0000
  H   H1459     1.0  0.82297  0.87890  0.83187  1.0000
  H   H1460     1.0  0.75655  0.88328  0.85546  1.0000
  H   H1461     1.0  0.77692  0.93278  0.85016  1.0000
  Fe  Fe189     1.0  0.00437  0.78077  0.81375  1.0000
  H   H1462     1.0  0.73671  0.75527  0.90699  1.0000
  H   H1463     1.0  0.72284  0.71560  0.86330  1.0000
  C   C919      1.0  0.93306  0.80214  0.84764  1.0000
  C   C920      1.0  0.93772  0.80616  0.83093  1.0000
  C   C921      1.0  0.91864  0.80881  0.82071  1.0000
  C   C922      1.0  0.89454  0.80687  0.82707  1.0000
  C   C923      1.0  0.88957  0.80217  0.84372  1.0000
  C   C924      1.0  0.90892  0.80008  0.85401  1.0000
  H   H1464     1.0  0.95629  0.80780  0.82591  1.0000
  H   H1465     1.0  0.92267  0.81249  0.80787  1.0000
  H   H1466     1.0  0.87109  0.80069  0.84874  1.0000
  H   H1467     1.0  0.90522  0.79703  0.86693  1.0000
  H   H1468     1.0  0.76283  0.94568  0.77223  1.0000
  H   H1469     1.0  0.66757  0.97350  0.91505  1.0000
  H   H1470     1.0  0.65209  0.96161  0.93439  1.0000
  H   H1471     1.0  0.70583  0.72100  0.81468  1.0000
  H   H1472     1.0  0.84503  0.81123  0.78009  1.0000
  H   H1473     1.0  0.67380  0.69452  0.82088  1.0000
  C   C925      1.0  0.75127  0.70593  0.87597  1.0000
  H   H1474     1.0  0.92936  0.73629  0.85812  1.0000
  C   C926      1.0  0.99466  0.69678  0.89819  1.0000
  N   N89       1.0  0.77275  0.92750  0.79249  1.0000
  N   N90       1.0  0.76434  0.78917  0.89309  1.0000
  C   C927      1.0  0.79350  0.80281  0.88934  1.0000
  H   H1475     1.0  0.88354  0.69919  0.89182  1.0000
  C   C928      1.0  0.75703  0.80903  0.90096  1.0000
  C   C929      1.0  0.75864  0.76645  0.90415  1.0000
  H   H1476     1.0  0.80637  0.81168  0.90056  1.0000
  H   H1477     1.0  0.79837  0.81967  0.88068  1.0000
  C   C930      1.0  0.95025  0.70070  0.80168  1.0000
  H   H1478     1.0  0.74148  0.70443  0.83524  1.0000
  H   H1479     1.0  0.95973  0.74086  0.86854  1.0000
  H   H1480     1.0  0.63715  0.00664  0.90722  1.0000
  H   H1481     1.0  0.75375  0.76385  0.87137  1.0000
  H   H1482     1.0  0.76110  0.82634  0.89279  1.0000
  H   H1483     1.0  0.76889  0.81775  0.91255  1.0000
  C   C931      1.0  0.99666  0.70714  0.88239  1.0000
  H   H1484     1.0  0.77028  0.77381  0.91592  1.0000
  C   C932      1.0  0.92684  0.74844  0.88955  1.0000
  H   H1485     1.0  0.90488  0.80350  0.76722  1.0000
  C   C933      1.0  0.72543  0.70310  0.87240  1.0000
  C   C934      1.0  0.88699  0.80165  0.77407  1.0000
  C   C935      1.0  0.76621  0.90001  0.79816  1.0000
  H   H1486     1.0  0.77819  0.72556  0.78020  1.0000
  H   H1487     1.0  0.76904  0.96251  0.80103  1.0000
  C   C936      1.0  0.80232  0.94328  0.79030  1.0000
  H   H1488     1.0  0.98910  0.71866  0.96127  1.0000
  H   H1489     1.0  0.82196  0.78769  0.76491  1.0000
  C   C937      1.0  0.75834  0.92524  0.77678  1.0000
  H   H1490     1.0  0.73596  0.91364  0.77804  1.0000
  H   H1491     1.0  0.74353  0.68106  0.82053  1.0000
  H   H1492     1.0  0.93555  0.70750  0.86133  1.0000
  C   C938      1.0  0.73549  0.69589  0.82253  1.0000
  H   H1493     1.0  0.63186  0.96207  0.91720  1.0000
  C   C939      1.0  0.76413  0.94159  0.80479  1.0000
  H   H1494     1.0  0.91741  0.75757  0.88124  1.0000
  C   C940      1.0  0.89466  0.70310  0.88016  1.0000
  H   H1495     1.0  0.80956  0.93344  0.78098  1.0000
  H   H1496     1.0  0.70886  0.68978  0.79391  1.0000
  H   H1497     1.0  0.77414  0.69173  0.89087  1.0000
  N   N91       1.0  0.92378  0.72222  0.88276  1.0000
  S   S382      1.0  0.98362  0.70198  0.84921  1.0000
  C   C941      1.0  0.77483  0.73481  0.76948  1.0000
  H   H1498     1.0  0.00273  0.70897  0.94394  1.0000
  H   H1499     1.0  0.92891  0.68748  0.79753  1.0000
  H   H1500     1.0  0.88486  0.71129  0.87147  1.0000
  H   H1501     1.0  0.77449  0.94351  0.81681  1.0000
  C   C942      1.0  0.98053  0.69025  0.86949  1.0000
  H   H1502     1.0  0.72610  0.76744  0.88008  1.0000
  C   C943      1.0  0.75948  0.74883  0.77054  1.0000
  C   C944      1.0  0.93601  0.71053  0.89427  1.0000
  H   H1503     1.0  0.93414  0.69078  0.88945  1.0000
  H   H1504     1.0  0.97209  0.71933  0.77275  1.0000
  H   H1505     1.0  0.89307  0.82126  0.78094  1.0000
  C   C945      1.0  0.99208  0.70183  0.95567  1.0000
  S   S383      1.0  0.74257  0.99558  0.79200  1.0000
  H   H1506     1.0  0.97169  0.68485  0.95240  1.0000
  H   H1507     1.0  0.81379  0.94516  0.80192  1.0000
  N   N92       1.0  0.86330  0.79486  0.76307  1.0000
  C   C946      1.0  0.74822  0.77839  0.87776  1.0000
  H   H1508     1.0  0.77677  0.90110  0.81003  1.0000
  H   H1509     1.0  0.76428  0.75132  0.89854  1.0000
  S   S384      1.0  0.99060  0.77706  0.78739  1.0000
  C   C947      1.0  0.65199  0.97336  0.92353  1.0000
  H   H1510     1.0  0.61585  0.98940  0.93388  1.0000
  H   H1511     1.0  0.80804  0.96434  0.78638  1.0000
  H   H1512     1.0  0.65941  0.98908  0.98942  1.0000
  H   H1513     1.0  0.89166  0.68308  0.87506  1.0000
  H   H1514     1.0  0.75173  0.79503  0.86920  1.0000
  C   C948      1.0  0.93763  0.72684  0.86698  1.0000
  H   H1515     1.0  0.83410  0.77558  0.78174  1.0000
  C   C949      1.0  0.63651  0.00026  0.93959  1.0000
  H   H1516     1.0  0.73512  0.79943  0.90390  1.0000
  C   C950      1.0  0.70281  0.68406  0.88078  1.0000
  Fe  Fe190     1.0  0.80649  0.99631  0.83664  1.0000
  C   C951      1.0  0.84006  0.79221  0.77283  1.0000
  N   N93       1.0  0.96933  0.69377  0.79283  1.0000
  H   H1517     1.0  0.79976  0.78822  0.88363  1.0000
  H   H1518     1.0  0.70086  0.71169  0.83572  1.0000
  H   H1519     1.0  0.95801  0.72441  0.89644  1.0000
  H   H1520     1.0  0.91718  0.74599  0.90163  1.0000
  H   H1521     1.0  0.92601  0.70661  0.90631  1.0000
  H   H1522     1.0  0.95470  0.72220  0.79966  1.0000
  H   H1523     1.0  0.95160  0.69838  0.81512  1.0000
  N   N94       1.0  0.65755  0.00135  0.92834  1.0000
  C   C952      1.0  0.69612  0.70343  0.82293  1.0000
  H   H1524     1.0  0.72333  0.99426  0.75880  1.0000
  H   H1525     1.0  0.98212  0.69360  0.76811  1.0000
  C   C953      1.0  0.75848  0.99940  0.77291  1.0000
  H   H1526     1.0  0.74597  0.71276  0.81397  1.0000
  H   H1527     1.0  0.68505  0.00542  0.94820  1.0000
  Fe  Fe191     1.0  0.00303  0.74702  0.84354  1.0000
  C   C954      1.0  0.75423  0.68966  0.88799  1.0000
  C   C955      1.0  0.78542  0.00435  0.77209  1.0000
  C   C956      1.0  0.96746  0.69789  0.77515  1.0000
  H   H1528     1.0  0.84981  0.75166  0.76258  1.0000
  H   H1529     1.0  0.74253  0.77070  0.75712  1.0000
  Fe  Fe192     1.0  0.76792  0.00808  0.81569  1.0000
  N   N95       1.0  0.70580  0.68305  0.81978  1.0000
  C   C957      1.0  0.74430  0.99836  0.75834  1.0000
  C   C958      1.0  0.99724  0.71158  0.79898  1.0000
  C   C959      1.0  0.99205  0.68275  0.98197  1.0000
  H   H1530     1.0  0.98759  0.69837  0.98796  1.0000
  H   H1531     1.0  0.87537  0.83659  0.75753  1.0000
  N   N96       1.0  0.00730  0.69280  0.96679  1.0000
  H   H1532     1.0  0.99940  0.70911  0.81232  1.0000
  H   H1533     1.0  0.00291  0.73333  0.79707  1.0000
  H   H1534     1.0  0.00366  0.67727  0.99103  1.0000
  H   H1535     1.0  0.00787  0.70979  0.90795  1.0000
  H   H1536     1.0  0.79645  0.00452  0.78298  1.0000
  C   C960      1.0  0.75473  0.76017  0.75644  1.0000
