data_image0
_chemical_formula_structural       HFeS2FeHFeSFeS3FeS2FeS2FeSFeHS2CH4CHC2HCHNH2C2H4C3HC6H4C6H3CHCH2CHCHCH3CHCNC2H8CHCH2CH4CH2NH7CH3CNH2CHC2SH3CH2NHC2HC2H2CHNCHCH2CHCSFeSFeS2FeSFeS3FeSHFeSHFeSFeS3FeSFeS2FeSFeSH2CSHSC3H2CHC2HC2H2C7HCH2CH3CHCHC2HC6H4C2SHC2H4C2HC2H3SCH2SHCH4NHC5SC2HNHC2H5SHCHNC4H12NHNH18C2HC4HC2HFeS2FeS2Fe2S3HCHCH2FeSFeSFeSFeS2FeS2FeS2FeHFeCS2H10C4H4C3H2C6H6SH2CHC2H3C2H2NC6H4C6H2CHCH2CHC2SH5CH2NC3HCNHSH3CHCH6CH5CH2CHSHCNC2H2C2H2C2HCH3NH6C2H3SC3H2CSH3CH4FeS2CSFeSFeS3FeSFeS4CH5CHNHFeCH2CH3C6H4FeH2CH3CHCHC4HCH6CHCHCH5CH2C2H2C3HCS2H2SNHCHNC4H12NFeHCHCH5CH3CH4CHCHNH3CHCH2CFeS2FeS2FeSFeS3FeSHSFeHFeS2HFeSHSFeSFeS2H2FeCHSNH4C6H4C6H2NHC6H5C3HNH6C2H2NC5H11CH3C2H3SH3FeH2CSH3NH5SHCH2C2HSH4C4H7CNC4HCH3C2HCH3SHCHCHC2H6C2HCHFeSCFeSHFeSFeS2HS2FeSHCSFeS2FeS2FeSFeS3HC6H4CH2C6H6SC6H10C2H4FeC2HFeHCH5CH3CHC4H3CSHCSC2H3SH2NH2CNH3CH3CH2C2H3CNHCHSCFeHC3H3CSH2NHCHS2FeHFeS2Fe2S2HSFeS2Fe2S2FeS2FeS2FeSFeS3HC4H6NH2CH2C6H6CHC6H9CHCHCH2C2HCSCH5C4H4CH2CH4CS2H2NHCH2C2H4CH2CH3CH4C2SNSC2FeCNCH2CNH2SCH2SH2CH7C3H2CHCH4CFeS2FeS2FeSFeS3FeS2FeCFeCS3H2Fe2HSFeS2FeHC2S2HCH2C2H3CH3C2H2SH2C2HC6H4C6H2CHC6H7C2NHCSCH7CH2NSCH3CH7CH3CHCH2NC4H12FeCHCNSHSCH3CH2SCHCH4NHC2HC2HCHCSH4NH2CHFeS2FeSFeSFeS3CSHFeSHFeSHFeSFeS2HFeHSFeS2FeHFeCS2HCH3SCH2C6H4NC2H8C2SH4C2SC7H4CH4C6H3CH2NHCHCSHCNC5H8CHSH4CH5CHCHCHSHCH3CHCH4CHC2FeSFeS2FeSFeS3HFeS2FeS2FeCFeCS2H2SHCH11C6H4C2HC3HCH2CHC2NC4H2CH8CSCH2CNH3C3HSH2NHCHCH7C3H2CHCNCH2CH3C2NHC2H2NHCH7CH5C2HC2H6CFeS2FeHFeSFeS3HFeS2FeSFeCFeHS2CH3CH3C2H2CH3CHCHN2CSCH2C6H4C6H4NC2H2S2NH2NH4C4H2SHCNC4H14C2HSC2H3SC2HCH2CH3C2HC3NH3CHCH3C2H6CH6SHCH3CHCFeS2FeSHFeSFeS3H2NHFeS2FeS2FeHFeHS2FeS2FeSFe2HS2H3C6H3CHC3HC2H4CH2C2SHC7H4C3H3C6HNC4H12CHSH3CH4SC2H3CH4SCH4CNCHCHSHCH2SC2H7CH2CHC2H2SCH3FeSHFeS2FeSFeS3CH2CHC2FeSCFeSFeS2FeS2FeHSFeHFeHS2HNHC5H4CSH2NCH3CH6C2H5CHFeH3SC6H4C2HCHC6H6CHNC2SHNHC2H2NH2SCH2SCH4SCH3CH3CSHCH3CH4CHCHCHC2H2C2HCNHC3H2FeS2FeSHFeSFeS3FeS2FeSFe2S2H2SC2H2NHC6H4CHC7H5CH2CH2C6H3S2HC3H2CNHCH6C2H4CH4C2H6CHSH5CH2SHCH3NH2C2SH3CH10CNC2HC2HFeSFeS2FeSFeS3FeS2FeHSFeHFeHS2H4C3H2CH6CHNH2CHC6H5C8H2NCHCNCHSH5CHC2NH4CHCH2C2SH5C2H5CH3C2H3CHCHNHSHC2SNH2CH7NCHCHCH4C2H3CNC3H2CH2SFeSFeS2FeSFeS3H3CH2FeS2FeS2FeHFeCS2FeS2FeS2FeHFeHS2CSHC6H9NHC2HCHC5H3SHC7H4C2H2C8H4NC4H12NC4H13CH2CH3CHCH2CHNH4SH4CHCH4NCHC2H4C2HCH2C2H2C3SH5CHFeS2FeS2FeSFeS3FeS2HFeS2H2FeS2FeSCFeHFeHS3H3CHCH2CFeCH3CH4C6H4C6H4SCHCHC4H4CH3CH2CHCHCHNCH2SNCHC2H3C2HCH3CH3CHNC2H3SH2NFeCHCSHC3H5CHNC4H7C2H6SH2C2HCH4CFeSFeS2FeHFeS2FeSFeSCFeSFeSFeS2FeS2FeSFeS3HCH3C6H8C6H5CHNHC6H10CHSH2C2H5SHC2NH2CH7CH2CSH2SH2C2NC2SCHCH5NC3HCNCHC2H7CH2CSNHCH2CH11NH2CHCHCHCHC4Fe2SHS2HFeSFeSHSHFeSFeS2FeS2FeS2FeSFeS3C2H2C7H5SC3HFeH2C2HFeC6H4CHCSC2HCH4C2H4C2SNC4H13CHCHC2SC2HCHN2C3H3CHC2H2CHCNHSH4C2H2CH3CH13C2H3NSFeS2FeS2FeSFeS3HFeS3FeSHFeS2FeSFeS2HCHCSC2H2CSNC7H4C6H5CFeH2C2HC3SH3CH2CH5CSH4CHCFeH4CHCH4SH5C3HCHCH4NCHCHCH6NHCNH2CHNH2SH3C3HC2H4FeH2CH3C2HCHC2H4CFeS2FeS2Fe2S3FeS2FeSFeHFeHS2H4C2H2CH16C6H4C6H4C2H4CHCH5C3H2NCH6CH2C2NCH4C2H4NH6CSHCSH3SH3CH4NCSCHC2HC2HCHCHCNHC3HCFeS2FeS2FeSH2S2CHFeSFeSFeSFeS2FeS2FeS2FeSFeS3HCH3C3HSH5C6H3CH3C3H2FeCH3C6H4C6H4C2HNC4H12NC4H12CH3CHSH3NH3CHSHCHC4NC4H2C2H5SCHCH3CH2C2H2CHNCHNHCH3SCH2CH3C2FeS2FeS2Fe2S3HFeCSFeS2FeCFeHS2FeSFeS2FeHFeCS2HSH4CHC2HCHCH2CHC6H3SH2C2H3SH5C6H4C6H2NHC2SH2C2NC4H12NC3H8CH2CH2C3H2C4H4C2H5SH6NHCH4FeS2FeSHFeSFeS3HFeS2FeS2FeSFeCS2C2HCH2C4H4C2HC2HC6H4C6H5C2NH5CH2CH2C2H7CH6CNH2C3H2NC4HSH2CH3CHCHCHCH4SHNHSH3C2HCH2NH3NHCHNH6CH2CH2CH2CHCH2C2H3
_chemical_formula_sum              "H2048 Fe256 S512 C1280 N128"
_cell_length_a       59.6697
_cell_length_b       59.5001
_cell_length_c       79.6397
_cell_angle_alpha    84.281
_cell_angle_beta     84.255
_cell_angle_gamma    86.4392

_space_group_name_H-M_alt    "P 1"
_space_group_IT_number       1

loop_
  _space_group_symop_operation_xyz
  'x, y, z'

loop_
  _atom_site_type_symbol
  _atom_site_label
  _atom_site_symmetry_multiplicity
  _atom_site_fract_x
  _atom_site_fract_y
  _atom_site_fract_z
  _atom_site_occupancy
  H   H1        1.0  0.41229  0.30754  0.23142  1.0000
  Fe  Fe1       1.0  0.08411  0.13241  0.09139  1.0000
  S   S1        1.0  0.08358  0.16971  0.08381  1.0000
  S   S2        1.0  0.11655  0.11096  0.09095  1.0000
  Fe  Fe2       1.0  0.03353  0.13142  0.09644  1.0000
  H   H2        1.0  0.11270  0.18290  0.21868  1.0000
  Fe  Fe3       1.0  0.05558  0.16349  0.06829  1.0000
  S   S3        1.0  0.05612  0.18288  0.04230  1.0000
  Fe  Fe4       1.0  0.05660  0.17229  0.10540  1.0000
  S   S4        1.0  0.05414  0.20284  0.12055  1.0000
  S   S5        1.0  0.05842  0.12591  0.07399  1.0000
  S   S6        1.0  0.05956  0.13531  0.11439  1.0000
  Fe  Fe5       1.0  0.12214  0.27593  0.21276  1.0000
  S   S7        1.0  0.10399  0.27310  0.23903  1.0000
  S   S8        1.0  0.14910  0.30008  0.20111  1.0000
  Fe  Fe6       1.0  0.10371  0.23138  0.20393  1.0000
  S   S9        1.0  0.08504  0.22504  0.22975  1.0000
  S   S10       1.0  0.10669  0.20340  0.18621  1.0000
  Fe  Fe7       1.0  0.07443  0.26199  0.22673  1.0000
  S   S11       1.0  0.03710  0.27335  0.23001  1.0000
  Fe  Fe8       1.0  0.11596  0.23636  0.23977  1.0000
  H   H3        1.0  0.03221  0.22819  0.07018  1.0000
  S   S12       1.0  0.09171  0.26781  0.20010  1.0000
  S   S13       1.0  0.13550  0.23969  0.21433  1.0000
  C   C1        1.0  0.14871  0.02137  0.11687  1.0000
  H   H4        1.0  0.18706  0.27364  0.21387  1.0000
  H   H5        1.0  0.14505  0.07211  0.08207  1.0000
  H   H6        1.0  0.03495  0.23349  0.09182  1.0000
  H   H7        1.0  0.24739  0.02771  0.22455  1.0000
  C   C2        1.0  0.18254  0.32982  0.20111  1.0000
  H   H8        1.0  0.15115  0.03735  0.14687  1.0000
  C   C3        1.0  0.49215  0.28937  0.24188  1.0000
  C   C4        1.0  0.05622  0.16749  0.02439  1.0000
  H   H9        1.0  0.14228  0.08934  0.03794  1.0000
  C   C5        1.0  0.16537  0.27053  0.24519  1.0000
  H   H10       1.0  0.18647  0.24456  0.22220  1.0000
  N   N1        1.0  0.13130  0.02040  0.13146  1.0000
  H   H11       1.0  0.13103  0.13139  0.01388  1.0000
  H   H12       1.0  0.16348  0.21094  0.23397  1.0000
  C   C6        1.0  0.32042  0.34142  0.24081  1.0000
  C   C7        1.0  0.10867  0.02308  0.12524  1.0000
  H   H13       1.0  0.04804  0.27175  0.08218  1.0000
  H   H14       1.0  0.12309  0.14987  0.04069  1.0000
  H   H15       1.0  0.09505  0.02158  0.13583  1.0000
  H   H16       1.0  0.19495  0.18224  0.22989  1.0000
  C   C8        1.0  0.16253  0.32157  0.20975  1.0000
  C   C9        1.0  0.07572  0.23195  0.05884  1.0000
  C   C10       1.0  0.25578  0.03614  0.24885  1.0000
  H   H17       1.0  0.13628  0.13259  0.19747  1.0000
  C   C11       1.0  0.06864  0.20270  0.13888  1.0000
  C   C12       1.0  0.08301  0.18438  0.14399  1.0000
  C   C13       1.0  0.09455  0.18491  0.15852  1.0000
  C   C14       1.0  0.09177  0.20368  0.16807  1.0000
  C   C15       1.0  0.07737  0.22200  0.16298  1.0000
  C   C16       1.0  0.06590  0.22151  0.14841  1.0000
  H   H18       1.0  0.08528  0.16984  0.13674  1.0000
  H   H19       1.0  0.10569  0.17070  0.16233  1.0000
  H   H20       1.0  0.07511  0.23654  0.17024  1.0000
  H   H21       1.0  0.05479  0.23574  0.14455  1.0000
  C   C17       1.0  0.10003  0.03932  0.08301  1.0000
  C   C18       1.0  0.08292  0.05498  0.08818  1.0000
  C   C19       1.0  0.08817  0.07664  0.09139  1.0000
  C   C20       1.0  0.11050  0.08295  0.08899  1.0000
  C   C21       1.0  0.12773  0.06725  0.08394  1.0000
  C   C22       1.0  0.12250  0.04537  0.08098  1.0000
  H   H22       1.0  0.06553  0.05029  0.08991  1.0000
  H   H23       1.0  0.07482  0.08843  0.09569  1.0000
  H   H24       1.0  0.13698  0.10327  0.05700  1.0000
  C   C23       1.0  0.16751  0.19898  0.24441  1.0000
  H   H25       1.0  0.12129  0.03868  0.15317  1.0000
  C   C24       1.0  0.14982  0.13880  0.22792  1.0000
  H   H26       1.0  0.43967  0.33336  0.23791  1.0000
  H   H27       1.0  0.14801  0.03805  0.10927  1.0000
  C   C25       1.0  0.12194  0.16998  0.22683  1.0000
  H   H28       1.0  0.10202  0.08290  0.03820  1.0000
  C   C26       1.0  0.05687  0.26474  0.07068  1.0000
  H   H29       1.0  0.04928  0.20946  0.08320  1.0000
  C   C27       1.0  0.19427  0.26078  0.22330  1.0000
  H   H30       1.0  0.16352  0.17956  0.21361  1.0000
  H   H31       1.0  0.15705  0.25435  0.24503  1.0000
  H   H32       1.0  0.09367  0.14502  0.04119  1.0000
  C   C28       1.0  0.15420  0.16957  0.20586  1.0000
  H   H33       1.0  0.07151  0.27524  0.06631  1.0000
  C   C29       1.0  0.15419  0.33028  0.22499  1.0000
  N   N2        1.0  0.11585  0.11565  0.03743  1.0000
  C   C30       1.0  0.09808  0.09963  0.04324  1.0000
  C   C31       1.0  0.07970  0.23855  0.08784  1.0000
  H   H34       1.0  0.10152  0.12737  0.01420  1.0000
  H   H35       1.0  0.09080  0.24156  0.05400  1.0000
  H   H36       1.0  0.11555  0.15576  0.19684  1.0000
  H   H37       1.0  0.08545  0.22057  0.09097  1.0000
  H   H38       1.0  0.05403  0.11380  0.01344  1.0000
  H   H39       1.0  0.08141  0.10618  0.03921  1.0000
  H   H40       1.0  0.21829  0.24763  0.24970  1.0000
  H   H41       1.0  0.16601  0.01842  0.12103  1.0000
  C   C32       1.0  0.19416  0.34650  0.20759  1.0000
  H   H42       1.0  0.07133  0.24456  0.09985  1.0000
  C   C33       1.0  0.06025  0.17858  0.00805  1.0000
  H   H43       1.0  0.06429  0.23282  0.04852  1.0000
  H   H44       1.0  0.33861  0.31192  0.23176  1.0000
  C   C34       1.0  0.33430  0.32157  0.24257  1.0000
  H   H45       1.0  0.13088  0.17922  0.23537  1.0000
  H   H46       1.0  0.10915  0.15994  0.23491  1.0000
  H   H47       1.0  0.15156  0.11746  0.03861  1.0000
  H   H48       1.0  0.19376  0.30292  0.23222  1.0000
  C   C35       1.0  0.04419  0.22750  0.08009  1.0000
  H   H49       1.0  0.16223  0.12782  0.22066  1.0000
  H   H50       1.0  0.13574  0.03330  0.07691  1.0000
  N   N3        1.0  0.06414  0.24071  0.07435  1.0000
  H   H51       1.0  0.41654  0.34442  0.21366  1.0000
  H   H52       1.0  0.14579  0.18189  0.19676  1.0000
  H   H53       1.0  0.13246  0.05573  0.13469  1.0000
  H   H54       1.0  0.10601  0.03990  0.11806  1.0000
  H   H55       1.0  0.16680  0.15911  0.19835  1.0000
  H   H56       1.0  0.04502  0.26688  0.06061  1.0000
  H   H57       1.0  0.18911  0.32329  0.18929  1.0000
  C   C36       1.0  0.25331  0.02113  0.23657  1.0000
  H   H58       1.0  0.50957  0.29372  0.12300  1.0000
  H   H59       1.0  0.21902  0.28804  0.23836  1.0000
  H   H60       1.0  0.09611  0.09657  0.05730  1.0000
  C   C37       1.0  0.13418  0.03886  0.14205  1.0000
  N   N4        1.0  0.13772  0.15547  0.21654  1.0000
  H   H61       1.0  0.49026  0.33180  0.12482  1.0000
  H   H62       1.0  0.13871  0.32430  0.23170  1.0000
  C   C38       1.0  0.12491  0.14354  0.20552  1.0000
  H   H63       1.0  0.11226  0.13274  0.21309  1.0000
  C   C39       1.0  0.13766  0.10600  0.04293  1.0000
  C   C40       1.0  0.11014  0.13732  0.04486  1.0000
  S   S14       1.0  0.02825  0.16865  0.08932  1.0000
  H   H64       1.0  0.21264  0.25855  0.21943  1.0000
  H   H65       1.0  0.04954  0.13561  0.03865  1.0000
  H   H66       1.0  0.25182  0.05406  0.24620  1.0000
  C   C41       1.0  0.18535  0.18274  0.24213  1.0000
  H   H67       1.0  0.10884  0.13496  0.05895  1.0000
  H   H68       1.0  0.09496  0.24837  0.08408  1.0000
  N   N5        1.0  0.40375  0.34050  0.23995  1.0000
  H   H69       1.0  0.13797  0.12770  0.23605  1.0000
  C   C42       1.0  0.01750  0.26906  0.24813  1.0000
  C   C43       1.0  0.16571  0.34714  0.23138  1.0000
  H   H70       1.0  0.48624  0.30518  0.23547  1.0000
  C   C44       1.0  0.05339  0.14419  0.02620  1.0000
  C   C45       1.0  0.05573  0.13190  0.01188  1.0000
  H   H71       1.0  0.15941  0.14729  0.23655  1.0000
  H   H72       1.0  0.38256  0.31481  0.23432  1.0000
  C   C46       1.0  0.42613  0.34179  0.24615  1.0000
  H   H73       1.0  0.12136  0.10358  0.01269  1.0000
  N   N6        1.0  0.18996  0.26780  0.24068  1.0000
  C   C47       1.0  0.11756  0.11963  0.01873  1.0000
  H   H74       1.0  0.49869  0.33921  0.10272  1.0000
  C   C48       1.0  0.20041  0.28953  0.24146  1.0000
  H   H75       1.0  0.15729  0.28314  0.23610  1.0000
  H   H76       1.0  0.08142  0.21384  0.06123  1.0000
  C   C49       1.0  0.39896  0.31651  0.23947  1.0000
  H   H77       1.0  0.06226  0.19664  0.00651  1.0000
  C   C50       1.0  0.50410  0.33874  0.11576  1.0000
  S   S15       1.0  0.20955  0.14381  0.25091  1.0000
  Fe  Fe9       1.0  0.10824  0.04173  0.43160  1.0000
  S   S16       1.0  0.14497  0.03124  0.43160  1.0000
  Fe  Fe10      1.0  0.11755  0.09111  0.42210  1.0000
  S   S17       1.0  0.15514  0.08517  0.42171  1.0000
  S   S18       1.0  0.09942  0.12353  0.41297  1.0000
  Fe  Fe11      1.0  0.14993  0.05513  0.40785  1.0000
  S   S19       1.0  0.16925  0.04568  0.38332  1.0000
  Fe  Fe12      1.0  0.14702  0.06211  0.44552  1.0000
  S   S20       1.0  0.16713  0.05840  0.46841  1.0000
  S   S21       1.0  0.11274  0.06265  0.40671  1.0000
  S   S22       1.0  0.10981  0.07090  0.44705  1.0000
  Fe  Fe13      1.0  0.42341  0.27465  0.27760  1.0000
  S   S23       1.0  0.42779  0.24987  0.30046  1.0000
  H   H78       1.0  0.05401  0.09044  0.43678  1.0000
  Fe  Fe14      1.0  0.37839  0.29386  0.29315  1.0000
  S   S24       1.0  0.38016  0.27147  0.31737  1.0000
  H   H79       1.0  0.16135  0.27623  0.25809  1.0000
  Fe  Fe15      1.0  0.41659  0.27933  0.31566  1.0000
  S   S25       1.0  0.43893  0.28759  0.33561  1.0000
  Fe  Fe16      1.0  0.39054  0.24398  0.30019  1.0000
  S   S26       1.0  0.37110  0.21216  0.30899  1.0000
  S   S27       1.0  0.41388  0.30417  0.29282  1.0000
  S   S28       1.0  0.38721  0.26639  0.27596  1.0000
  Fe  Fe17      1.0  0.25736  0.08360  0.28194  1.0000
  S   S29       1.0  0.22188  0.09675  0.28961  1.0000
  Fe  Fe18      1.0  0.27747  0.13049  0.28299  1.0000
  S   S30       1.0  0.24357  0.14694  0.29064  1.0000
  S   S31       1.0  0.30974  0.14906  0.27407  1.0000
  Fe  Fe19      1.0  0.23774  0.11526  0.30832  1.0000
  S   S32       1.0  0.22355  0.11961  0.33541  1.0000
  Fe  Fe20      1.0  0.23028  0.12734  0.27151  1.0000
  S   S33       1.0  0.27273  0.10021  0.30210  1.0000
  H   H80       1.0  0.33700  0.05338  0.30200  1.0000
  H   H81       1.0  0.33484  0.24693  0.31885  1.0000
  C   C51       1.0  0.29541  0.27724  0.29671  1.0000
  S   S34       1.0  0.26895  0.04635  0.27978  1.0000
  H   H82       1.0  0.30387  0.29364  0.29507  1.0000
  S   S35       1.0  0.01521  0.14373  0.46476  1.0000
  C   C52       1.0  0.43129  0.30565  0.35197  1.0000
  C   C53       1.0  0.44810  0.31178  0.36159  1.0000
  C   C54       1.0  0.05075  0.07216  0.43829  1.0000
  H   H83       1.0  0.48467  0.31765  0.29262  1.0000
  H   H84       1.0  0.36867  0.06305  0.28020  1.0000
  C   C55       1.0  0.40900  0.31359  0.35582  1.0000
  H   H85       1.0  0.46537  0.30563  0.35882  1.0000
  C   C56       1.0  0.50767  0.24845  0.25801  1.0000
  C   C57       1.0  0.48904  0.26218  0.30759  1.0000
  H   H86       1.0  0.39588  0.30891  0.34860  1.0000
  C   C58       1.0  0.32203  0.26089  0.31599  1.0000
  C   C59       1.0  0.33740  0.32687  0.27206  1.0000
  H   H87       1.0  0.02617  0.07053  0.41190  1.0000
  H   H88       1.0  0.01644  0.09795  0.45210  1.0000
  C   C60       1.0  0.31796  0.07988  0.26596  1.0000
  C   C61       1.0  0.35335  0.19567  0.29893  1.0000
  C   C62       1.0  0.35341  0.19668  0.28129  1.0000
  C   C63       1.0  0.33965  0.18261  0.27395  1.0000
  C   C64       1.0  0.32522  0.16777  0.28409  1.0000
  C   C65       1.0  0.32467  0.16725  0.30173  1.0000
  C   C66       1.0  0.33886  0.18089  0.30907  1.0000
  H   H89       1.0  0.36457  0.20776  0.27329  1.0000
  C   C67       1.0  0.32948  0.25744  0.28602  1.0000
  H   H90       1.0  0.31385  0.15582  0.30973  1.0000
  H   H91       1.0  0.33870  0.17988  0.32272  1.0000
  C   C68       1.0  0.17841  0.16757  0.27136  1.0000
  H   H92       1.0  0.32336  0.09378  0.25625  1.0000
  H   H93       1.0  0.03183  0.03529  0.43039  1.0000
  H   H94       1.0  0.15090  0.18426  0.28589  1.0000
  C   C69       1.0  0.40355  0.32711  0.36939  1.0000
  H   H95       1.0  0.35424  0.05088  0.26480  1.0000
  C   C70       1.0  0.47925  0.30008  0.29586  1.0000
  H   H96       1.0  0.47322  0.26177  0.31631  1.0000
  C   C71       1.0  0.35600  0.06672  0.27080  1.0000
  C   C72       1.0  0.42033  0.33312  0.37908  1.0000
  H   H97       1.0  0.29251  0.23350  0.29062  1.0000
  C   C73       1.0  0.18625  0.06527  0.37053  1.0000
  C   C74       1.0  0.19267  0.06168  0.35350  1.0000
  C   C75       1.0  0.20474  0.07786  0.34265  1.0000
  C   C76       1.0  0.21055  0.09771  0.34883  1.0000
  C   C77       1.0  0.20472  0.10095  0.36598  1.0000
  C   C78       1.0  0.19264  0.08480  0.37680  1.0000
  H   H98       1.0  0.18793  0.04652  0.34859  1.0000
  H   H99       1.0  0.20921  0.07515  0.32948  1.0000
  H   H100      1.0  0.20942  0.11613  0.37089  1.0000
  H   H101      1.0  0.18821  0.08753  0.38996  1.0000
  C   C79       1.0  0.07652  0.13046  0.42741  1.0000
  C   C80       1.0  0.05621  0.13935  0.42141  1.0000
  S   S36       1.0  0.07942  0.01916  0.43983  1.0000
  H   H102      1.0  0.38505  0.34229  0.26442  1.0000
  C   C81       1.0  0.05929  0.13091  0.45630  1.0000
  C   C82       1.0  0.07805  0.12627  0.44487  1.0000
  H   H103      1.0  0.05499  0.14265  0.40792  1.0000
  H   H104      1.0  0.50186  0.25060  0.31368  1.0000
  H   H105      1.0  0.06058  0.12769  0.46979  1.0000
  H   H106      1.0  0.09379  0.11969  0.44956  1.0000
  C   C83       1.0  0.15676  0.07244  0.48632  1.0000
  C   C84       1.0  0.44270  0.32558  0.37499  1.0000
  H   H107      1.0  0.30921  0.26100  0.32713  1.0000
  C   C85       1.0  0.03886  0.13938  0.45030  1.0000
  C   C86       1.0  0.02395  0.25949  0.26380  1.0000
  H   H108      1.0  0.30874  0.06352  0.29843  1.0000
  H   H109      1.0  0.12646  0.08665  0.47601  1.0000
  H   H110      1.0  0.18227  0.15516  0.28170  1.0000
  S   S37       1.0  0.26445  0.11282  0.26241  1.0000
  C   C87       1.0  0.34279  0.31428  0.25815  1.0000
  H   H111      1.0  0.28176  0.27831  0.30724  1.0000
  H   H112      1.0  0.34238  0.24348  0.28844  1.0000
  S   S38       1.0  0.44788  0.28525  0.25475  1.0000
  H   H113      1.0  0.28634  0.23641  0.31293  1.0000
  C   C88       1.0  0.30005  0.23655  0.30237  1.0000
  H   H114      1.0  0.06042  0.06431  0.42747  1.0000
  H   H115      1.0  0.42669  0.33304  0.25914  1.0000
  H   H116      1.0  0.32247  0.25491  0.27396  1.0000
  H   H117      1.0  0.34920  0.09314  0.29670  1.0000
  N   N7        1.0  0.31170  0.25801  0.30028  1.0000
  H   H118      1.0  0.05800  0.06462  0.45006  1.0000
  C   C89       1.0  0.03730  0.14356  0.43285  1.0000
  C   C90       1.0  0.13594  0.08461  0.48695  1.0000
  C   C91       1.0  0.15469  0.19930  0.26007  1.0000
  C   C92       1.0  0.16059  0.18396  0.27367  1.0000
  C   C93       1.0  0.26396  0.02802  0.26429  1.0000
  S   S39       1.0  0.34861  0.31900  0.29154  1.0000
  C   C94       1.0  0.33725  0.09606  0.28675  1.0000
  C   C95       1.0  0.48464  0.25542  0.26037  1.0000
  H   H119      1.0  0.02058  0.09704  0.42090  1.0000
  N   N8        1.0  0.33413  0.07509  0.27890  1.0000
  H   H120      1.0  0.36300  0.07944  0.26073  1.0000
  C   C96       1.0  0.32523  0.05769  0.29204  1.0000
  C   C97       1.0  0.50122  0.29424  0.31995  1.0000
  H   H121      1.0  0.34038  0.18303  0.26030  1.0000
  H   H122      1.0  0.47291  0.24469  0.26815  1.0000
  H   H123      1.0  0.31197  0.22186  0.30530  1.0000
  H   H124      1.0  0.45576  0.32997  0.38240  1.0000
  H   H125      1.0  0.04151  0.25463  0.26513  1.0000
  S   S40       1.0  0.13091  0.21819  0.26281  1.0000
  H   H126      1.0  0.33833  0.27351  0.28402  1.0000
  C   C98       1.0  0.01767  0.07861  0.42303  1.0000
  H   H127      1.0  0.38618  0.33271  0.37250  1.0000
  N   N9        1.0  0.13502  0.12245  0.36503  1.0000
  C   C99       1.0  0.11041  0.12131  0.36933  1.0000
  C   C100      1.0  0.13988  0.14323  0.35380  1.0000
  C   C101      1.0  0.14367  0.10244  0.35629  1.0000
  C   C102      1.0  0.14613  0.12279  0.38077  1.0000
  H   H128      1.0  0.10331  0.13613  0.37600  1.0000
  H   H129      1.0  0.10636  0.10592  0.37802  1.0000
  H   H130      1.0  0.10138  0.12086  0.35783  1.0000
  H   H131      1.0  0.15839  0.14442  0.35032  1.0000
  H   H132      1.0  0.13174  0.14360  0.34180  1.0000
  H   H133      1.0  0.13374  0.15865  0.36008  1.0000
  H   H134      1.0  0.16198  0.10331  0.35217  1.0000
  H   H135      1.0  0.13499  0.10105  0.34475  1.0000
  H   H136      1.0  0.14144  0.08645  0.36472  1.0000
  H   H137      1.0  0.14367  0.10688  0.38917  1.0000
  H   H138      1.0  0.13916  0.13697  0.38818  1.0000
  H   H139      1.0  0.16459  0.12468  0.37805  1.0000
  N   N10       1.0  0.02639  0.06853  0.43897  1.0000
  H   H140      1.0  0.39831  0.30730  0.25235  1.0000
  N   N11       1.0  0.49684  0.28542  0.30394  1.0000
  H   H141      1.0  0.28745  0.27574  0.28485  1.0000
  H   H142      1.0  0.33067  0.27713  0.31491  1.0000
  H   H143      1.0  0.32104  0.10307  0.29280  1.0000
  H   H144      1.0  0.48546  0.25501  0.29582  1.0000
  H   H145      1.0  0.34380  0.10962  0.27718  1.0000
  H   H146      1.0  0.50681  0.31187  0.31775  1.0000
  H   H147      1.0  0.02165  0.15039  0.42816  1.0000
  H   H148      1.0  0.46332  0.30097  0.30437  1.0000
  H   H149      1.0  0.48575  0.29445  0.32903  1.0000
  H   H150      1.0  0.47511  0.29359  0.28397  1.0000
  H   H151      1.0  0.31558  0.06464  0.25940  1.0000
  H   H152      1.0  0.35363  0.29911  0.25931  1.0000
  H   H153      1.0  0.02069  0.07244  0.46564  1.0000
  H   H154      1.0  0.30111  0.08515  0.27187  1.0000
  H   H155      1.0  0.18548  0.06146  0.50003  1.0000
  H   H156      1.0  0.19676  0.25512  0.26600  1.0000
  H   H157      1.0  0.03350  0.14899  0.49847  1.0000
  H   H158      1.0  0.32212  0.04186  0.28644  1.0000
  C   C103      1.0  0.02286  0.04399  0.44109  1.0000
  C   C104      1.0  0.16913  0.07044  0.50055  1.0000
  H   H159      1.0  0.02958  0.03581  0.45288  1.0000
  C   C105      1.0  0.32309  0.34640  0.27042  1.0000
  C   C106      1.0  0.19043  0.16660  0.25542  1.0000
  C   C107      1.0  0.47677  0.27591  0.25229  1.0000
  C   C108      1.0  0.19977  0.25034  0.25277  1.0000
  H   H160      1.0  0.19698  0.29575  0.25423  1.0000
  C   C109      1.0  0.01431  0.07938  0.45342  1.0000
  C   C110      1.0  0.12725  0.09416  0.50184  1.0000
  H   H161      1.0  0.19214  0.23377  0.25260  1.0000
  Fe  Fe21      1.0  0.13766  0.08613  0.56009  1.0000
  S   S41       1.0  0.11977  0.05540  0.57162  1.0000
  S   S42       1.0  0.12697  0.10212  0.53505  1.0000
  Fe  Fe22      1.0  0.16181  0.08999  0.59219  1.0000
  S   S43       1.0  0.14565  0.05960  0.60605  1.0000
  S   S44       1.0  0.18476  0.11195  0.60388  1.0000
  Fe  Fe23      1.0  0.15303  0.04417  0.58136  1.0000
  Fe  Fe24      1.0  0.11412  0.07401  0.59491  1.0000
  S   S45       1.0  0.08076  0.07783  0.61042  1.0000
  S   S46       1.0  0.17162  0.07359  0.56800  1.0000
  S   S47       1.0  0.12961  0.10558  0.58282  1.0000
  H   H162      1.0  0.38412  0.32995  0.70860  1.0000
  C   C111      1.0  0.21685  0.05129  0.69671  1.0000
  H   H163      1.0  0.13952  0.13377  0.60958  1.0000
  C   C112      1.0  0.15256  0.21734  0.75029  1.0000
  H   H164      1.0  0.03364  0.13108  0.51805  1.0000
  H   H165      1.0  0.20114  0.05290  0.69012  1.0000
  Fe  Fe25      1.0  0.38954  0.29364  0.73107  1.0000
  S   S48       1.0  0.37337  0.27944  0.71024  1.0000
  Fe  Fe26      1.0  0.42729  0.25653  0.73311  1.0000
  S   S49       1.0  0.41432  0.23892  0.71261  1.0000
  Fe  Fe27      1.0  0.40931  0.27374  0.69916  1.0000
  S   S50       1.0  0.42368  0.27898  0.67178  1.0000
  Fe  Fe28      1.0  0.37928  0.24554  0.72506  1.0000
  S   S51       1.0  0.35549  0.21690  0.73279  1.0000
  S   S52       1.0  0.42501  0.29073  0.71870  1.0000
  Fe  Fe29      1.0  0.21832  0.12021  0.69810  1.0000
  S   S53       1.0  0.21293  0.10525  0.72515  1.0000
  S   S54       1.0  0.19415  0.10398  0.68311  1.0000
  Fe  Fe30      1.0  0.25735  0.14752  0.70624  1.0000
  S   S55       1.0  0.25499  0.13359  0.73360  1.0000
  S   S56       1.0  0.28200  0.17387  0.69429  1.0000
  Fe  Fe31      1.0  0.25029  0.09994  0.72401  1.0000
  H   H166      1.0  0.38039  0.31913  0.58314  1.0000
  Fe  Fe32      1.0  0.21754  0.13988  0.73250  1.0000
  C   C113      1.0  0.02803  0.12121  0.60024  1.0000
  S   S57       1.0  0.25591  0.11317  0.69655  1.0000
  S   S58       1.0  0.21980  0.15560  0.70559  1.0000
  H   H167      1.0  0.21481  0.03776  0.70736  1.0000
  H   H168      1.0  0.50966  0.30255  0.74120  1.0000
  H   H169      1.0  0.38490  0.17035  0.67126  1.0000
  H   H170      1.0  0.23907  0.08139  0.67503  1.0000
  H   H171      1.0  0.35523  0.22696  0.67380  1.0000
  H   H172      1.0  0.40063  0.30246  0.57058  1.0000
  H   H173      1.0  0.37545  0.30636  0.54722  1.0000
  H   H174      1.0  0.36788  0.32773  0.64173  1.0000
  H   H175      1.0  0.09157  0.13354  0.65321  1.0000
  H   H176      1.0  0.16065  0.28192  0.73421  1.0000
  C   C114      1.0  0.50583  0.28600  0.74734  1.0000
  C   C115      1.0  0.41492  0.30123  0.65713  1.0000
  C   C116      1.0  0.39207  0.30735  0.65594  1.0000
  C   C117      1.0  0.38559  0.32349  0.64291  1.0000
  H   H177      1.0  0.01493  0.26539  0.72521  1.0000
  H   H178      1.0  0.47537  0.28453  0.73491  1.0000
  H   H179      1.0  0.40289  0.22838  0.65598  1.0000
  H   H180      1.0  0.37940  0.29900  0.66462  1.0000
  C   C118      1.0  0.48630  0.27588  0.74380  1.0000
  C   C119      1.0  0.13920  0.09140  0.51626  1.0000
  C   C120      1.0  0.39497  0.32003  0.57323  1.0000
  H   H181      1.0  0.07886  0.12859  0.62499  1.0000
  H   H182      1.0  0.36437  0.21414  0.65465  1.0000
  C   C121      1.0  0.33403  0.20621  0.72229  1.0000
  C   C122      1.0  0.32385  0.18637  0.72952  1.0000
  C   C123      1.0  0.30749  0.17662  0.72133  1.0000
  C   C124      1.0  0.30128  0.18648  0.70567  1.0000
  C   C125      1.0  0.31133  0.20645  0.69849  1.0000
  C   C126      1.0  0.32741  0.21644  0.70684  1.0000
  H   H183      1.0  0.32875  0.17837  0.74150  1.0000
  H   H184      1.0  0.29999  0.16124  0.72700  1.0000
  H   H185      1.0  0.30641  0.21434  0.68648  1.0000
  H   H186      1.0  0.33459  0.23205  0.70140  1.0000
  H   H187      1.0  0.34448  0.32275  0.72413  1.0000
  H   H188      1.0  0.42320  0.34276  0.54975  1.0000
  S   S59       1.0  0.38142  0.32462  0.74524  1.0000
  H   H189      1.0  0.36562  0.33396  0.53887  1.0000
  H   H190      1.0  0.41504  0.31785  0.54147  1.0000
  C   C127      1.0  0.11716  0.10625  0.63347  1.0000
  H   H191      1.0  0.19065  0.18484  0.72705  1.0000
  C   C128      1.0  0.26280  0.02351  0.75019  1.0000
  C   C129      1.0  0.35532  0.33999  0.74418  1.0000
  H   H192      1.0  0.20495  0.30494  0.73261  1.0000
  H   H193      1.0  0.19953  0.27700  0.74243  1.0000
  H   H194      1.0  0.35131  0.19755  0.67272  1.0000
  C   C130      1.0  0.03234  0.05048  0.58470  1.0000
  C   C131      1.0  0.42473  0.32818  0.63270  1.0000
  H   H195      1.0  0.18057  0.33792  0.74160  1.0000
  H   H196      1.0  0.12083  0.13742  0.65507  1.0000
  N   N12       1.0  0.17520  0.30301  0.75020  1.0000
  C   C132      1.0  0.18848  0.10871  0.62577  1.0000
  C   C133      1.0  0.17713  0.09256  0.63684  1.0000
  C   C134      1.0  0.17911  0.09141  0.65434  1.0000
  C   C135      1.0  0.19279  0.10611  0.66094  1.0000
  C   C136      1.0  0.20464  0.12190  0.64987  1.0000
  C   C137      1.0  0.20235  0.12329  0.63234  1.0000
  H   H197      1.0  0.16667  0.08106  0.63192  1.0000
  H   H198      1.0  0.16997  0.07906  0.66283  1.0000
  H   H199      1.0  0.21522  0.13332  0.65481  1.0000
  H   H200      1.0  0.21121  0.13583  0.62385  1.0000
  C   C138      1.0  0.06245  0.09721  0.59975  1.0000
  C   C139      1.0  0.06750  0.10462  0.58263  1.0000
  C   C140      1.0  0.05275  0.12027  0.57431  1.0000
  C   C141      1.0  0.03284  0.12842  0.58306  1.0000
  C   C142      1.0  0.16662  0.21035  0.73637  1.0000
  C   C143      1.0  0.04270  0.10553  0.60854  1.0000
  H   H201      1.0  0.08267  0.09819  0.57569  1.0000
  H   H202      1.0  0.05671  0.12588  0.56106  1.0000
  C   C144      1.0  0.25156  0.04264  0.74240  1.0000
  H   H203      1.0  0.01461  0.06462  0.61438  1.0000
  C   C145      1.0  0.16021  0.29994  0.73699  1.0000
  H   H204      1.0  0.25935  0.06269  0.69892  1.0000
  H   H205      1.0  0.39306  0.24045  0.67527  1.0000
  C   C146      1.0  0.16032  0.07978  0.51553  1.0000
  H   H206      1.0  0.13039  0.10182  0.64231  1.0000
  C   C147      1.0  0.43118  0.31167  0.64546  1.0000
  C   C148      1.0  0.36316  0.21129  0.66872  1.0000
  S   S60       1.0  0.26696  0.06652  0.73422  1.0000
  H   H207      1.0  0.14851  0.13737  0.62983  1.0000
  H   H208      1.0  0.11387  0.02254  0.51165  1.0000
  H   H209      1.0  0.16987  0.07810  0.52648  1.0000
  H   H210      1.0  0.22313  0.06505  0.66337  1.0000
  H   H211      1.0  0.10401  0.15949  0.64450  1.0000
  C   C149      1.0  0.10711  0.14082  0.64648  1.0000
  H   H212      1.0  0.12273  0.09844  0.62154  1.0000
  H   H213      1.0  0.13196  0.15955  0.61910  1.0000
  N   N13       1.0  0.38553  0.20557  0.67496  1.0000
  C   C150      1.0  0.40190  0.33390  0.63123  1.0000
  C   C151      1.0  0.39568  0.18503  0.66761  1.0000
  C   C152      1.0  0.02147  0.26995  0.75078  1.0000
  H   H214      1.0  0.13152  0.04469  0.51467  1.0000
  C   C153      1.0  0.13417  0.14090  0.62184  1.0000
  N   N14       1.0  0.23696  0.04652  0.68494  1.0000
  H   H215      1.0  0.40881  0.32726  0.57900  1.0000
  S   S61       1.0  0.13612  0.24296  0.74789  1.0000
  H   H216      1.0  0.39793  0.32374  0.68837  1.0000
  H   H217      1.0  0.27298  0.04230  0.68567  1.0000
  H   H218      1.0  0.41726  0.22115  0.67472  1.0000
  C   C154      1.0  0.40032  0.22465  0.66998  1.0000
  H   H219      1.0  0.35519  0.32282  0.55982  1.0000
  C   C155      1.0  0.40891  0.33496  0.54497  1.0000
  H   H220      1.0  0.21806  0.06752  0.70231  1.0000
  H   H221      1.0  0.25004  0.02028  0.66941  1.0000
  H   H222      1.0  0.02596  0.16447  0.53451  1.0000
  H   H223      1.0  0.39789  0.18757  0.65352  1.0000
  H   H224      1.0  0.02813  0.06627  0.57664  1.0000
  H   H225      1.0  0.41120  0.34066  0.70156  1.0000
  C   C156      1.0  0.19853  0.29527  0.74463  1.0000
  H   H226      1.0  0.25341  0.06156  0.66154  1.0000
  H   H227      1.0  0.39924  0.19623  0.69888  1.0000
  H   H228      1.0  0.03888  0.10010  0.62183  1.0000
  H   H229      1.0  0.16721  0.22064  0.72437  1.0000
  H   H230      1.0  0.37604  0.21676  0.69955  1.0000
  C   C157      1.0  0.22839  0.04232  0.74119  1.0000
  H   H231      1.0  0.37103  0.18772  0.69803  1.0000
  H   H232      1.0  0.10151  0.09802  0.63904  1.0000
  C   C158      1.0  0.34059  0.33623  0.73227  1.0000
  H   H233      1.0  0.09887  0.12859  0.60680  1.0000
  S   S62       1.0  0.39267  0.26043  0.74670  1.0000
  H   H234      1.0  0.03956  0.27018  0.74783  1.0000
  C   C159      1.0  0.38288  0.20132  0.69363  1.0000
  N   N15       1.0  0.11331  0.13101  0.63021  1.0000
  C   C160      1.0  0.02257  0.13947  0.50856  1.0000
  C   C161      1.0  0.09482  0.13597  0.61911  1.0000
  H   H235      1.0  0.41258  0.18027  0.67210  1.0000
  H   H236      1.0  0.09146  0.15448  0.61624  1.0000
  C   C162      1.0  0.01879  0.02162  0.60613  1.0000
  C   C163      1.0  0.25742  0.04610  0.69404  1.0000
  H   H237      1.0  0.44887  0.30681  0.64617  1.0000
  H   H238      1.0  0.36362  0.33912  0.67499  1.0000
  C   C164      1.0  0.23826  0.06434  0.67058  1.0000
  C   C165      1.0  0.17990  0.19001  0.73786  1.0000
  H   H239      1.0  0.28076  0.02356  0.75115  1.0000
  C   C166      1.0  0.37049  0.32381  0.55060  1.0000
  H   H240      1.0  0.16516  0.31026  0.72493  1.0000
  H   H241      1.0  0.03998  0.03771  0.57622  1.0000
  H   H242      1.0  0.14232  0.30484  0.74111  1.0000
  N   N16       1.0  0.38905  0.33395  0.55768  1.0000
  H   H243      1.0  0.03138  0.02533  0.61475  1.0000
  H   H244      1.0  0.04560  0.05445  0.59271  1.0000
  H   H245      1.0  0.11436  0.03212  0.53239  1.0000
  H   H246      1.0  0.40502  0.34543  0.53311  1.0000
  H   H247      1.0  0.35016  0.34574  0.69521  1.0000
  H   H248      1.0  0.25678  0.03323  0.70522  1.0000
  C   C167      1.0  0.48099  0.25459  0.75177  1.0000
  C   C168      1.0  0.39469  0.33712  0.69727  1.0000
  H   H249      1.0  0.21957  0.05677  0.73509  1.0000
  H   H250      1.0  0.02646  0.18241  0.51490  1.0000
  H   H251      1.0  0.16522  0.03585  0.53130  1.0000
  S   S63       1.0  0.45575  0.24177  0.74872  1.0000
  C   C169      1.0  0.23522  0.02433  0.67845  1.0000
  C   C170      1.0  0.12497  0.02840  0.52057  1.0000
  C   C171      1.0  0.15740  0.01980  0.53639  1.0000
  H   H252      1.0  0.14713  0.02309  0.54843  1.0000
  H   H253      1.0  0.43745  0.33603  0.62375  1.0000
  C   C172      1.0  0.21655  0.02318  0.74781  1.0000
  S   S64       1.0  0.01403  0.14738  0.57239  1.0000
  H   H254      1.0  0.30961  0.34753  0.72138  1.0000
  H   H255      1.0  0.19859  0.02313  0.74684  1.0000
  H   H256      1.0  0.21981  0.02410  0.67165  1.0000
  C   C173      1.0  0.01541  0.17212  0.52440  1.0000
  H   H257      1.0  0.16527  0.02391  0.50240  1.0000
  H   H258      1.0  0.01516  0.12603  0.50241  1.0000
  H   H259      1.0  0.01335  0.12822  0.60729  1.0000
  H   H260      1.0  0.11104  0.10342  0.50228  1.0000
  Fe  Fe33      1.0  0.06010  0.12446  0.91724  1.0000
  S   S65       1.0  0.08183  0.14604  0.92955  1.0000
  S   S66       1.0  0.07902  0.09918  0.90129  1.0000
  C   C174      1.0  0.43054  0.31703  0.78829  1.0000
  S   S67       1.0  0.03533  0.17222  0.94443  1.0000
  Fe  Fe34      1.0  0.05864  0.17482  0.92022  1.0000
  S   S68       1.0  0.07300  0.20745  0.90757  1.0000
  Fe  Fe35      1.0  0.05662  0.14120  0.95236  1.0000
  S   S69       1.0  0.06618  0.12649  0.97820  1.0000
  S   S70       1.0  0.03862  0.15336  0.90631  1.0000
  S   S71       1.0  0.03655  0.11731  0.94054  1.0000
  Fe  Fe36      1.0  0.11112  0.29367  0.79202  1.0000
  S   S72       1.0  0.12521  0.32878  0.79060  1.0000
  Fe  Fe37      1.0  0.09819  0.24663  0.80816  1.0000
  S   S73       1.0  0.08412  0.23800  0.78458  1.0000
  S   S74       1.0  0.09443  0.21658  0.82791  1.0000
  S   S75       1.0  0.13027  0.25981  0.79430  1.0000
  S   S76       1.0  0.08019  0.28097  0.80809  1.0000
  C   C175      1.0  0.22990  0.09559  0.76885  1.0000
  H   H261      1.0  0.02597  0.04131  0.92401  1.0000
  H   H262      1.0  0.09050  0.09055  0.95277  1.0000
  H   H263      1.0  0.23536  0.08538  0.75809  1.0000
  H   H264      1.0  0.40469  0.28200  0.79692  1.0000
  H   H265      1.0  0.03056  0.26633  0.85757  1.0000
  C   C176      1.0  0.07736  0.03151  0.90269  1.0000
  H   H266      1.0  0.24451  0.09569  0.77649  1.0000
  N   N17       1.0  0.09101  0.05420  0.95710  1.0000
  H   H267      1.0  0.02540  0.23179  0.81357  1.0000
  Fe  Fe38      1.0  0.06725  0.27273  0.78383  1.0000
  C   C177      1.0  0.01606  0.27128  0.82695  1.0000
  H   H268      1.0  0.22638  0.11327  0.76343  1.0000
  H   H269      1.0  0.45059  0.26376  0.78088  1.0000
  C   C178      1.0  0.20271  0.10122  0.79272  1.0000
  H   H270      1.0  0.46664  0.28719  0.78393  1.0000
  H   H271      1.0  0.12019  0.03423  0.94809  1.0000
  H   H272      1.0  0.20081  0.05567  0.79407  1.0000
  C   C179      1.0  0.07625  0.21204  0.88521  1.0000
  C   C180      1.0  0.06788  0.19708  0.87522  1.0000
  C   C181      1.0  0.07285  0.19940  0.85757  1.0000
  C   C182      1.0  0.08594  0.21689  0.84967  1.0000
  C   C183      1.0  0.09337  0.23267  0.85948  1.0000
  C   C184      1.0  0.08856  0.23018  0.87725  1.0000
  H   H273      1.0  0.05807  0.18334  0.88108  1.0000
  H   H274      1.0  0.06685  0.18729  0.85000  1.0000
  H   H275      1.0  0.10362  0.24616  0.85350  1.0000
  H   H276      1.0  0.09505  0.24190  0.88490  1.0000
  Fe  Fe39      1.0  0.11452  0.25407  0.77080  1.0000
  H   H277      1.0  0.42450  0.31335  0.75601  1.0000
  H   H278      1.0  0.04358  0.23856  0.85660  1.0000
  C   C185      1.0  0.19131  0.08593  0.76815  1.0000
  H   H279      1.0  0.41712  0.32912  0.78341  1.0000
  H   H280      1.0  0.18682  0.10313  0.76213  1.0000
  H   H281      1.0  0.10715  0.03754  0.97827  1.0000
  C   C186      1.0  0.07937  0.07628  0.95248  1.0000
  H   H282      1.0  0.22945  0.06308  0.79489  1.0000
  C   C187      1.0  0.03878  0.25428  0.84873  1.0000
  H   H283      1.0  0.14992  0.29525  0.77063  1.0000
  C   C188      1.0  0.04193  0.04482  0.91683  1.0000
  C   C189      1.0  0.04831  0.06725  0.91320  1.0000
  C   C190      1.0  0.06939  0.07171  0.90452  1.0000
  C   C191      1.0  0.08365  0.05386  0.89896  1.0000
  H   H284      1.0  0.10592  0.05048  0.93174  1.0000
  C   C192      1.0  0.16738  0.28957  0.76606  1.0000
  H   H285      1.0  0.03706  0.08103  0.91726  1.0000
  H   H286      1.0  0.09985  0.05723  0.89207  1.0000
  H   H287      1.0  0.08362  0.05654  0.98387  1.0000
  H   H288      1.0  0.08854  0.01779  0.89842  1.0000
  H   H289      1.0  0.16453  0.17317  0.77922  1.0000
  H   H290      1.0  0.11004  0.06756  0.97502  1.0000
  C   C193      1.0  0.15191  0.20391  0.76577  1.0000
  H   H291      1.0  0.06579  0.17497  0.98116  1.0000
  C   C194      1.0  0.44967  0.28012  0.78670  1.0000
  H   H292      1.0  0.22142  0.05190  0.77644  1.0000
  C   C195      1.0  0.49565  0.24343  0.76305  1.0000
  H   H293      1.0  0.42656  0.31380  0.80224  1.0000
  H   H294      1.0  0.06996  0.03534  0.94388  1.0000
  H   H295      1.0  0.14109  0.20915  0.77657  1.0000
  H   H296      1.0  0.39626  0.29598  0.77726  1.0000
  H   H297      1.0  0.16326  0.30721  0.80816  1.0000
  C   C196      1.0  0.11091  0.05069  0.94484  1.0000
  H   H298      1.0  0.21641  0.10231  0.80106  1.0000
  H   H299      1.0  0.03057  0.28056  0.82036  1.0000
  C   C197      1.0  0.18816  0.33261  0.80620  1.0000
  C   C198      1.0  0.05674  0.02692  0.91192  1.0000
  H   H300      1.0  0.17581  0.07945  0.77548  1.0000
  H   H301      1.0  0.18765  0.09489  0.80075  1.0000
  C   C199      1.0  0.06218  0.16635  0.99367  1.0000
  C   C200      1.0  0.09828  0.05396  0.97433  1.0000
  C   C201      1.0  0.06038  0.14288  0.99559  1.0000
  H   H302      1.0  0.06416  0.07947  0.96140  1.0000
  C   C202      1.0  0.21560  0.06329  0.78648  1.0000
  S   S77       1.0  0.02882  0.27743  0.78372  1.0000
  S   S78       1.0  0.09653  0.28833  0.76780  1.0000
  H   H303      1.0  0.05117  0.24342  0.81705  1.0000
  H   H304      1.0  0.26946  0.33078  0.84420  1.0000
  S   S79       1.0  0.19547  0.15067  0.75550  1.0000
  N   N18       1.0  0.20988  0.08648  0.77906  1.0000
  H   H305      1.0  0.44679  0.32559  0.78599  1.0000
  C   C203      1.0  0.40989  0.28517  0.78313  1.0000
  H   H306      1.0  0.43743  0.28556  0.75476  1.0000
  N   N19       1.0  0.11979  0.14810  0.87606  1.0000
  C   C204      1.0  0.12030  0.17094  0.88178  1.0000
  C   C205      1.0  0.13515  0.14649  0.86042  1.0000
  C   C206      1.0  0.09662  0.14394  0.87256  1.0000
  C   C207      1.0  0.12705  0.13099  0.88947  1.0000
  H   H307      1.0  0.13737  0.17445  0.88500  1.0000
  H   H308      1.0  0.10833  0.17304  0.89327  1.0000
  H   H309      1.0  0.11553  0.18431  0.87178  1.0000
  H   H310      1.0  0.13504  0.12951  0.85570  1.0000
  H   H311      1.0  0.13008  0.15930  0.85008  1.0000
  H   H312      1.0  0.15282  0.14950  0.86257  1.0000
  H   H313      1.0  0.09533  0.12641  0.86913  1.0000
  H   H314      1.0  0.09099  0.15572  0.86191  1.0000
  H   H315      1.0  0.08436  0.14609  0.88386  1.0000
  H   H316      1.0  0.12645  0.11350  0.88572  1.0000
  H   H317      1.0  0.11574  0.13187  0.90141  1.0000
  H   H318      1.0  0.14452  0.13341  0.89242  1.0000
  N   N20       1.0  0.43183  0.29584  0.77994  1.0000
  Fe  Fe40      1.0  0.01711  0.14852  0.93097  1.0000
  H   H319      1.0  0.19820  0.11880  0.78737  1.0000
  C   C208      1.0  0.16752  0.32412  0.80310  1.0000
  H   H320      1.0  0.05468  0.26162  0.84266  1.0000
  C   C209      1.0  0.07547  0.03587  0.95676  1.0000
  H   H321      1.0  0.17825  0.29132  0.77637  1.0000
  H   H322      1.0  0.44650  0.27615  0.80065  1.0000
  H   H323      1.0  0.07385  0.07720  0.93949  1.0000
  H   H324      1.0  0.19966  0.32207  0.81364  1.0000
  H   H325      1.0  0.06011  0.03801  0.96569  1.0000
  C   C210      1.0  0.16518  0.18352  0.76724  1.0000
  H   H326      1.0  0.48686  0.33836  0.86956  1.0000
  H   H327      1.0  0.12294  0.06428  0.94459  1.0000
  H   H328      1.0  0.41070  0.26856  0.77771  1.0000
  C   C211      1.0  0.43720  0.30105  0.76151  1.0000
  H   H329      1.0  0.19604  0.07486  0.75777  1.0000
  H   H330      1.0  0.08371  0.01898  0.96032  1.0000
  H   H331      1.0  0.45399  0.30839  0.75854  1.0000
  H   H332      1.0  0.04216  0.21873  0.82991  1.0000
  C   C212      1.0  0.15208  0.33790  0.79408  1.0000
  H   H333      1.0  0.26345  0.33617  0.86607  1.0000
  C   C213      1.0  0.03607  0.23522  0.82363  1.0000
  H   H334      1.0  0.28853  0.34640  0.85403  1.0000
  N   N21       1.0  0.02374  0.24967  0.83595  1.0000
  H   H335      1.0  0.16722  0.27125  0.76421  1.0000
  H   H336      1.0  0.49174  0.22693  0.76924  1.0000
  H   H337      1.0  0.18533  0.33004  0.76338  1.0000
  C   C214      1.0  0.27036  0.34360  0.85337  1.0000
  H   H338      1.0  0.21024  0.29744  0.75433  1.0000
  C   C215      1.0  0.17919  0.17648  0.75329  1.0000
  H   H339      1.0  0.15709  0.33352  0.75734  1.0000
  H   H340      1.0  0.23200  0.34762  0.83836  1.0000
  C   C216      1.0  0.17455  0.32718  0.75322  1.0000
  Fe  Fe41      1.0  0.34413  0.45607  0.04954  1.0000
  S   S80       1.0  0.36977  0.48230  0.04447  1.0000
  S   S81       1.0  0.32290  0.44869  0.02894  1.0000
  Fe  Fe42      1.0  0.35340  0.44618  0.08669  1.0000
  S   S82       1.0  0.38019  0.47158  0.08447  1.0000
  S   S83       1.0  0.34696  0.42246  0.11061  1.0000
  Fe  Fe43      1.0  0.35610  0.49380  0.06954  1.0000
  S   S84       1.0  0.35170  0.53131  0.07105  1.0000
  Fe  Fe44      1.0  0.39165  0.45787  0.05965  1.0000
  S   S85       1.0  0.42792  0.45512  0.04904  1.0000
  S   S86       1.0  0.32818  0.46964  0.07361  1.0000
  S   S87       1.0  0.36709  0.43042  0.06284  1.0000
  Fe  Fe45      1.0  0.42490  0.63617  0.06081  1.0000
  S   S88       1.0  0.45082  0.60820  0.06607  1.0000
  H   H341      1.0  0.40258  0.61653  0.00611  1.0000
  S   S89       1.0  0.45810  0.63168  0.10089  1.0000
  Fe  Fe46      1.0  0.47150  0.63503  0.07341  1.0000
  H   H342      1.0  0.35052  0.60681  0.04214  1.0000
  Fe  Fe47      1.0  0.43492  0.60724  0.09276  1.0000
  S   S90       1.0  0.42624  0.57381  0.10691  1.0000
  S   S91       1.0  0.40755  0.63373  0.08726  1.0000
  H   H343      1.0  0.29251  0.57541  0.24824  1.0000
  Fe  Fe48      1.0  0.28504  0.37989  0.21892  1.0000
  S   S92       1.0  0.25939  0.37954  0.19996  1.0000
  H   H344      1.0  0.40715  0.37043  0.22256  1.0000
  S   S93       1.0  0.23811  0.42721  0.21399  1.0000
  Fe  Fe49      1.0  0.23398  0.38992  0.22099  1.0000
  S   S94       1.0  0.19948  0.37681  0.23120  1.0000
  Fe  Fe50      1.0  0.26587  0.41662  0.19453  1.0000
  S   S95       1.0  0.26763  0.43703  0.16878  1.0000
  S   S96       1.0  0.29321  0.41632  0.21209  1.0000
  H   H345      1.0  0.35159  0.65227  0.23133  1.0000
  H   H346      1.0  0.46714  0.67136  0.11793  1.0000
  Fe  Fe51      1.0  0.43213  0.65853  0.09294  1.0000
  C   C217      1.0  0.50351  0.67738  0.09527  1.0000
  H   H347      1.0  0.47294  0.65090  0.02714  1.0000
  S   S97       1.0  0.49515  0.38893  0.08914  1.0000
  N   N22       1.0  0.34481  0.61063  0.06886  1.0000
  H   H348      1.0  0.38689  0.35155  0.21770  1.0000
  H   H349      1.0  0.43009  0.67163  0.02682  1.0000
  H   H350      1.0  0.41271  0.51192  0.08178  1.0000
  H   H351      1.0  0.27920  0.55051  0.21987  1.0000
  C   C218      1.0  0.32566  0.42761  0.12712  1.0000
  C   C219      1.0  0.31038  0.44638  0.12589  1.0000
  C   C220      1.0  0.29274  0.44908  0.13878  1.0000
  C   C221      1.0  0.29048  0.43333  0.15315  1.0000
  C   C222      1.0  0.30599  0.41479  0.15451  1.0000
  C   C223      1.0  0.32340  0.41188  0.14148  1.0000
  H   H352      1.0  0.31201  0.45872  0.11497  1.0000
  H   H353      1.0  0.28083  0.46350  0.13768  1.0000
  H   H354      1.0  0.30439  0.40254  0.16550  1.0000
  H   H355      1.0  0.33515  0.39732  0.14254  1.0000
  C   C224      1.0  0.44573  0.43525  0.05974  1.0000
  C   C225      1.0  0.43789  0.42230  0.07456  1.0000
  C   C226      1.0  0.45304  0.40773  0.08346  1.0000
  C   C227      1.0  0.47597  0.40613  0.07752  1.0000
  C   C228      1.0  0.48355  0.41864  0.06246  1.0000
  C   C229      1.0  0.46851  0.43324  0.05365  1.0000
  H   H356      1.0  0.42025  0.42370  0.07928  1.0000
  H   H357      1.0  0.44704  0.39794  0.09503  1.0000
  N   N23       1.0  0.49827  0.63729  0.00917  1.0000
  H   H358      1.0  0.47459  0.44302  0.04209  1.0000
  C   C230      1.0  0.37385  0.54100  0.08074  1.0000
  C   C231      1.0  0.38887  0.55562  0.07133  1.0000
  C   C232      1.0  0.40503  0.56564  0.07933  1.0000
  C   C233      1.0  0.40660  0.56065  0.09672  1.0000
  C   C234      1.0  0.39229  0.54514  0.10600  1.0000
  C   C235      1.0  0.37579  0.53543  0.09804  1.0000
  H   H359      1.0  0.38790  0.55934  0.05784  1.0000
  H   H360      1.0  0.41617  0.57730  0.07201  1.0000
  H   H361      1.0  0.39351  0.54116  0.11945  1.0000
  H   H362      1.0  0.36422  0.52407  0.10536  1.0000
  H   H363      1.0  0.48051  0.48432  0.08091  1.0000
  C   C236      1.0  0.35801  0.68110  0.24418  1.0000
  C   C237      1.0  0.32423  0.55423  0.21518  1.0000
  C   C238      1.0  0.46684  0.49226  0.07340  1.0000
  H   H364      1.0  0.46516  0.50787  0.10406  1.0000
  N   N24       1.0  0.30734  0.56992  0.22334  1.0000
  H   H365      1.0  0.31524  0.59129  0.07148  1.0000
  H   H366      1.0  0.37045  0.43912  0.01940  1.0000
  H   H367      1.0  0.28342  0.37166  0.07534  1.0000
  H   H368      1.0  0.48398  0.62305  0.03351  1.0000
  H   H369      1.0  0.27460  0.67619  0.23210  1.0000
  H   H370      1.0  0.43374  0.52434  0.06660  1.0000
  C   C239      1.0  0.36139  0.43867  0.00833  1.0000
  C   C240      1.0  0.31440  0.59341  0.21952  1.0000
  H   H371      1.0  0.43052  0.35960  0.24658  1.0000
  H   H372      1.0  0.47349  0.50744  0.06566  1.0000
  N   N25       1.0  0.29853  0.40095  0.08210  1.0000
  C   C241      1.0  0.27997  0.38529  0.08400  1.0000
  C   C242      1.0  0.29310  0.41877  0.09375  1.0000
  C   C243      1.0  0.28519  0.56796  0.21692  1.0000
  C   C244      1.0  0.31970  0.38830  0.08626  1.0000
  C   C245      1.0  0.32008  0.60924  0.06964  1.0000
  H   H373      1.0  0.42472  0.49657  0.06460  1.0000
  H   H374      1.0  0.27754  0.37708  0.09721  1.0000
  H   H375      1.0  0.29106  0.41154  0.10725  1.0000
  H   H376      1.0  0.30680  0.43080  0.09269  1.0000
  H   H377      1.0  0.27729  0.42878  0.09103  1.0000
  H   H378      1.0  0.31523  0.42340  0.06265  1.0000
  H   H379      1.0  0.34513  0.64317  0.05436  1.0000
  H   H380      1.0  0.33089  0.59561  0.22445  1.0000
  H   H381      1.0  0.49876  0.64267  0.11947  1.0000
  H   H382      1.0  0.31879  0.38146  0.09984  1.0000
  H   H383      1.0  0.33426  0.39938  0.08410  1.0000
  C   C246      1.0  0.41563  0.64293  0.01843  1.0000
  H   H384      1.0  0.50097  0.41686  0.05744  1.0000
  H   H385      1.0  0.36924  0.63612  0.06577  1.0000
  H   H386      1.0  0.51136  0.60303  0.01390  1.0000
  C   C247      1.0  0.30543  0.56408  0.24187  1.0000
  C   C248      1.0  0.42865  0.50823  0.07388  1.0000
  H   H387      1.0  0.26372  0.39435  0.08108  1.0000
  H   H388      1.0  0.37156  0.60041  0.08462  1.0000
  H   H389      1.0  0.24455  0.52364  0.22785  1.0000
  S   S98       1.0  0.25935  0.38772  0.24024  1.0000
  H   H390      1.0  0.28588  0.57215  0.20297  1.0000
  H   H391      1.0  0.43655  0.51934  0.10465  1.0000
  H   H392      1.0  0.25239  0.48221  0.22716  1.0000
  Fe  Fe52      1.0  0.26502  0.42446  0.23191  1.0000
  H   H393      1.0  0.49240  0.66451  0.09194  1.0000
  H   H394      1.0  0.31138  0.61804  0.08036  1.0000
  C   C249      1.0  0.30138  0.41145  0.06444  1.0000
  S   S99       1.0  0.40480  0.63218  0.03882  1.0000
  H   H395      1.0  0.31613  0.59851  0.20565  1.0000
  H   H396      1.0  0.28585  0.42130  0.06079  1.0000
  H   H397      1.0  0.45731  0.53077  0.08891  1.0000
  N   N26       1.0  0.50225  0.67845  0.11382  1.0000
  H   H398      1.0  0.34536  0.60858  0.09598  1.0000
  H   H399      1.0  0.46457  0.62719  0.01742  1.0000
  H   H400      1.0  0.31342  0.61707  0.05774  1.0000
  H   H401      1.0  0.32610  0.55812  0.20116  1.0000
  H   H402      1.0  0.34871  0.58180  0.08711  1.0000
  S   S100      1.0  0.31138  0.35081  0.22081  1.0000
  H   H403      1.0  0.34291  0.64420  0.07702  1.0000
  C   C250      1.0  0.25529  0.49029  0.23828  1.0000
  H   H404      1.0  0.43341  0.46513  0.08613  1.0000
  H   H405      1.0  0.20947  0.35271  0.20073  1.0000
  C   C251      1.0  0.25093  0.51381  0.23869  1.0000
  C   C252      1.0  0.43823  0.47756  0.09450  1.0000
  H   H406      1.0  0.31929  0.53637  0.21790  1.0000
  S   S101      1.0  0.44704  0.66341  0.06572  1.0000
  H   H407      1.0  0.32380  0.37398  0.07832  1.0000
  H   H408      1.0  0.30569  0.39860  0.05523  1.0000
  H   H409      1.0  0.46327  0.47995  0.06446  1.0000
  H   H410      1.0  0.42305  0.48144  0.10326  1.0000
  C   C253      1.0  0.35292  0.59991  0.08485  1.0000
  C   C254      1.0  0.47910  0.63444  0.02236  1.0000
  C   C255      1.0  0.35559  0.59872  0.05449  1.0000
  C   C256      1.0  0.45163  0.51472  0.09602  1.0000
  H   H411      1.0  0.34109  0.55524  0.21982  1.0000
  H   H412      1.0  0.35109  0.58069  0.05566  1.0000
  H   H413      1.0  0.50326  0.61362  0.09639  1.0000
  H   H414      1.0  0.15896  0.35397  0.24304  1.0000
  H   H415      1.0  0.19320  0.47470  0.24712  1.0000
  H   H416      1.0  0.30198  0.60560  0.22561  1.0000
  H   H417      1.0  0.45140  0.46902  0.10222  1.0000
  C   C257      1.0  0.42214  0.67481  0.15690  1.0000
  N   N27       1.0  0.44637  0.49820  0.08445  1.0000
  C   C258      1.0  0.42373  0.67296  0.13933  1.0000
  C   C259      1.0  0.33798  0.44273  0.00953  1.0000
  C   C260      1.0  0.27350  0.67318  0.24616  1.0000
  C   C261      1.0  0.35067  0.63460  0.06643  1.0000
  H   H418      1.0  0.21782  0.45854  0.23940  1.0000
  C   C262      1.0  0.42744  0.66274  0.01603  1.0000
  H   H419      1.0  0.42368  0.65970  0.16556  1.0000
  H   H420      1.0  0.37431  0.59893  0.05381  1.0000
  H   H421      1.0  0.42647  0.65652  0.13455  1.0000
  C   C263      1.0  0.34844  0.66039  0.24297  1.0000
  C   C264      1.0  0.18221  0.43206  0.24431  1.0000
  H   H422      1.0  0.27201  0.57950  0.22295  1.0000
  C   C265      1.0  0.50587  0.61504  0.00328  1.0000
  H   H423      1.0  0.50566  0.35668  0.11821  1.0000
  H   H424      1.0  0.30013  0.54646  0.24535  1.0000
  H   H425      1.0  0.28846  0.66220  0.24955  1.0000
  S   S102      1.0  0.50772  0.63750  0.06273  1.0000
  H   H426      1.0  0.25832  0.66338  0.25028  1.0000
  C   C266      1.0  0.40362  0.35225  0.22270  1.0000
  H   H427      1.0  0.36934  0.35170  0.24671  1.0000
  C   C267      1.0  0.18574  0.35538  0.22271  1.0000
  H   H428      1.0  0.51164  0.66344  0.02146  1.0000
  C   C268      1.0  0.41182  0.63180  0.00433  1.0000
  C   C269      1.0  0.50963  0.65623  0.12206  1.0000
  H   H429      1.0  0.16876  0.44480  0.24054  1.0000
  H   H430      1.0  0.32161  0.56588  0.24734  1.0000
  H   H431      1.0  0.50886  0.65638  0.13607  1.0000
  H   H432      1.0  0.19336  0.42877  0.23266  1.0000
  H   H433      1.0  0.17415  0.41586  0.24880  1.0000
  H   H434      1.0  0.22468  0.41923  0.25073  1.0000
  C   C270      1.0  0.38630  0.35139  0.25146  1.0000
  C   C271      1.0  0.20584  0.46102  0.25078  1.0000
  H   H435      1.0  0.35099  0.57414  0.37473  1.0000
  C   C272      1.0  0.37688  0.39611  0.41090  1.0000
  H   H436      1.0  0.40184  0.39640  0.38090  1.0000
  Fe  Fe53      1.0  0.25656  0.57869  0.27165  1.0000
  S   S103      1.0  0.23483  0.59253  0.29353  1.0000
  C   C273      1.0  0.33470  0.65031  0.25663  1.0000
  Fe  Fe54      1.0  0.29186  0.61437  0.27203  1.0000
  S   S104      1.0  0.27352  0.63076  0.29405  1.0000
  H   H437      1.0  0.45330  0.59781  0.48812  1.0000
  Fe  Fe55      1.0  0.26797  0.59472  0.30489  1.0000
  S   S105      1.0  0.27305  0.57844  0.33137  1.0000
  Fe  Fe56      1.0  0.24177  0.62767  0.28135  1.0000
  S   S106      1.0  0.21847  0.65742  0.27203  1.0000
  S   S107      1.0  0.28896  0.57866  0.28373  1.0000
  H   H438      1.0  0.20535  0.40578  0.26658  1.0000
  S   S108      1.0  0.44281  0.40242  0.40181  1.0000
  S   S109      1.0  0.46488  0.40735  0.43746  1.0000
  Fe  Fe57      1.0  0.43062  0.41090  0.42800  1.0000
  S   S110      1.0  0.40430  0.43841  0.43406  1.0000
  H   H439      1.0  0.36410  0.63156  0.49043  1.0000
  C   C274      1.0  0.41312  0.62237  0.46389  1.0000
  S   S111      1.0  0.42171  0.37552  0.43743  1.0000
  Fe  Fe58      1.0  0.35240  0.59892  0.40209  1.0000
  S   S112      1.0  0.38900  0.59698  0.39228  1.0000
  S   S113      1.0  0.33093  0.61873  0.38306  1.0000
  Fe  Fe59      1.0  0.36269  0.57666  0.43721  1.0000
  S   S114      1.0  0.39984  0.57292  0.42958  1.0000
  S   S115      1.0  0.35217  0.56238  0.46410  1.0000
  Fe  Fe60      1.0  0.39549  0.60815  0.41720  1.0000
  S   S116      1.0  0.41832  0.63565  0.42059  1.0000
  Fe  Fe61      1.0  0.38963  0.56192  0.40548  1.0000
  S   S117      1.0  0.40835  0.53408  0.39166  1.0000
  S   S118      1.0  0.35896  0.61286  0.42638  1.0000
  S   S119      1.0  0.35251  0.56281  0.41378  1.0000
  H   H440      1.0  0.35695  0.61035  0.46631  1.0000
  C   C275      1.0  0.49331  0.61682  0.41110  1.0000
  C   C276      1.0  0.48595  0.63652  0.41867  1.0000
  C   C277      1.0  0.46287  0.64253  0.42105  1.0000
  C   C278      1.0  0.44705  0.62859  0.41625  1.0000
  C   C279      1.0  0.45433  0.60879  0.40878  1.0000
  C   C280      1.0  0.47749  0.60306  0.40604  1.0000
  H   H441      1.0  0.49796  0.64721  0.42265  1.0000
  H   H442      1.0  0.45722  0.65780  0.42692  1.0000
  H   H443      1.0  0.44214  0.59795  0.40508  1.0000
  H   H444      1.0  0.48312  0.58782  0.40014  1.0000
  C   C281      1.0  0.35658  0.57804  0.48108  1.0000
  H   H445      1.0  0.40163  0.62848  0.47452  1.0000
  H   H446      1.0  0.33503  0.56090  0.34139  1.0000
  C   C282      1.0  0.40662  0.46510  0.42256  1.0000
  C   C283      1.0  0.42182  0.46836  0.40808  1.0000
  C   C284      1.0  0.42229  0.48959  0.39859  1.0000
  C   C285      1.0  0.40791  0.50770  0.40377  1.0000
  C   C286      1.0  0.39304  0.50450  0.41841  1.0000
  C   C287      1.0  0.39224  0.48319  0.42767  1.0000
  H   H447      1.0  0.43302  0.45450  0.40409  1.0000
  H   H448      1.0  0.43388  0.49204  0.38730  1.0000
  H   H449      1.0  0.38193  0.51837  0.42252  1.0000
  H   H450      1.0  0.38045  0.48075  0.43886  1.0000
  H   H451      1.0  0.26553  0.51976  0.27813  1.0000
  H   H452      1.0  0.42845  0.38783  0.47577  1.0000
  S   S120      1.0  0.26671  0.44729  0.25320  1.0000
  C   C288      1.0  0.28890  0.59010  0.34565  1.0000
  C   C289      1.0  0.29793  0.61135  0.34192  1.0000
  C   C290      1.0  0.31045  0.62003  0.35365  1.0000
  C   C291      1.0  0.31443  0.60738  0.36903  1.0000
  C   C292      1.0  0.30535  0.58616  0.37278  1.0000
  C   C293      1.0  0.29262  0.57759  0.36113  1.0000
  H   H453      1.0  0.29504  0.62119  0.33009  1.0000
  H   H454      1.0  0.31722  0.63658  0.35075  1.0000
  H   H455      1.0  0.30779  0.57654  0.38478  1.0000
  H   H456      1.0  0.28543  0.56126  0.36418  1.0000
  H   H457      1.0  0.17132  0.42805  0.27798  1.0000
  H   H458      1.0  0.37302  0.44132  0.40570  1.0000
  H   H459      1.0  0.38566  0.52760  0.35653  1.0000
  H   H460      1.0  0.28715  0.67941  0.27639  1.0000
  H   H461      1.0  0.36936  0.40437  0.42226  1.0000
  H   H462      1.0  0.18892  0.44959  0.28277  1.0000
  C   C294      1.0  0.38320  0.39825  0.38041  1.0000
  C   C295      1.0  0.26669  0.48810  0.26669  1.0000
  H   H463      1.0  0.42922  0.61581  0.49442  1.0000
  H   H464      1.0  0.50660  0.64947  0.35536  1.0000
  H   H465      1.0  0.27255  0.47817  0.27768  1.0000
  H   H466      1.0  0.50608  0.43620  0.42453  1.0000
  Fe  Fe62      1.0  0.47645  0.39520  0.41209  1.0000
  C   C296      1.0  0.35522  0.55720  0.37014  1.0000
  C   C297      1.0  0.37367  0.53633  0.34781  1.0000
  H   H467      1.0  0.37766  0.44314  0.38293  1.0000
  Fe  Fe63      1.0  0.45698  0.37115  0.44493  1.0000
  H   H468      1.0  0.45074  0.62652  0.47875  1.0000
  C   C298      1.0  0.26272  0.51170  0.26698  1.0000
  H   H469      1.0  0.40969  0.40299  0.50180  1.0000
  H   H470      1.0  0.39938  0.43129  0.39574  1.0000
  H   H471      1.0  0.34536  0.58773  0.34421  1.0000
  H   H472      1.0  0.33927  0.54824  0.37093  1.0000
  H   H473      1.0  0.42225  0.63713  0.45752  1.0000
  C   C299      1.0  0.17966  0.44377  0.27266  1.0000
  H   H474      1.0  0.45563  0.61233  0.45055  1.0000
  H   H475      1.0  0.42750  0.56918  0.48054  1.0000
  H   H476      1.0  0.40238  0.61687  0.45454  1.0000
  C   C300      1.0  0.34052  0.68156  0.27291  1.0000
  H   H477      1.0  0.40440  0.58751  0.48784  1.0000
  C   C301      1.0  0.35069  0.57031  0.34095  1.0000
  C   C302      1.0  0.33086  0.66087  0.27165  1.0000
  C   C303      1.0  0.36273  0.61342  0.49234  1.0000
  C   C304      1.0  0.21266  0.42227  0.26192  1.0000
  H   H478      1.0  0.35895  0.52559  0.34826  1.0000
  H   H479      1.0  0.35844  0.57174  0.32762  1.0000
  H   H480      1.0  0.40573  0.57841  0.46698  1.0000
  C   C305      1.0  0.25457  0.52465  0.25304  1.0000
  S   S121      1.0  0.24838  0.55428  0.25289  1.0000
  H   H481      1.0  0.45690  0.58339  0.45935  1.0000
  C   C306      1.0  0.34746  0.41171  0.39386  1.0000
  S   S122      1.0  0.50737  0.40859  0.39672  1.0000
  C   C307      1.0  0.38648  0.57283  0.35219  1.0000
  C   C308      1.0  0.44112  0.61130  0.48339  1.0000
  H   H482      1.0  0.38155  0.59023  0.35574  1.0000
  H   H483      1.0  0.37736  0.38081  0.38041  1.0000
  H   H484      1.0  0.33864  0.42015  0.40474  1.0000
  S   S123      1.0  0.46648  0.35553  0.47058  1.0000
  H   H485      1.0  0.38226  0.53710  0.33472  1.0000
  H   H486      1.0  0.32064  0.65299  0.28236  1.0000
  N   N28       1.0  0.36651  0.55917  0.35274  1.0000
  H   H487      1.0  0.50865  0.49845  0.42516  1.0000
  H   H488      1.0  0.36618  0.54770  0.37921  1.0000
  C   C309      1.0  0.38086  0.43236  0.39476  1.0000
  N   N29       1.0  0.42889  0.60383  0.46985  1.0000
  H   H489      1.0  0.49323  0.66776  0.37054  1.0000
  H   H490      1.0  0.48983  0.46251  0.42314  1.0000
  H   H491      1.0  0.34320  0.42185  0.38199  1.0000
  C   C310      1.0  0.44519  0.59785  0.45556  1.0000
  H   H492      1.0  0.39566  0.57445  0.33931  1.0000
  H   H493      1.0  0.20143  0.66023  0.30785  1.0000
  H   H494      1.0  0.50394  0.63996  0.37754  1.0000
  C   C311      1.0  0.43491  0.38283  0.48788  1.0000
  H   H495      1.0  0.43640  0.59314  0.44483  1.0000
  H   H496      1.0  0.50036  0.45141  0.44289  1.0000
  C   C312      1.0  0.35869  0.60144  0.47867  1.0000
  C   C313      1.0  0.26295  0.47724  0.25238  1.0000
  H   H497      1.0  0.39853  0.56511  0.36123  1.0000
  H   H498      1.0  0.37989  0.40779  0.36811  1.0000
  H   H499      1.0  0.34038  0.39479  0.39403  1.0000
  C   C314      1.0  0.41612  0.58384  0.47658  1.0000
  N   N30       1.0  0.37208  0.40962  0.39496  1.0000
  H   H500      1.0  0.16619  0.45696  0.26971  1.0000
  C   C315      1.0  0.50451  0.45347  0.42891  1.0000
  H   H501      1.0  0.37059  0.37877  0.41160  1.0000
  S   S124      1.0  0.26091  0.61354  0.25866  1.0000
  C   C316      1.0  0.45352  0.36742  0.48883  1.0000
  Fe  Fe64      1.0  0.43603  0.36649  0.41149  1.0000
  H   H502      1.0  0.31882  0.35620  0.28115  1.0000
  C   C317      1.0  0.50732  0.65494  0.36824  1.0000
  C   C318      1.0  0.31469  0.35373  0.25482  1.0000
  C   C319      1.0  0.19733  0.67491  0.28247  1.0000
  H   H503      1.0  0.22282  0.42745  0.27175  1.0000
  H   H504      1.0  0.39529  0.39399  0.41188  1.0000
  H   H505      1.0  0.38990  0.36923  0.25271  1.0000
  C   C320      1.0  0.35836  0.56676  0.49729  1.0000
  S   S125      1.0  0.47093  0.35845  0.41990  1.0000
  H   H506      1.0  0.35656  0.54868  0.49925  1.0000
  H   H507      1.0  0.25700  0.67993  0.27805  1.0000
  N   N31       1.0  0.19507  0.43979  0.25741  1.0000
  H   H508      1.0  0.21578  0.46724  0.26034  1.0000
  C   C321      1.0  0.19239  0.67297  0.30008  1.0000
  H   H509      1.0  0.30411  0.36913  0.25355  1.0000
  S   S126      1.0  0.32224  0.62480  0.25435  1.0000
  S   S127      1.0  0.41237  0.34948  0.39641  1.0000
  Fe  Fe65      1.0  0.23743  0.63734  0.71342  1.0000
  H   H510      1.0  0.41920  0.46964  0.51341  1.0000
  Fe  Fe66      1.0  0.28172  0.61240  0.70049  1.0000
  S   S128      1.0  0.29663  0.61378  0.72515  1.0000
  S   S129      1.0  0.30198  0.59100  0.68150  1.0000
  Fe  Fe67      1.0  0.26269  0.60323  0.73733  1.0000
  Fe  Fe68      1.0  0.28188  0.64937  0.72489  1.0000
  S   S130      1.0  0.24839  0.60028  0.71264  1.0000
  S   S131      1.0  0.26971  0.64897  0.69907  1.0000
  H   H511      1.0  0.40953  0.65060  0.59333  1.0000
  S   S132      1.0  0.44671  0.39265  0.60896  1.0000
  Fe  Fe69      1.0  0.43233  0.39186  0.56220  1.0000
  S   S133      1.0  0.46028  0.41187  0.56873  1.0000
  S   S134      1.0  0.41802  0.39555  0.53674  1.0000
  Fe  Fe70      1.0  0.46863  0.38155  0.58644  1.0000
  Fe  Fe71      1.0  0.43653  0.42174  0.59067  1.0000
  S   S135      1.0  0.43778  0.45790  0.59611  1.0000
  S   S136      1.0  0.40765  0.40445  0.58278  1.0000
  Fe  Fe72      1.0  0.35873  0.60442  0.58854  1.0000
  S   S137      1.0  0.37850  0.57303  0.59725  1.0000
  S   S138      1.0  0.33846  0.62693  0.60658  1.0000
  Fe  Fe73      1.0  0.37441  0.59983  0.55108  1.0000
  S   S139      1.0  0.39558  0.56804  0.55687  1.0000
  S   S140      1.0  0.37289  0.61734  0.52466  1.0000
  Fe  Fe74      1.0  0.36610  0.55830  0.57533  1.0000
  S   S141      1.0  0.35388  0.52311  0.57940  1.0000
  Fe  Fe75      1.0  0.40627  0.58565  0.57820  1.0000
  S   S142      1.0  0.44158  0.58113  0.58625  1.0000
  S   S143      1.0  0.34384  0.58873  0.56790  1.0000
  S   S144      1.0  0.38748  0.61845  0.57106  1.0000
  H   H512      1.0  0.38023  0.65197  0.60104  1.0000
  C   C322      1.0  0.45666  0.60560  0.58616  1.0000
  C   C323      1.0  0.44877  0.62657  0.57879  1.0000
  C   C324      1.0  0.46072  0.64601  0.57956  1.0000
  C   C325      1.0  0.48082  0.64441  0.58743  1.0000
  H   H513      1.0  0.48108  0.51425  0.60886  1.0000
  H   H514      1.0  0.28334  0.53812  0.59968  1.0000
  H   H515      1.0  0.43366  0.62777  0.57230  1.0000
  H   H516      1.0  0.45460  0.66219  0.57384  1.0000
  H   H517      1.0  0.29312  0.51085  0.73989  1.0000
  H   H518      1.0  0.36882  0.64446  0.63161  1.0000
  N   N32       1.0  0.29062  0.57127  0.60547  1.0000
  H   H519      1.0  0.40965  0.49927  0.53327  1.0000
  H   H520      1.0  0.28488  0.51482  0.69385  1.0000
  C   C326      1.0  0.42291  0.45762  0.54649  1.0000
  H   H521      1.0  0.28899  0.49464  0.72266  1.0000
  H   H522      1.0  0.07277  0.66941  0.73735  1.0000
  C   C327      1.0  0.41375  0.47557  0.59270  1.0000
  C   C328      1.0  0.39272  0.46678  0.59180  1.0000
  C   C329      1.0  0.37406  0.48144  0.58816  1.0000
  C   C330      1.0  0.37654  0.50481  0.58530  1.0000
  C   C331      1.0  0.39752  0.51349  0.58643  1.0000
  C   C332      1.0  0.41603  0.49893  0.59021  1.0000
  H   H523      1.0  0.39080  0.44877  0.59404  1.0000
  H   H524      1.0  0.35781  0.47468  0.58741  1.0000
  H   H525      1.0  0.39967  0.53144  0.58427  1.0000
  H   H526      1.0  0.43224  0.50580  0.59092  1.0000
  H   H527      1.0  0.22831  0.55657  0.74421  1.0000
  H   H528      1.0  0.26365  0.53418  0.70271  1.0000
  C   C333      1.0  0.18976  0.68160  0.72860  1.0000
  H   H529      1.0  0.37732  0.36817  0.55049  1.0000
  C   C334      1.0  0.31304  0.60199  0.66115  1.0000
  C   C335      1.0  0.30670  0.62369  0.65423  1.0000
  C   C336      1.0  0.31502  0.63131  0.63760  1.0000
  C   C337      1.0  0.32977  0.61735  0.62782  1.0000
  C   C338      1.0  0.33661  0.59589  0.63493  1.0000
  C   C339      1.0  0.32810  0.58818  0.65146  1.0000
  H   H530      1.0  0.29508  0.63445  0.66158  1.0000
  H   H531      1.0  0.30967  0.64797  0.63220  1.0000
  H   H532      1.0  0.34825  0.58509  0.62768  1.0000
  H   H533      1.0  0.33319  0.57142  0.65678  1.0000
  H   H534      1.0  0.48033  0.54170  0.59714  1.0000
  H   H535      1.0  0.29163  0.60351  0.61532  1.0000
  H   H536      1.0  0.43721  0.46764  0.54052  1.0000
  H   H537      1.0  0.39008  0.38196  0.66760  1.0000
  H   H538      1.0  0.26443  0.59181  0.61809  1.0000
  C   C340      1.0  0.42596  0.64463  0.62372  1.0000
  H   H539      1.0  0.40552  0.60543  0.62904  1.0000
  C   C341      1.0  0.38174  0.35706  0.56192  1.0000
  H   H540      1.0  0.39387  0.49242  0.55326  1.0000
  C   C342      1.0  0.38648  0.64693  0.63423  1.0000
  H   H541      1.0  0.38374  0.61302  0.61524  1.0000
  H   H542      1.0  0.38017  0.49411  0.53412  1.0000
  C   C343      1.0  0.31481  0.56500  0.60659  1.0000
  C   C344      1.0  0.43254  0.38506  0.51846  1.0000
  H   H543      1.0  0.50426  0.62203  0.60078  1.0000
  C   C345      1.0  0.48883  0.62340  0.59459  1.0000
  S   S145      1.0  0.50499  0.37090  0.58854  1.0000
  C   C346      1.0  0.28282  0.58740  0.61808  1.0000
  H   H544      1.0  0.29743  0.55151  0.73516  1.0000
  H   H545      1.0  0.32633  0.64894  0.74690  1.0000
  H   H546      1.0  0.39612  0.37947  0.70584  1.0000
  H   H547      1.0  0.25928  0.55468  0.60802  1.0000
  H   H548      1.0  0.48293  0.58794  0.59974  1.0000
  C   C347      1.0  0.48997  0.52503  0.59834  1.0000
  C   C348      1.0  0.36156  0.35227  0.68410  1.0000
  C   C349      1.0  0.37992  0.37501  0.70154  1.0000
  C   C350      1.0  0.45139  0.36996  0.51943  1.0000
  H   H549      1.0  0.43868  0.63954  0.61338  1.0000
  H   H550      1.0  0.29674  0.59774  0.58538  1.0000
  H   H551      1.0  0.40961  0.44162  0.51890  1.0000
  H   H552      1.0  0.26923  0.58668  0.58683  1.0000
  C   C351      1.0  0.27762  0.55069  0.60891  1.0000
  H   H553      1.0  0.35275  0.36743  0.67789  1.0000
  H   H554      1.0  0.37144  0.39082  0.69599  1.0000
  C   C352      1.0  0.36526  0.60204  0.50840  1.0000
  H   H555      1.0  0.32239  0.50991  0.70542  1.0000
  H   H556      1.0  0.38959  0.63637  0.64620  1.0000
  H   H557      1.0  0.48970  0.41477  0.59961  1.0000
  H   H558      1.0  0.27969  0.54230  0.62184  1.0000
  C   C353      1.0  0.40113  0.61660  0.61766  1.0000
  S   S146      1.0  0.24900  0.63938  0.73922  1.0000
  S   S147      1.0  0.49603  0.66858  0.58815  1.0000
  H   H559      1.0  0.26686  0.51349  0.73065  1.0000
  H   H560      1.0  0.29349  0.57047  0.57837  1.0000
  N   N33       1.0  0.40192  0.46423  0.53841  1.0000
  H   H561      1.0  0.28613  0.58044  0.63116  1.0000
  C   C354      1.0  0.40526  0.45988  0.52034  1.0000
  H   H562      1.0  0.28818  0.54487  0.69040  1.0000
  H   H563      1.0  0.41272  0.61144  0.60671  1.0000
  C   C355      1.0  0.36287  0.57867  0.51089  1.0000
  C   C356      1.0  0.28964  0.55174  0.72300  1.0000
  H   H564      1.0  0.38052  0.45348  0.56072  1.0000
  H   H565      1.0  0.36723  0.45544  0.54135  1.0000
  H   H566      1.0  0.32130  0.55286  0.59724  1.0000
  H   H567      1.0  0.36907  0.36884  0.71309  1.0000
  C   C357      1.0  0.31845  0.52615  0.71118  1.0000
  H   H568      1.0  0.38714  0.43237  0.54620  1.0000
  H   H569      1.0  0.31805  0.55695  0.61940  1.0000
  C   C358      1.0  0.47674  0.60407  0.59401  1.0000
  H   H570      1.0  0.36466  0.56977  0.52324  1.0000
  H   H571      1.0  0.42809  0.66278  0.62511  1.0000
  H   H572      1.0  0.39537  0.36514  0.56726  1.0000
  C   C359      1.0  0.39805  0.36657  0.67418  1.0000
  H   H573      1.0  0.21485  0.51754  0.74656  1.0000
  H   H574      1.0  0.27128  0.55572  0.72573  1.0000
  H   H575      1.0  0.32509  0.58012  0.60398  1.0000
  H   H576      1.0  0.32772  0.52552  0.72269  1.0000
  C   C360      1.0  0.39616  0.48856  0.53979  1.0000
  C   C361      1.0  0.38337  0.45080  0.54704  1.0000
  S   S148      1.0  0.29112  0.38537  0.73892  1.0000
  N   N34       1.0  0.40280  0.64074  0.61999  1.0000
  S   S149      1.0  0.20519  0.65387  0.70334  1.0000
  C   C362      1.0  0.28733  0.58198  0.58826  1.0000
  C   C363      1.0  0.33034  0.66570  0.74942  1.0000
  Fe  Fe76      1.0  0.42000  0.37402  0.59904  1.0000
  C   C364      1.0  0.50755  0.41215  0.60087  1.0000
  N   N35       1.0  0.38356  0.35776  0.68926  1.0000
  C   C365      1.0  0.39752  0.65473  0.60433  1.0000
  H   H577      1.0  0.42090  0.46022  0.56022  1.0000
  H   H578      1.0  0.32530  0.54001  0.70199  1.0000
  C   C366      1.0  0.28218  0.53096  0.69988  1.0000
  N   N36       1.0  0.29393  0.53003  0.71543  1.0000
  H   H579      1.0  0.40796  0.68146  0.74243  1.0000
  H   H580      1.0  0.51073  0.44568  0.60815  1.0000
  S   S150      1.0  0.44287  0.36019  0.57788  1.0000
  C   C367      1.0  0.28543  0.51143  0.72766  1.0000
  H   H581      1.0  0.29651  0.56605  0.71437  1.0000
  H   H582      1.0  0.36687  0.35703  0.57156  1.0000
  S   S151      1.0  0.39326  0.35352  0.61469  1.0000
  H   H583      1.0  0.48887  0.51694  0.58646  1.0000
  H   H584      1.0  0.40138  0.35381  0.66477  1.0000
  C   C368      1.0  0.31539  0.36744  0.74154  1.0000
  H   H585      1.0  0.41474  0.37103  0.67762  1.0000
  H   H586      1.0  0.45784  0.36490  0.53153  1.0000
  H   H587      1.0  0.50598  0.52803  0.62836  1.0000
  H   H588      1.0  0.38740  0.66499  0.63651  1.0000
  H   H589      1.0  0.42789  0.43944  0.54548  1.0000
  H   H590      1.0  0.43038  0.63462  0.63561  1.0000
  H   H591      1.0  0.20101  0.67153  0.73656  1.0000
  C   C369      1.0  0.51226  0.67638  0.54481  1.0000
  C   C370      1.0  0.42434  0.39143  0.50267  1.0000
  C   C371      1.0  0.46170  0.36102  0.50466  1.0000
  H   H592      1.0  0.39838  0.67308  0.60567  1.0000
  H   H593      1.0  0.47609  0.34908  0.50545  1.0000
  C   C372      1.0  0.18812  0.67613  0.71212  1.0000
  H   H594      1.0  0.50559  0.55552  0.61659  1.0000
  C   C373      1.0  0.32085  0.35021  0.73076  1.0000
  H   H595      1.0  0.43641  0.67574  0.73354  1.0000
  H   H596      1.0  0.38975  0.46464  0.51382  1.0000
  H   H597      1.0  0.49419  0.67595  0.54988  1.0000
  H   H598      1.0  0.04853  0.68183  0.74901  1.0000
  C   C374      1.0  0.23689  0.54305  0.75159  1.0000
  Fe  Fe77      1.0  0.36529  0.43656  0.93349  1.0000
  S   S152      1.0  0.39125  0.45855  0.91914  1.0000
  S   S153      1.0  0.37707  0.42568  0.95941  1.0000
  Fe  Fe78      1.0  0.33690  0.43983  0.90316  1.0000
  S   S154      1.0  0.36091  0.46216  0.88698  1.0000
  S   S155      1.0  0.30435  0.43360  0.89220  1.0000
  Fe  Fe79      1.0  0.38771  0.43844  0.89744  1.0000
  S   S156      1.0  0.41872  0.42957  0.88068  1.0000
  Fe  Fe80      1.0  0.36210  0.48021  0.91017  1.0000
  S   S157      1.0  0.35775  0.51823  0.90896  1.0000
  S   S158      1.0  0.36388  0.41442  0.91219  1.0000
  S   S159      1.0  0.33604  0.45976  0.92595  1.0000
  Fe  Fe81      1.0  0.43561  0.60589  0.92973  1.0000
  S   S160      1.0  0.41003  0.63424  0.93530  1.0000
  S   S161      1.0  0.43502  0.56828  0.93657  1.0000
  Fe  Fe82      1.0  0.47074  0.63775  0.91251  1.0000
  C   C375      1.0  0.25955  0.38152  0.86048  1.0000
  Fe  Fe83      1.0  0.43961  0.65171  0.94258  1.0000
  C   C376      1.0  0.36159  0.43267  0.97843  1.0000
  S   S162      1.0  0.46414  0.62213  0.93914  1.0000
  S   S163      1.0  0.44419  0.61903  0.90275  1.0000
  S   S164      1.0  0.48632  0.36465  0.92121  1.0000
  H   H599      1.0  0.32630  0.50880  0.95820  1.0000
  H   H600      1.0  0.49659  0.52561  0.91524  1.0000
  Fe  Fe84      1.0  0.42102  0.64901  0.90866  1.0000
  Fe  Fe85      1.0  0.23890  0.39448  0.79142  1.0000
  H   H601      1.0  0.39110  0.42972  0.99224  1.0000
  S   S165      1.0  0.21921  0.36526  0.80543  1.0000
  Fe  Fe86      1.0  0.28146  0.41848  0.79662  1.0000
  S   S166      1.0  0.28466  0.43554  0.76994  1.0000
  S   S167      1.0  0.30963  0.42025  0.81362  1.0000
  Fe  Fe87      1.0  0.24724  0.44262  0.77447  1.0000
  H   H602      1.0  0.43849  0.36424  0.91986  1.0000
  C   C377      1.0  0.49282  0.35562  0.86557  1.0000
  C   C378      1.0  0.25861  0.50772  0.77097  1.0000
  S   S168      1.0  0.24445  0.42758  0.80184  1.0000
  S   S169      1.0  0.27599  0.38460  0.78804  1.0000
  H   H603      1.0  0.18280  0.38528  0.78568  1.0000
  C   C379      1.0  0.35089  0.49796  0.98480  1.0000
  H   H604      1.0  0.26705  0.49420  0.77846  1.0000
  H   H605      1.0  0.50515  0.65536  0.98454  1.0000
  C   C380      1.0  0.24012  0.50311  0.76260  1.0000
  C   C381      1.0  0.49109  0.65264  0.99470  1.0000
  H   H606      1.0  0.25849  0.39011  0.82680  1.0000
  H   H607      1.0  0.44393  0.65976  0.87126  1.0000
  H   H608      1.0  0.48717  0.36113  0.85283  1.0000
  C   C382      1.0  0.46116  0.65538  0.86534  1.0000
  H   H609      1.0  0.45918  0.64488  0.85484  1.0000
  H   H610      1.0  0.38129  0.47735  0.96316  1.0000
  H   H611      1.0  0.42525  0.40380  0.93957  1.0000
  C   C383      1.0  0.43596  0.39843  0.95010  1.0000
  C   C384      1.0  0.33823  0.43725  0.97950  1.0000
  H   H612      1.0  0.47536  0.43766  0.93946  1.0000
  H   H613      1.0  0.25039  0.39786  0.85678  1.0000
  S   S170      1.0  0.44229  0.67136  0.96514  1.0000
  H   H614      1.0  0.45353  0.40384  0.97915  1.0000
  H   H615      1.0  0.44645  0.38312  0.94666  1.0000
  C   C385      1.0  0.17876  0.36819  0.79044  1.0000
  C   C386      1.0  0.43550  0.43654  0.95798  1.0000
  H   H616      1.0  0.38428  0.52867  0.95504  1.0000
  C   C387      1.0  0.30579  0.43037  0.87029  1.0000
  C   C388      1.0  0.28595  0.43236  0.86196  1.0000
  C   C389      1.0  0.28677  0.42962  0.84451  1.0000
  C   C390      1.0  0.30744  0.42469  0.83535  1.0000
  C   C391      1.0  0.32723  0.42303  0.84366  1.0000
  C   C392      1.0  0.32645  0.42588  0.86102  1.0000
  H   H617      1.0  0.26992  0.43602  0.86904  1.0000
  H   H618      1.0  0.27147  0.43126  0.83816  1.0000
  H   H619      1.0  0.34330  0.41929  0.83664  1.0000
  H   H620      1.0  0.34183  0.42424  0.86728  1.0000
  C   C393      1.0  0.43738  0.41101  0.89153  1.0000
  C   C394      1.0  0.46051  0.41430  0.88897  1.0000
  C   C395      1.0  0.47560  0.40010  0.89804  1.0000
  C   C396      1.0  0.46776  0.38205  0.90921  1.0000
  C   C397      1.0  0.44468  0.37829  0.91132  1.0000
  C   C398      1.0  0.42942  0.39305  0.90277  1.0000
  H   H621      1.0  0.46666  0.42825  0.88033  1.0000
  H   H622      1.0  0.49321  0.40330  0.89636  1.0000
  C   C399      1.0  0.25517  0.54773  0.76016  1.0000
  H   H623      1.0  0.41155  0.39033  0.90464  1.0000
  C   C400      1.0  0.38006  0.53240  0.91538  1.0000
  C   C401      1.0  0.37764  0.55579  0.91660  1.0000
  C   C402      1.0  0.39474  0.56714  0.92263  1.0000
  C   C403      1.0  0.41414  0.55502  0.92773  1.0000
  C   C404      1.0  0.41666  0.53171  0.92634  1.0000
  C   C405      1.0  0.39981  0.52052  0.91998  1.0000
  H   H624      1.0  0.36247  0.56516  0.91296  1.0000
  H   H625      1.0  0.39272  0.58518  0.92364  1.0000
  H   H626      1.0  0.43172  0.52230  0.93013  1.0000
  H   H627      1.0  0.40218  0.50270  0.91867  1.0000
  H   H628      1.0  0.32919  0.43651  0.96847  1.0000
  H   H629      1.0  0.33404  0.53419  0.96622  1.0000
  H   H630      1.0  0.49209  0.60731  0.99776  1.0000
  C   C406      1.0  0.34062  0.51962  0.95911  1.0000
  C   C407      1.0  0.19388  0.35472  0.79996  1.0000
  N   N37       1.0  0.35914  0.50665  0.96737  1.0000
  H   H631      1.0  0.41715  0.63153  0.97708  1.0000
  C   C408      1.0  0.26755  0.37403  0.83121  1.0000
  S   S171      1.0  0.44845  0.66884  0.91636  1.0000
  C   C409      1.0  0.42001  0.64028  0.98789  1.0000
  H   H632      1.0  0.22409  0.37608  0.84259  1.0000
  H   H633      1.0  0.46091  0.67945  0.83467  1.0000
  H   H634      1.0  0.47483  0.53689  0.92982  1.0000
  H   H635      1.0  0.35698  0.65371  0.76506  1.0000
  H   H636      1.0  0.42396  0.43213  0.96956  1.0000
  H   H637      1.0  0.47697  0.40902  0.93433  1.0000
  H   H638      1.0  0.49932  0.52176  0.93761  1.0000
  C   C410      1.0  0.26590  0.52997  0.76990  1.0000
  H   H639      1.0  0.25233  0.37528  0.87341  1.0000
  H   H640      1.0  0.44555  0.45075  0.96052  1.0000
  N   N38       1.0  0.45016  0.41678  0.95327  1.0000
  S   S172      1.0  0.50512  0.63802  0.89797  1.0000
  C   C411      1.0  0.49344  0.53395  0.92723  1.0000
  H   H641      1.0  0.26630  0.36195  0.82157  1.0000
  H   H642      1.0  0.38365  0.67328  0.85525  1.0000
  H   H643      1.0  0.14607  0.37077  0.78079  1.0000
  C   C412      1.0  0.49661  0.66918  0.85239  1.0000
  H   H644      1.0  0.36422  0.48740  0.99120  1.0000
  H   H645      1.0  0.27998  0.53344  0.77665  1.0000
  H   H646      1.0  0.07529  0.67881  0.75780  1.0000
  H   H647      1.0  0.42465  0.44277  0.94771  1.0000
  H   H648      1.0  0.45507  0.42830  0.92672  1.0000
  H   H649      1.0  0.35343  0.47574  0.95701  1.0000
  H   H650      1.0  0.32573  0.38401  0.76209  1.0000
  C   C413      1.0  0.43153  0.66027  0.98547  1.0000
  H   H651      1.0  0.37298  0.49336  0.94420  1.0000
  H   H652      1.0  0.48490  0.66951  0.99868  1.0000
  H   H653      1.0  0.47713  0.64571  0.98883  1.0000
  C   C414      1.0  0.34771  0.66845  0.75969  1.0000
  H   H654      1.0  0.34637  0.52647  0.94594  1.0000
  C   C415      1.0  0.37308  0.43339  0.99289  1.0000
  H   H655      1.0  0.42427  0.39337  0.96146  1.0000
  H   H656      1.0  0.50655  0.55472  0.95293  1.0000
  N   N39       1.0  0.31319  0.50301  0.86220  1.0000
  C   C416      1.0  0.32324  0.48570  0.85118  1.0000
  C   C417      1.0  0.33105  0.51709  0.86644  1.0000
  C   C418      1.0  0.30208  0.49180  0.87798  1.0000
  C   C419      1.0  0.29631  0.51748  0.85318  1.0000
  H   H657      1.0  0.33577  0.47416  0.85763  1.0000
  H   H658      1.0  0.33204  0.49349  0.83924  1.0000
  H   H659      1.0  0.31019  0.47492  0.84761  1.0000
  H   H660      1.0  0.32414  0.53009  0.87498  1.0000
  H   H661      1.0  0.34418  0.50672  0.87317  1.0000
  H   H662      1.0  0.33974  0.52599  0.85488  1.0000
  H   H663      1.0  0.29392  0.50429  0.88648  1.0000
  H   H664      1.0  0.31439  0.48112  0.88529  1.0000
  H   H665      1.0  0.28895  0.48046  0.87530  1.0000
  H   H666      1.0  0.30408  0.52611  0.84114  1.0000
  H   H667      1.0  0.28841  0.53082  0.86107  1.0000
  H   H668      1.0  0.28255  0.50736  0.84989  1.0000
  Fe  Fe88      1.0  0.27585  0.40223  0.76200  1.0000
  C   C420      1.0  0.46499  0.42328  0.93776  1.0000
  H   H669      1.0  0.33630  0.48717  0.98482  1.0000
  C   C421      1.0  0.32643  0.44198  0.99508  1.0000
  N   N40       1.0  0.25781  0.36492  0.84812  1.0000
  S   S173      1.0  0.39757  0.66045  0.88838  1.0000
  H   H670      1.0  0.30830  0.44503  0.99596  1.0000
  S   S174      1.0  0.23844  0.41018  0.76462  1.0000
  C   C422      1.0  0.46416  0.40881  0.96721  1.0000
  H   H671      1.0  0.27747  0.38518  0.86138  1.0000
  H   H672      1.0  0.47528  0.42213  0.96986  1.0000
  H   H673      1.0  0.50860  0.58220  0.94156  1.0000
  C   C423      1.0  0.15790  0.35991  0.78773  1.0000
  H   H674      1.0  0.47015  0.64461  0.87503  1.0000
  H   H675      1.0  0.47529  0.39377  0.96403  1.0000
  S   S175      1.0  0.23006  0.47550  0.76359  1.0000
  C   C424      1.0  0.37792  0.52154  0.96797  1.0000
  H   H676      1.0  0.28565  0.37769  0.83118  1.0000
  C   C425      1.0  0.43512  0.67152  0.99957  1.0000
  H   H677      1.0  0.47815  0.57482  0.91432  1.0000
  H   H678      1.0  0.48186  0.56948  0.94515  1.0000
  H   H679      1.0  0.36118  0.36023  0.76416  1.0000
  H   H680      1.0  0.39237  0.51223  0.97384  1.0000
  N   N41       1.0  0.47349  0.67587  0.85927  1.0000
  H   H681      1.0  0.37257  0.53612  0.97544  1.0000
  C   C426      1.0  0.36711  0.48746  0.95751  1.0000
  C   C427      1.0  0.34986  0.35722  0.75492  1.0000
  H   H682      1.0  0.50608  0.65931  0.86232  1.0000
  C   C428      1.0  0.49668  0.57099  0.91210  1.0000
  C   C429      1.0  0.23384  0.36052  0.84730  1.0000
  H   H683      1.0  0.49640  0.65840  0.84177  1.0000
  C   C430      1.0  0.50030  0.56587  0.94215  1.0000
  H   H684      1.0  0.34527  0.51194  0.99280  1.0000
  C   C431      1.0  0.32980  0.37072  0.75378  1.0000
  S   S176      1.0  0.26515  0.57541  0.75912  1.0000
  H   H685      1.0  0.49999  0.56375  0.89969  1.0000
  H   H686      1.0  0.50694  0.63888  0.93391  1.0000
  H   H687      1.0  0.48397  0.36711  0.87460  1.0000
  H   H688      1.0  0.22561  0.35429  0.85990  1.0000
  N   N42       1.0  0.50503  0.55538  0.92602  1.0000
  H   H689      1.0  0.50494  0.58740  0.91089  1.0000
  H   H690      1.0  0.48363  0.68017  0.88388  1.0000
  C   C432      1.0  0.22925  0.52092  0.75299  1.0000
  H   H691      1.0  0.06450  0.79053  0.24362  1.0000
  Fe  Fe89      1.0  0.12066  0.93337  0.08906  1.0000
  S   S177      1.0  0.15845  0.92968  0.08481  1.0000
  S   S178      1.0  0.09866  0.90370  0.09498  1.0000
  Fe  Fe90      1.0  0.11948  0.98422  0.08081  1.0000
  S   S179      1.0  0.15702  0.98505  0.07527  1.0000
  Fe  Fe91      1.0  0.15397  0.95407  0.06166  1.0000
  S   S180      1.0  0.16883  0.94485  0.03581  1.0000
  Fe  Fe92      1.0  0.15812  0.96068  0.09895  1.0000
  S   S181      1.0  0.17836  0.96981  0.11988  1.0000
  S   S182      1.0  0.11639  0.95567  0.06520  1.0000
  S   S183      1.0  0.12048  0.96207  0.10514  1.0000
  C   C433      1.0  0.02844  0.92262  0.07831  1.0000
  S   S184      1.0  0.25519  0.97983  0.22351  1.0000
  H   H692      1.0  0.13175  0.98407  0.13399  1.0000
  Fe  Fe93      1.0  0.43589  0.74662  0.22925  1.0000
  S   S185      1.0  0.42974  0.75800  0.20206  1.0000
  H   H693      1.0  0.10038  0.79392  0.19443  1.0000
  Fe  Fe94      1.0  0.38694  0.73250  0.23775  1.0000
  S   S186      1.0  0.37681  0.74253  0.21154  1.0000
  H   H694      1.0  0.14658  0.00816  0.10827  1.0000
  Fe  Fe95      1.0  0.41051  0.72651  0.20217  1.0000
  S   S187      1.0  0.41640  0.69702  0.18568  1.0000
  Fe  Fe96      1.0  0.39621  0.77351  0.21307  1.0000
  S   S188      1.0  0.38272  0.80894  0.20363  1.0000
  S   S189      1.0  0.41874  0.71419  0.22849  1.0000
  H   H695      1.0  0.12025  0.93117  0.03400  1.0000
  Fe  Fe97      1.0  0.27011  0.89129  0.22446  1.0000
  H   H696      1.0  0.47560  0.78592  0.24527  1.0000
  S   S190      1.0  0.29183  0.86001  0.23319  1.0000
  Fe  Fe98      1.0  0.23790  0.91052  0.19802  1.0000
  S   S191      1.0  0.21857  0.93348  0.21566  1.0000
  S   S192      1.0  0.22990  0.90213  0.17211  1.0000
  Fe  Fe99      1.0  0.25267  0.94163  0.22273  1.0000
  H   H697      1.0  0.08699  0.80955  0.23839  1.0000
  Fe  Fe100     1.0  0.22076  0.90437  0.23566  1.0000
  C   C434      1.0  0.29507  0.89339  0.16495  1.0000
  S   S193      1.0  0.27219  0.92003  0.20360  1.0000
  S   S194      1.0  0.23707  0.88062  0.21761  1.0000
  H   H698      1.0  0.11267  0.77763  0.23027  1.0000
  C   C435      1.0  0.28131  0.86283  0.18477  1.0000
  H   H699      1.0  0.28738  0.86563  0.14174  1.0000
  H   H700      1.0  0.18880  0.96268  0.23849  1.0000
  H   H701      1.0  0.05441  0.76611  0.22261  1.0000
  S   S195      1.0  0.09268  0.01227  0.07962  1.0000
  C   C436      1.0  0.18122  0.96227  0.25187  1.0000
  H   H702      1.0  0.15077  0.99561  0.14631  1.0000
  H   H703      1.0  0.14869  0.89102  0.04912  1.0000
  C   C437      1.0  0.35729  0.82283  0.21190  1.0000
  C   C438      1.0  0.34293  0.81245  0.22497  1.0000
  C   C439      1.0  0.32299  0.82409  0.23123  1.0000
  C   C440      1.0  0.31704  0.84618  0.22447  1.0000
  C   C441      1.0  0.33138  0.85659  0.21141  1.0000
  C   C442      1.0  0.35136  0.84495  0.20515  1.0000
  H   H704      1.0  0.34729  0.79549  0.23031  1.0000
  H   H705      1.0  0.01805  0.72662  0.24386  1.0000
  H   H706      1.0  0.32742  0.87379  0.20641  1.0000
  H   H707      1.0  0.49807  0.69383  0.08859  1.0000
  N   N43       1.0  0.29279  0.86866  0.16771  1.0000
  C   C443      1.0  0.14099  0.97710  0.01970  1.0000
  C   C444      1.0  0.17755  0.86379  0.23797  1.0000
  H   H708      1.0  0.16563  0.83848  0.22394  1.0000
  H   H709      1.0  0.18774  0.87144  0.22716  1.0000
  H   H710      1.0  0.06070  0.81515  0.22910  1.0000
  H   H711      1.0  0.06912  0.76763  0.20178  1.0000
  H   H712      1.0  0.25114  0.71186  0.23614  1.0000
  H   H713      1.0  0.05023  0.79072  0.20811  1.0000
  H   H714      1.0  0.29292  0.71206  0.23384  1.0000
  H   H715      1.0  0.02231  0.88724  0.08391  1.0000
  C   C445      1.0  0.41635  0.71542  0.15212  1.0000
  C   C446      1.0  0.16498  0.84512  0.23615  1.0000
  S   S196      1.0  0.40408  0.76449  0.24007  1.0000
  H   H716      1.0  0.16513  0.97277  0.25196  1.0000
  H   H717      1.0  0.30508  0.89945  0.17451  1.0000
  H   H718      1.0  0.41345  0.73181  0.15696  1.0000
  H   H719      1.0  0.31218  0.81590  0.24142  1.0000
  C   C447      1.0  0.42158  0.69236  0.12804  1.0000
  C   C448      1.0  0.09838  0.77032  0.22504  1.0000
  S   S197      1.0  0.46845  0.73786  0.24231  1.0000
  C   C449      1.0  0.41836  0.69600  0.16341  1.0000
  C   C450      1.0  0.19155  0.95040  0.13470  1.0000
  C   C451      1.0  0.19973  0.95860  0.14876  1.0000
  C   C452      1.0  0.21096  0.94393  0.16057  1.0000
  C   C453      1.0  0.21444  0.92093  0.15826  1.0000
  C   C454      1.0  0.20620  0.91272  0.14423  1.0000
  C   C455      1.0  0.19462  0.92733  0.13257  1.0000
  H   H720      1.0  0.19758  0.97644  0.15045  1.0000
  H   H721      1.0  0.21735  0.95050  0.17125  1.0000
  H   H722      1.0  0.20881  0.89496  0.14233  1.0000
  H   H723      1.0  0.18846  0.92082  0.12178  1.0000
  C   C456      1.0  0.15587  0.95816  0.01814  1.0000
  H   H724      1.0  0.28006  0.84423  0.18762  1.0000
  H   H725      1.0  0.08691  0.88791  0.06032  1.0000
  H   H726      1.0  0.13761  0.98407  0.03180  1.0000
  H   H727      1.0  0.26212  0.87015  0.15547  1.0000
  C   C457      1.0  0.03411  0.90023  0.08417  1.0000
  C   C458      1.0  0.05540  0.89453  0.09001  1.0000
  C   C459      1.0  0.07089  0.91127  0.09018  1.0000
  C   C460      1.0  0.06472  0.93377  0.08507  1.0000
  C   C461      1.0  0.04372  0.93937  0.07890  1.0000
  C   C462      1.0  0.48989  0.75212  0.25035  1.0000
  H   H728      1.0  0.06001  0.87712  0.09408  1.0000
  H   H729      1.0  0.07619  0.94692  0.08570  1.0000
  H   H730      1.0  0.03942  0.95675  0.07450  1.0000
  C   C463      1.0  0.06314  0.77774  0.21253  1.0000
  H   H731      1.0  0.09030  0.75851  0.23528  1.0000
  H   H732      1.0  0.08156  0.81715  0.20051  1.0000
  N   N44       1.0  0.08201  0.78822  0.21897  1.0000
  H   H733      1.0  0.26388  0.87065  0.18593  1.0000
  C   C464      1.0  0.29233  0.70750  0.24777  1.0000
  H   H734      1.0  0.30354  0.89846  0.15216  1.0000
  C   C465      1.0  0.13372  0.99836  0.14164  1.0000
  S   S198      1.0  0.13606  0.81162  0.24706  1.0000
  H   H735      1.0  0.10769  0.81144  0.20998  1.0000
  C   C466      1.0  0.13084  0.98741  0.00548  1.0000
  N   N45       1.0  0.11475  0.89619  0.04188  1.0000
  C   C467      1.0  0.11531  0.87455  0.03418  1.0000
  C   C468      1.0  0.13112  0.89443  0.05477  1.0000
  C   C469      1.0  0.09184  0.90120  0.04998  1.0000
  C   C470      1.0  0.12076  0.91456  0.02861  1.0000
  C   C471      1.0  0.31542  0.85697  0.16636  1.0000
  H   H736      1.0  0.27702  0.84295  0.15659  1.0000
  H   H737      1.0  0.11083  0.86038  0.04392  1.0000
  H   H738      1.0  0.32446  0.86068  0.15356  1.0000
  H   H739      1.0  0.10560  0.76004  0.21469  1.0000
  H   H740      1.0  0.22015  0.85113  0.24857  1.0000
  H   H741      1.0  0.13108  0.91039  0.06087  1.0000
  H   H742      1.0  0.29043  0.86885  0.19485  1.0000
  H   H743      1.0  0.21036  0.99486  0.24331  1.0000
  C   C472      1.0  0.25860  0.99777  0.23962  1.0000
  H   H744      1.0  0.47229  0.70075  0.11414  1.0000
  S   S199      1.0  0.42403  0.69090  0.10579  1.0000
  H   H745      1.0  0.13241  0.87032  0.02799  1.0000
  H   H746      1.0  0.32614  0.86231  0.17576  1.0000
  H   H747      1.0  0.41632  0.72868  0.12586  1.0000
  H   H748      1.0  0.10317  0.87528  0.02438  1.0000
  C   C473      1.0  0.41797  0.71358  0.13451  1.0000
  H   H749      1.0  0.09085  0.91751  0.05581  1.0000
  H   H750      1.0  0.24823  0.84052  0.24241  1.0000
  H   H751      1.0  0.36252  0.85322  0.19521  1.0000
  H   H752      1.0  0.11971  0.00232  0.00674  1.0000
  H   H753      1.0  0.31441  0.83828  0.16877  1.0000
  C   C474      1.0  0.09339  0.80335  0.20533  1.0000
  H   H754      1.0  0.27827  0.90273  0.16591  1.0000
  C   C475      1.0  0.07317  0.80149  0.23313  1.0000
  H   H755      1.0  0.07893  0.90252  0.04074  1.0000
  C   C476      1.0  0.27928  0.86148  0.15480  1.0000
  H   H756      1.0  0.12093  0.99694  0.15280  1.0000
  S   S200      1.0  0.25354  0.91371  0.24395  1.0000
  H   H757      1.0  0.12702  0.88091  0.06514  1.0000
  C   C477      1.0  0.48935  0.77565  0.25044  1.0000
  H   H758      1.0  0.22641  0.95617  0.24955  1.0000
  H   H759      1.0  0.13818  0.91165  0.02251  1.0000
  H   H760      1.0  0.36844  0.68882  0.23350  1.0000
  C   C478      1.0  0.25158  0.70806  0.25006  1.0000
  H   H761      1.0  0.22641  0.82125  0.24940  1.0000
  C   C479      1.0  0.15155  0.83503  0.25000  1.0000
  H   H762      1.0  0.10901  0.91633  0.01851  1.0000
  H   H763      1.0  0.30823  0.69743  0.25015  1.0000
  H   H764      1.0  0.10623  0.01003  0.11655  1.0000
  H   H765      1.0  0.51192  0.71288  0.11158  1.0000
  C   C480      1.0  0.47876  0.68433  0.12034  1.0000
  H   H766      1.0  0.47705  0.68562  0.13427  1.0000
  C   C481      1.0  0.23318  0.83760  0.25164  1.0000
  C   C482      1.0  0.16007  0.94928  0.00236  1.0000
  Fe  Fe101     1.0  0.03145  0.87385  0.42399  1.0000
  S   S201      1.0  0.05790  0.84883  0.43396  1.0000
  Fe  Fe102     1.0  0.06528  0.90721  0.40790  1.0000
  S   S202      1.0  0.09428  0.88492  0.41643  1.0000
  S   S203      1.0  0.07357  0.94045  0.39326  1.0000
  Fe  Fe103     1.0  0.07634  0.85653  0.40800  1.0000
  S   S204      1.0  0.09778  0.83133  0.39279  1.0000
  Fe  Fe104     1.0  0.07324  0.87955  0.44135  1.0000
  S   S205      1.0  0.08840  0.88649  0.46518  1.0000
  S   S206      1.0  0.04860  0.87938  0.39759  1.0000
  S   S207      1.0  0.04552  0.90392  0.43328  1.0000
  H   H767      1.0  0.27102  0.70542  0.27930  1.0000
  Fe  Fe105     1.0  0.12062  0.74928  0.29401  1.0000
  S   S208      1.0  0.11542  0.75496  0.26640  1.0000
  S   S209      1.0  0.14242  0.72199  0.30790  1.0000
  Fe  Fe106     1.0  0.08788  0.78869  0.30286  1.0000
  S   S210      1.0  0.08040  0.79794  0.27582  1.0000
  S   S211      1.0  0.06657  0.80641  0.32324  1.0000
  Fe  Fe107     1.0  0.07831  0.76078  0.27432  1.0000
  C   C483      1.0  0.27188  0.68967  0.27279  1.0000
  Fe  Fe108     1.0  0.11769  0.79190  0.26952  1.0000
  C   C484      1.0  0.15065  0.84386  0.26571  1.0000
  S   S212      1.0  0.08322  0.75169  0.30185  1.0000
  S   S213      1.0  0.12555  0.78603  0.29673  1.0000
  H   H768      1.0  0.27252  0.82363  0.26379  1.0000
  H   H769      1.0  0.41635  0.70577  0.30754  1.0000
  S   S214      1.0  0.36507  0.71819  0.26075  1.0000
  H   H770      1.0  0.12438  0.95756  0.41397  1.0000
  C   C485      1.0  0.26915  0.00463  0.26739  1.0000
  H   H771      1.0  0.16219  0.86953  0.27965  1.0000
  H   H772      1.0  0.14020  0.83632  0.27643  1.0000
  H   H773      1.0  0.38632  0.72828  0.29283  1.0000
  H   H774      1.0  0.04738  0.86350  0.47813  1.0000
  H   H775      1.0  0.11363  0.74952  0.37674  1.0000
  H   H776      1.0  0.12803  0.72393  0.37019  1.0000
  H   H777      1.0  0.18896  0.69318  0.25896  1.0000
  H   H778      1.0  0.07941  0.75984  0.34021  1.0000
  H   H779      1.0  0.09886  0.72360  0.33115  1.0000
  H   H780      1.0  0.39690  0.75376  0.29885  1.0000
  H   H781      1.0  0.12635  0.76907  0.34917  1.0000
  C   C486      1.0  0.08938  0.82576  0.37301  1.0000
  C   C487      1.0  0.06694  0.82952  0.36939  1.0000
  C   C488      1.0  0.06034  0.82381  0.35396  1.0000
  C   C489      1.0  0.07613  0.81459  0.34191  1.0000
  C   C490      1.0  0.09872  0.81137  0.34529  1.0000
  C   C491      1.0  0.10525  0.81661  0.36092  1.0000
  H   H782      1.0  0.05455  0.83638  0.37863  1.0000
  H   H783      1.0  0.04285  0.82641  0.35141  1.0000
  H   H784      1.0  0.11107  0.80479  0.33589  1.0000
  H   H785      1.0  0.12268  0.81386  0.36360  1.0000
  C   C492      1.0  0.07358  0.96335  0.40553  1.0000
  C   C493      1.0  0.08842  0.98061  0.40040  1.0000
  H   H786      1.0  0.43418  0.75852  0.26896  1.0000
  C   C494      1.0  0.07652  0.99854  0.42609  1.0000
  C   C495      1.0  0.06080  0.98197  0.43080  1.0000
  C   C496      1.0  0.05951  0.96425  0.42062  1.0000
  H   H787      1.0  0.09914  0.98010  0.38863  1.0000
  C   C497      1.0  0.20251  0.99390  0.25665  1.0000
  H   H788      1.0  0.05006  0.98250  0.44254  1.0000
  H   H789      1.0  0.04753  0.95142  0.42436  1.0000
  C   C498      1.0  0.07270  0.88400  0.48525  1.0000
  H   H790      1.0  0.20475  0.84599  0.27897  1.0000
  C   C499      1.0  0.05309  0.87188  0.48826  1.0000
  C   C500      1.0  0.01986  0.92137  0.47845  1.0000
  N   N46       1.0  0.12798  0.93603  0.43697  1.0000
  C   C501      1.0  0.12953  0.93980  0.41826  1.0000
  C   C502      1.0  0.10424  0.93943  0.44390  1.0000
  C   C503      1.0  0.14182  0.95231  0.44359  1.0000
  C   C504      1.0  0.13627  0.91268  0.44215  1.0000
  H   H791      1.0  0.11830  0.92873  0.41279  1.0000
  H   H792      1.0  0.13500  0.90917  0.45621  1.0000
  C   C505      1.0  0.01840  0.77855  0.25803  1.0000
  H   H793      1.0  0.02873  0.78873  0.26436  1.0000
  H   H794      1.0  0.10219  0.93554  0.45791  1.0000
  H   H795      1.0  0.09787  0.95718  0.44098  1.0000
  H   H796      1.0  0.13588  0.97012  0.43996  1.0000
  H   H797      1.0  0.15984  0.95036  0.43853  1.0000
  H   H798      1.0  0.14102  0.94994  0.45768  1.0000
  H   H799      1.0  0.15415  0.90942  0.43720  1.0000
  H   H800      1.0  0.12612  0.90001  0.43741  1.0000
  C   C506      1.0  0.39876  0.74152  0.28907  1.0000
  S   S215      1.0  0.19327  0.89533  0.25648  1.0000
  C   C507      1.0  0.16856  0.70608  0.28017  1.0000
  H   H801      1.0  0.26176  0.86440  0.26305  1.0000
  H   H802      1.0  0.09861  0.72408  0.37783  1.0000
  C   C508      1.0  0.18538  0.69159  0.27260  1.0000
  N   N47       1.0  0.10566  0.74032  0.35268  1.0000
  H   H803      1.0  0.14701  0.93638  0.41249  1.0000
  H   H804      1.0  0.43714  0.76231  0.29072  1.0000
  H   H805      1.0  0.25103  0.86078  0.28496  1.0000
  C   C509      1.0  0.21767  0.95573  0.26257  1.0000
  C   C510      1.0  0.16306  0.86272  0.26749  1.0000
  C   C511      1.0  0.08024  0.89438  0.49857  1.0000
  H   H806      1.0  0.09549  0.90360  0.49641  1.0000
  S   S216      1.0  0.05306  0.74504  0.25974  1.0000
  H   H807      1.0  0.11947  0.70902  0.34353  1.0000
  H   H808      1.0  0.44547  0.71158  0.30177  1.0000
  N   N48       1.0  0.19685  0.97050  0.26290  1.0000
  H   H809      1.0  0.03361  0.91771  0.46841  1.0000
  C   C512      1.0  0.26636  0.98956  0.25521  1.0000
  H   H810      1.0  0.19747  0.97612  0.28909  1.0000
  C   C513      1.0  0.21857  0.83282  0.28105  1.0000
  H   H811      1.0  0.22980  0.96119  0.27091  1.0000
  H   H812      1.0  0.26177  0.81977  0.28573  1.0000
  H   H813      1.0  0.50846  0.72088  0.25727  1.0000
  H   H814      1.0  0.33747  0.68968  0.28455  1.0000
  H   H815      1.0  0.27562  0.99816  0.27924  1.0000
  H   H816      1.0  0.11917  0.75913  0.32991  1.0000
  H   H817      1.0  0.29261  0.72339  0.25400  1.0000
  C   C514      1.0  0.10335  0.71954  0.34438  1.0000
  C   C515      1.0  0.08405  0.75396  0.35320  1.0000
  C   C516      1.0  0.12357  0.75365  0.34299  1.0000
  H   H818      1.0  0.18730  0.00569  0.25700  1.0000
  H   H819      1.0  0.13991  0.74356  0.34171  1.0000
  C   C517      1.0  0.25702  0.82022  0.27253  1.0000
  H   H820      1.0  0.09307  0.92825  0.43849  1.0000
  C   C518      1.0  0.24658  0.86011  0.27180  1.0000
  N   N49       1.0  0.27233  0.69462  0.25419  1.0000
  C   C519      1.0  0.42345  0.71525  0.27387  1.0000
  H   H821      1.0  0.44088  0.70771  0.27140  1.0000
  H   H822      1.0  0.01990  0.93966  0.48027  1.0000
  C   C520      1.0  0.16351  0.70409  0.29777  1.0000
  H   H823      1.0  0.09006  0.70893  0.35131  1.0000
  H   H824      1.0  0.08494  0.76934  0.35996  1.0000
  H   H825      1.0  0.06994  0.74419  0.35981  1.0000
  C   C521      1.0  0.09019  0.99799  0.41081  1.0000
  C   C522      1.0  0.35402  0.69178  0.25914  1.0000
  N   N50       1.0  0.23883  0.83766  0.26927  1.0000
  H   H826      1.0  0.17182  0.68579  0.32130  1.0000
  C   C523      1.0  0.42805  0.71948  0.30309  1.0000
  C   C524      1.0  0.43790  0.74950  0.28140  1.0000
  H   H827      1.0  0.18173  0.95249  0.28552  1.0000
  H   H828      1.0  0.45564  0.74246  0.27967  1.0000
  N   N51       1.0  0.42204  0.73146  0.28688  1.0000
  H   H829      1.0  0.39370  0.75066  0.27702  1.0000
  C   C525      1.0  0.11175  0.73416  0.37015  1.0000
  H   H830      1.0  0.42724  0.73123  0.31320  1.0000
  H   H831      1.0  0.15942  0.71869  0.27238  1.0000
  H   H832      1.0  0.21483  0.00044  0.26438  1.0000
  H   H833      1.0  0.23330  0.87370  0.26939  1.0000
  H   H834      1.0  0.41173  0.70133  0.27745  1.0000
  H   H835      1.0  0.25181  0.80309  0.27064  1.0000
  H   H836      1.0  0.22220  0.83244  0.29451  1.0000
  C   C526      1.0  0.50792  0.73911  0.25719  1.0000
  H   H837      1.0  0.10227  0.01082  0.40706  1.0000
  H   H838      1.0  0.17700  0.94443  0.25598  1.0000
  H   H839      1.0  0.41867  0.72381  0.26166  1.0000
  H   H840      1.0  0.27078  0.97172  0.25770  1.0000
  H   H841      1.0  0.17023  0.98088  0.28121  1.0000
  C   C527      1.0  0.18608  0.96998  0.28046  1.0000
  C   C528      1.0  0.17670  0.87262  0.25366  1.0000
  H   H842      1.0  0.21186  0.81626  0.27925  1.0000
  C   C529      1.0  0.02606  0.75659  0.25470  1.0000
  C   C530      1.0  0.17556  0.68751  0.30767  1.0000
  H   H843      1.0  0.02448  0.91175  0.49042  1.0000
  H   H844      1.0  0.21402  0.93779  0.26678  1.0000
  H   H845      1.0  0.14785  0.00195  0.49860  1.0000
  H   H846      1.0  0.23621  0.69876  0.25488  1.0000
  H   H847      1.0  0.25013  0.72436  0.25591  1.0000
  H   H848      1.0  0.50618  0.80418  0.25714  1.0000
  C   C531      1.0  0.50672  0.78595  0.25722  1.0000
  Fe  Fe109     1.0  0.08622  0.91950  0.57020  1.0000
  S   S217      1.0  0.07621  0.88342  0.57257  1.0000
  S   S218      1.0  0.12260  0.92503  0.56198  1.0000
  Fe  Fe110     1.0  0.03896  0.93822  0.57837  1.0000
  H   H849      1.0  0.02620  0.86057  0.50683  1.0000
  Fe  Fe111     1.0  0.05490  0.89291  0.59591  1.0000
  S   S219      1.0  0.04701  0.86984  0.62005  1.0000
  Fe  Fe112     1.0  0.04741  0.89729  0.55789  1.0000
  S   S220      1.0  0.03310  0.87915  0.53794  1.0000
  S   S221      1.0  0.06718  0.92808  0.59472  1.0000
  S   S222      1.0  0.05912  0.93261  0.55366  1.0000
  H   H850      1.0  0.10228  0.72299  0.72757  1.0000
  Fe  Fe113     1.0  0.10719  0.79752  0.69221  1.0000
  S   S223      1.0  0.08023  0.81403  0.70912  1.0000
  S   S224      1.0  0.11645  0.81199  0.66504  1.0000
  Fe  Fe114     1.0  0.12281  0.76420  0.72147  1.0000
  S   S225      1.0  0.14672  0.73692  0.73324  1.0000
  Fe  Fe115     1.0  0.07280  0.77892  0.72057  1.0000
  C   C532      1.0  0.05459  0.80011  0.57715  1.0000
  Fe  Fe116     1.0  0.10668  0.81286  0.72745  1.0000
  H   H851      1.0  0.49673  0.71211  0.56131  1.0000
  S   S226      1.0  0.09817  0.76205  0.70211  1.0000
  S   S227      1.0  0.13419  0.79817  0.70999  1.0000
  C   C533      1.0  0.16017  0.70782  0.70828  1.0000
  H   H852      1.0  0.02134  0.83259  0.57953  1.0000
  H   H853      1.0  0.14752  0.97698  0.53477  1.0000
  H   H854      1.0  0.41575  0.68932  0.72035  1.0000
  C   C534      1.0  0.07561  0.82648  0.58959  1.0000
  H   H855      1.0  0.40146  0.72854  0.72415  1.0000
  H   H856      1.0  0.04093  0.82457  0.61390  1.0000
  H   H857      1.0  0.22523  0.70756  0.73345  1.0000
  C   C535      1.0  0.03862  0.83777  0.58084  1.0000
  C   C536      1.0  0.17303  0.68915  0.70208  1.0000
  H   H858      1.0  0.17820  0.70418  0.74764  1.0000
  H   H859      1.0  0.10404  0.69342  0.72481  1.0000
  C   C537      1.0  0.17811  0.84201  0.74480  1.0000
  H   H860      1.0  0.19214  0.82965  0.74372  1.0000
  H   H861      1.0  0.04596  0.84442  0.56801  1.0000
  H   H862      1.0  0.12756  0.88580  0.74904  1.0000
  C   C538      1.0  0.09744  0.70614  0.73367  1.0000
  H   H863      1.0  0.07480  0.84097  0.59747  1.0000
  C   C539      1.0  0.31833  0.68467  0.74238  1.0000
  H   H864      1.0  0.47719  0.77360  0.72774  1.0000
  N   N52       1.0  0.24394  0.72086  0.71049  1.0000
  N   N53       1.0  0.27844  0.85773  0.74481  1.0000
  C   C540      1.0  0.24213  0.70563  0.72635  1.0000
  S   S228      1.0  0.11093  0.84516  0.73946  1.0000
  C   C541      1.0  0.16208  0.71346  0.72470  1.0000
  H   H865      1.0  0.06561  0.72706  0.71535  1.0000
  H   H866      1.0  0.14890  0.71787  0.70033  1.0000
  C   C542      1.0  0.06684  0.85490  0.63273  1.0000
  C   C543      1.0  0.08999  0.85394  0.62763  1.0000
  C   C544      1.0  0.10495  0.84058  0.63759  1.0000
  C   C545      1.0  0.09701  0.82847  0.65288  1.0000
  C   C546      1.0  0.07394  0.82981  0.65813  1.0000
  C   C547      1.0  0.05894  0.84281  0.64802  1.0000
  H   H867      1.0  0.09633  0.86327  0.61594  1.0000
  H   H868      1.0  0.12279  0.83966  0.63343  1.0000
  H   H869      1.0  0.06758  0.82053  0.66984  1.0000
  H   H870      1.0  0.04106  0.84344  0.65206  1.0000
  C   C548      1.0  0.13484  0.94861  0.56814  1.0000
  C   C549      1.0  0.12192  0.96691  0.57458  1.0000
  C   C550      1.0  0.13265  0.98612  0.57821  1.0000
  C   C551      1.0  0.15623  0.98664  0.57573  1.0000
  C   C552      1.0  0.16894  0.96815  0.56962  1.0000
  C   C553      1.0  0.15830  0.94935  0.56569  1.0000
  H   H871      1.0  0.10374  0.96640  0.57647  1.0000
  H   H872      1.0  0.26898  0.72935  0.68979  1.0000
  H   H873      1.0  0.18714  0.96847  0.56773  1.0000
  H   H874      1.0  0.16832  0.93527  0.56074  1.0000
  N   N54       1.0  0.07273  0.70549  0.73770  1.0000
  C   C554      1.0  0.04864  0.88084  0.51777  1.0000
  C   C555      1.0  0.22754  0.71488  0.69915  1.0000
  H   H875      1.0  0.07429  0.90101  0.52485  1.0000
  H   H876      1.0  0.27985  0.72294  0.71011  1.0000
  S   S229      1.0  0.03695  0.76685  0.72330  1.0000
  S   S230      1.0  0.09687  0.77912  0.74052  1.0000
  N   N55       1.0  0.05283  0.81879  0.58821  1.0000
  H   H877      1.0  0.08662  0.81285  0.59561  1.0000
  H   H878      1.0  0.25489  0.70903  0.73494  1.0000
  N   N56       1.0  0.14355  0.01153  0.52413  1.0000
  H   H879      1.0  0.17196  0.99532  0.51047  1.0000
  H   H880      1.0  0.05295  0.79668  0.61134  1.0000
  H   H881      1.0  0.45101  0.73632  0.72797  1.0000
  H   H882      1.0  0.04272  0.71068  0.72456  1.0000
  C   C556      1.0  0.50686  0.71159  0.52753  1.0000
  C   C557      1.0  0.16320  0.87923  0.75122  1.0000
  C   C558      1.0  0.15661  0.83634  0.74137  1.0000
  C   C559      1.0  0.48397  0.77116  0.73992  1.0000
  H   H883      1.0  0.08413  0.83219  0.57693  1.0000
  H   H884      1.0  0.27969  0.83015  0.72921  1.0000
  S   S231      1.0  0.17081  0.01003  0.57961  1.0000
  H   H885      1.0  0.27132  0.70062  0.69913  1.0000
  C   C560      1.0  0.14165  0.87352  0.74787  1.0000
  N   N57       1.0  0.12030  0.87481  0.68724  1.0000
  C   C561      1.0  0.12421  0.88187  0.66890  1.0000
  C   C562      1.0  0.13710  0.85656  0.69198  1.0000
  C   C563      1.0  0.09737  0.86648  0.69106  1.0000
  C   C564      1.0  0.12248  0.89421  0.69710  1.0000
  H   H886      1.0  0.11160  0.89536  0.66478  1.0000
  H   H887      1.0  0.12285  0.86739  0.66124  1.0000
  H   H888      1.0  0.14130  0.88841  0.66551  1.0000
  H   H889      1.0  0.13442  0.85057  0.70568  1.0000
  H   H890      1.0  0.13602  0.84166  0.68473  1.0000
  H   H891      1.0  0.15461  0.86227  0.68944  1.0000
  H   H892      1.0  0.09372  0.86128  0.70485  1.0000
  H   H893      1.0  0.09527  0.85158  0.68404  1.0000
  H   H894      1.0  0.08422  0.87964  0.68737  1.0000
  H   H895      1.0  0.11965  0.88919  0.71100  1.0000
  H   H896      1.0  0.46165  0.70796  0.72506  1.0000
  H   H897      1.0  0.13959  0.90096  0.69457  1.0000
  H   H898      1.0  0.10995  0.90826  0.69395  1.0000
  H   H899      1.0  0.15418  0.81969  0.73774  1.0000
  C   C565      1.0  0.32371  0.70633  0.74576  1.0000
  C   C566      1.0  0.50756  0.76929  0.74060  1.0000
  H   H900      1.0  0.44097  0.72151  0.71186  1.0000
  S   S232      1.0  0.29695  0.68235  0.72890  1.0000
  C   C567      1.0  0.06707  0.68287  0.74583  1.0000
  C   C568      1.0  0.26484  0.87304  0.73353  1.0000
  H   H901      1.0  0.06215  0.80570  0.56415  1.0000
  H   H902      1.0  0.23010  0.69681  0.69644  1.0000
  H   H903      1.0  0.31450  0.72108  0.74038  1.0000
  S   S233      1.0  0.02495  0.90383  0.58137  1.0000
  C   C569      1.0  0.44619  0.71942  0.72497  1.0000
  C   C570      1.0  0.13827  0.85202  0.74304  1.0000
  H   H904      1.0  0.02645  0.00796  0.59842  1.0000
  C   C571      1.0  0.15778  0.00796  0.50822  1.0000
  H   H905      1.0  0.03771  0.79380  0.57588  1.0000
  H   H906      1.0  0.06875  0.74002  0.74357  1.0000
  C   C572      1.0  0.42180  0.68828  0.73319  1.0000
  H   H907      1.0  0.06536  0.78557  0.58226  1.0000
  H   H908      1.0  0.22170  0.74680  0.72094  1.0000
  H   H909      1.0  0.10661  0.70286  0.74525  1.0000
  C   C573      1.0  0.23907  0.74448  0.71452  1.0000
  C   C574      1.0  0.40793  0.72654  0.73686  1.0000
  H   H910      1.0  0.27563  0.88213  0.72317  1.0000
  C   C575      1.0  0.17677  0.70012  0.73485  1.0000
  C   C576      1.0  0.29121  0.84055  0.73497  1.0000
  C   C577      1.0  0.04255  0.81081  0.60527  1.0000
  N   N58       1.0  0.42792  0.71063  0.73736  1.0000
  H   H911      1.0  0.48836  0.71207  0.53126  1.0000
  H   H912      1.0  0.25108  0.74943  0.72316  1.0000
  H   H913      1.0  0.41193  0.74363  0.73987  1.0000
  C   C578      1.0  0.04117  0.87020  0.50451  1.0000
  H   H914      1.0  0.17159  0.68500  0.68933  1.0000
  C   C579      1.0  0.13402  0.98994  0.53139  1.0000
  H   H915      1.0  0.02534  0.80486  0.60478  1.0000
  H   H916      1.0  0.24495  0.68758  0.72374  1.0000
  H   H917      1.0  0.50999  0.70293  0.51566  1.0000
  C   C580      1.0  0.26701  0.71843  0.70195  1.0000
  C   C581      1.0  0.06823  0.89291  0.51473  1.0000
  H   H918      1.0  0.24029  0.75646  0.70285  1.0000
  H   H919      1.0  0.17129  0.00730  0.53976  1.0000
  H   H920      1.0  0.12277  0.00036  0.58303  1.0000
  H   H921      1.0  0.12276  0.99222  0.54316  1.0000
  H   H922      1.0  0.30171  0.82879  0.74318  1.0000
  H   H923      1.0  0.12392  0.98281  0.52238  1.0000
  C   C582      1.0  0.06493  0.72276  0.74940  1.0000
  H   H924      1.0  0.06654  0.69738  0.71286  1.0000
  H   H925      1.0  0.03683  0.85210  0.58895  1.0000
  H   H926      1.0  0.25250  0.86365  0.72771  1.0000
  H   H927      1.0  0.22893  0.72543  0.68680  1.0000
  H   H928      1.0  0.23434  0.01049  0.68896  1.0000
  H   H929      1.0  0.30281  0.84855  0.72457  1.0000
  S   S234      1.0  0.01636  0.96993  0.57985  1.0000
  H   H930      1.0  0.39389  0.72059  0.74620  1.0000
  C   C583      1.0  0.06143  0.71024  0.72193  1.0000
  H   H931      1.0  0.20992  0.71736  0.70495  1.0000
  H   H932      1.0  0.30575  0.88025  0.74249  1.0000
  H   H933      1.0  0.25481  0.88598  0.74067  1.0000
  C   C584      1.0  0.01641  0.76707  0.74107  1.0000
  H   H934      1.0  0.51190  0.72933  0.52444  1.0000
  C   C585      1.0  0.18141  0.86332  0.75000  1.0000
  Fe  Fe117     1.0  0.10372  0.93283  0.93468  1.0000
  S   S235      1.0  0.13750  0.94642  0.93680  1.0000
  S   S236      1.0  0.10131  0.89549  0.94124  1.0000
  Fe  Fe118     1.0  0.08274  0.97858  0.92344  1.0000
  S   S237      1.0  0.11500  0.99568  0.92431  1.0000
  H   H935      1.0  0.33472  0.87666  0.79266  1.0000
  Fe  Fe119     1.0  0.13163  0.96581  0.91176  1.0000
  S   S238      1.0  0.16084  0.96922  0.89122  1.0000
  Fe  Fe120     1.0  0.11765  0.97462  0.94910  1.0000
  S   S239      1.0  0.12266  0.99270  0.97205  1.0000
  S   S240      1.0  0.09899  0.95035  0.90890  1.0000
  S   S241      1.0  0.08429  0.95933  0.94900  1.0000
  H   H936      1.0  0.14011  0.82706  0.79732  1.0000
  H   H937      1.0  0.06033  0.91473  0.92678  1.0000
  N   N59       1.0  0.14955  0.85980  0.80263  1.0000
  H   H938      1.0  0.09200  0.84954  0.94052  1.0000
  Fe  Fe121     1.0  0.36311  0.77594  0.78970  1.0000
  S   S242      1.0  0.37844  0.75930  0.76677  1.0000
  S   S243      1.0  0.32828  0.79448  0.79015  1.0000
  Fe  Fe122     1.0  0.39766  0.75182  0.81202  1.0000
  S   S244      1.0  0.41543  0.73305  0.79112  1.0000
  S   S245      1.0  0.40991  0.74973  0.83824  1.0000
  Fe  Fe123     1.0  0.41241  0.76587  0.77494  1.0000
  H   H939      1.0  0.12950  0.85034  0.78366  1.0000
  Fe  Fe124     1.0  0.38080  0.72743  0.78405  1.0000
  H   H940      1.0  0.46975  0.70524  0.84141  1.0000
  S   S246      1.0  0.39684  0.78569  0.79640  1.0000
  S   S247      1.0  0.36320  0.74314  0.80661  1.0000
  Fe  Fe125     1.0  0.20378  0.91397  0.80718  1.0000
  S   S248      1.0  0.19136  0.92446  0.78168  1.0000
  S   S249      1.0  0.17718  0.90778  0.82958  1.0000
  Fe  Fe126     1.0  0.25253  0.90737  0.79170  1.0000
  S   S250      1.0  0.28916  0.89605  0.79530  1.0000
  Fe  Fe127     1.0  0.22158  0.94599  0.77683  1.0000
  Fe  Fe128     1.0  0.21415  0.89633  0.77207  1.0000
  H   H941      1.0  0.12564  0.84674  0.82269  1.0000
  S   S251      1.0  0.23279  0.93701  0.80307  1.0000
  S   S252      1.0  0.22436  0.88387  0.79785  1.0000
  H   H942      1.0  0.16570  0.89592  0.75477  1.0000
  H   H943      1.0  0.11488  0.87013  0.80917  1.0000
  H   H944      1.0  0.17411  0.86252  0.82024  1.0000
  C   C586      1.0  0.31827  0.82271  0.79292  1.0000
  C   C587      1.0  0.33264  0.84055  0.79225  1.0000
  C   C588      1.0  0.32352  0.86287  0.79351  1.0000
  C   C589      1.0  0.30002  0.86757  0.79535  1.0000
  C   C590      1.0  0.28576  0.84961  0.79649  1.0000
  C   C591      1.0  0.29485  0.82734  0.79532  1.0000
  H   H945      1.0  0.26769  0.85289  0.79817  1.0000
  H   H946      1.0  0.28361  0.81361  0.79607  1.0000
  H   H947      1.0  0.18445  0.84815  0.80205  1.0000
  C   C592      1.0  0.14420  0.84386  0.79067  1.0000
  H   H948      1.0  0.14072  0.88856  0.78549  1.0000
  C   C593      1.0  0.33945  0.80246  0.86103  1.0000
  C   C594      1.0  0.40076  0.68562  0.87481  1.0000
  C   C595      1.0  0.15463  0.88181  0.79321  1.0000
  H   H949      1.0  0.12576  0.88098  0.90814  1.0000
  C   C596      1.0  0.46917  0.77036  0.75486  1.0000
  C   C597      1.0  0.16943  0.85070  0.81131  1.0000
  H   H950      1.0  0.15717  0.89474  0.80191  1.0000
  H   H951      1.0  0.13827  0.89699  0.88959  1.0000
  H   H952      1.0  0.35138  0.79016  0.82026  1.0000
  H   H953      1.0  0.13053  0.91022  0.90876  1.0000
  C   C598      1.0  0.40579  0.72511  0.85225  1.0000
  H   H954      1.0  0.27277  0.83356  0.76651  1.0000
  H   H955      1.0  0.35072  0.83726  0.79040  1.0000
  C   C599      1.0  0.14944  0.95925  0.98823  1.0000
  C   C600      1.0  0.26331  0.84635  0.75843  1.0000
  S   S253      1.0  0.37519  0.69302  0.77576  1.0000
  H   H956      1.0  0.16623  0.83416  0.81870  1.0000
  C   C601      1.0  0.34168  0.79778  0.83114  1.0000
  C   C602      1.0  0.16425  0.95336  0.87336  1.0000
  C   C603      1.0  0.18415  0.95488  0.86235  1.0000
  C   C604      1.0  0.18807  0.94150  0.84860  1.0000
  C   C605      1.0  0.17220  0.92624  0.84587  1.0000
  C   C606      1.0  0.15220  0.92485  0.85678  1.0000
  C   C607      1.0  0.14810  0.93856  0.87033  1.0000
  H   H957      1.0  0.19671  0.96634  0.86455  1.0000
  H   H958      1.0  0.20355  0.94273  0.84032  1.0000
  H   H959      1.0  0.13972  0.91327  0.85466  1.0000
  H   H960      1.0  0.13252  0.93760  0.87849  1.0000
  C   C608      1.0  0.13499  0.97854  0.98971  1.0000
  C   C609      1.0  0.47822  0.76743  0.77052  1.0000
  C   C610      1.0  0.13006  0.86299  0.81532  1.0000
  H   H961      1.0  0.33597  0.76023  0.85292  1.0000
  H   H962      1.0  0.15291  0.95243  0.97609  1.0000
  H   H963      1.0  0.33856  0.82123  0.85847  1.0000
  C   C611      1.0  0.04163  0.86218  0.92427  1.0000
  C   C612      1.0  0.04171  0.88585  0.92292  1.0000
  C   C613      1.0  0.06018  0.89647  0.92785  1.0000
  C   C614      1.0  0.07829  0.88332  0.93427  1.0000
  C   C615      1.0  0.07808  0.85975  0.93555  1.0000
  C   C616      1.0  0.05993  0.84924  0.93044  1.0000
  H   H964      1.0  0.45079  0.69652  0.75536  1.0000
  N   N60       1.0  0.16049  0.88832  0.90919  1.0000
  C   C617      1.0  0.16993  0.86779  0.90146  1.0000
  C   C618      1.0  0.17542  0.90717  0.90379  1.0000
  C   C619      1.0  0.15875  0.88394  0.92787  1.0000
  C   C620      1.0  0.13781  0.89436  0.90363  1.0000
  H   H965      1.0  0.15898  0.85329  0.90523  1.0000
  H   H966      1.0  0.18704  0.86273  0.90540  1.0000
  H   H967      1.0  0.17148  0.87063  0.88735  1.0000
  H   H968      1.0  0.16835  0.92324  0.90878  1.0000
  H   H969      1.0  0.19244  0.90364  0.90831  1.0000
  H   H970      1.0  0.17777  0.91043  0.88973  1.0000
  H   H971      1.0  0.17548  0.87920  0.93259  1.0000
  H   H972      1.0  0.14723  0.87011  0.93241  1.0000
  H   H973      1.0  0.15170  0.89913  0.93406  1.0000
  H   H974      1.0  0.48373  0.70540  0.86945  1.0000
  H   H975      1.0  0.42239  0.73770  0.87199  1.0000
  H   H976      1.0  0.17034  0.88035  0.78454  1.0000
  C   C621      1.0  0.37573  0.79950  0.84480  1.0000
  H   H977      1.0  0.13375  0.87496  0.82451  1.0000
  S   S254      1.0  0.24353  0.91835  0.76522  1.0000
  H   H978      1.0  0.38838  0.70787  0.83531  1.0000
  H   H979      1.0  0.05992  0.83096  0.93147  1.0000
  H   H980      1.0  0.04070  0.88655  0.97935  1.0000
  C   C622      1.0  0.41401  0.72362  0.86827  1.0000
  H   H981      1.0  0.34059  0.81642  0.82780  1.0000
  H   H982      1.0  0.03156  0.85811  0.98025  1.0000
  H   H983      1.0  0.41776  0.70294  0.89188  1.0000
  H   H984      1.0  0.38580  0.79225  0.83390  1.0000
  S   S255      1.0  0.43961  0.77377  0.75328  1.0000
  C   C623      1.0  0.46155  0.68913  0.84586  1.0000
  C   C624      1.0  0.35319  0.76678  0.85090  1.0000
  H   H985      1.0  0.15866  0.84110  0.78099  1.0000
  H   H986      1.0  0.46707  0.76687  0.78211  1.0000
  H   H987      1.0  0.32429  0.79171  0.83201  1.0000
  C   C625      1.0  0.41156  0.70390  0.87951  1.0000
  H   H988      1.0  0.34722  0.79813  0.87317  1.0000
  H   H989      1.0  0.38489  0.79424  0.85619  1.0000
  H   H990      1.0  0.37587  0.81823  0.84232  1.0000
  H   H991      1.0  0.50865  0.76437  0.78336  1.0000
  S   S256      1.0  0.21164  0.98068  0.76387  1.0000
  C   C626      1.0  0.39480  0.70692  0.84761  1.0000
  H   H992      1.0  0.32182  0.79691  0.86296  1.0000
  H   H993      1.0  0.44041  0.72494  0.75810  1.0000
  H   H994      1.0  0.04631  0.72288  0.75263  1.0000
  H   H995      1.0  0.36202  0.76136  0.86243  1.0000
  C   C627      1.0  0.03084  0.87512  0.97304  1.0000
  N   N61       1.0  0.35251  0.79163  0.84698  1.0000
  C   C628      1.0  0.02231  0.76784  0.75757  1.0000
  H   H996      1.0  0.36247  0.75807  0.84038  1.0000
  C   C629      1.0  0.43570  0.70836  0.75451  1.0000
  H   H997      1.0  0.25975  0.98971  0.76288  1.0000
  S   S257      1.0  0.20842  0.86910  0.75515  1.0000
  H   H998      1.0  0.03972  0.76958  0.75966  1.0000
  C   C630      1.0  0.22772  0.00407  0.75569  1.0000
  H   H999      1.0  0.25448  0.85871  0.76681  1.0000
  H   H1000     1.0  0.03966  0.87331  0.96022  1.0000
  S   S258      1.0  0.05041  0.99889  0.91864  1.0000
  C   C631      1.0  0.25095  0.00429  0.75684  1.0000
  C   C632      1.0  0.50182  0.76604  0.77119  1.0000
  H   H1001     1.0  0.50635  0.68423  0.84759  1.0000
  H   H1002     1.0  0.02772  0.89589  0.91791  1.0000
  H   H1003     1.0  0.44379  0.68714  0.99774  1.0000
  H   H1004     1.0  0.28538  0.88367  0.76032  1.0000
  H   H1005     1.0  0.01523  0.90580  0.94923  1.0000
  H   H1006     1.0  0.34464  0.72580  0.75884  1.0000
  H   H1007     1.0  0.17161  0.93467  0.00106  1.0000
  C   C633      1.0  0.35295  0.69011  0.76316  1.0000
  H   H1008     1.0  0.30525  0.85980  0.76065  1.0000
  H   H1009     1.0  0.42231  0.70183  0.76421  1.0000
  C   C634      1.0  0.34083  0.70905  0.75620  1.0000
  H   H1010     1.0  0.07317  0.71994  0.76141  1.0000
  C   C635      1.0  0.39219  0.68731  0.85891  1.0000
  C   C636      1.0  0.29439  0.87094  0.75236  1.0000
  H   H1011     1.0  0.25003  0.83749  0.75321  1.0000
  H   H1012     1.0  0.01622  0.91878  0.96852  1.0000
  S   S259      1.0  0.01904  0.84782  0.91875  1.0000
  C   C637      1.0  0.47467  0.68971  0.87355  1.0000
  H   H1013     1.0  0.44381  0.69360  0.85050  1.0000
  H   H1014     1.0  0.45756  0.69485  0.87919  1.0000
  H   H1015     1.0  0.97516  0.18639  0.22667  1.0000
  Fe  Fe129     1.0  0.88748  0.04577  0.09401  1.0000
  S   S260      1.0  0.85237  0.04491  0.08679  1.0000
  H   H1016     1.0  0.51790  0.30097  0.10090  1.0000
  Fe  Fe130     1.0  0.89226  0.09358  0.07773  1.0000
  S   S261      1.0  0.85717  0.09644  0.06942  1.0000
  S   S262      1.0  0.91373  0.12363  0.07240  1.0000
  Fe  Fe131     1.0  0.84742  0.07969  0.09556  1.0000
  S   S263      1.0  0.81615  0.08764  0.11309  1.0000
  Fe  Fe132     1.0  0.86592  0.06146  0.06154  1.0000
  S   S264      1.0  0.85806  0.04575  0.03822  1.0000
  S   S265      1.0  0.88185  0.07954  0.10432  1.0000
  S   S266      1.0  0.90175  0.05969  0.06821  1.0000
  C   C638      1.0  0.69018  0.21113  0.19733  1.0000
  H   H1017     1.0  0.86772  0.14329  0.07308  1.0000
  H   H1018     1.0  0.94582  0.19525  0.23006  1.0000
  C   C639      1.0  0.83557  0.02220  0.12756  1.0000
  H   H1019     1.0  0.71886  0.18691  0.19757  1.0000
  C   C640      1.0  0.96333  0.20089  0.22986  1.0000
  C   C641      1.0  0.69202  0.12242  0.21664  1.0000
  Fe  Fe133     1.0  0.59623  0.30784  0.20234  1.0000
  S   S267      1.0  0.58402  0.30908  0.23007  1.0000
  C   C642      1.0  0.53231  0.32563  0.13473  1.0000
  Fe  Fe134     1.0  0.62663  0.26520  0.20943  1.0000
  S   S268      1.0  0.65444  0.24271  0.19666  1.0000
  Fe  Fe135     1.0  0.62015  0.30053  0.23489  1.0000
  S   S269      1.0  0.59077  0.27072  0.20229  1.0000
  S   S270      1.0  0.63276  0.30249  0.20729  1.0000
  Fe  Fe136     1.0  0.79358  0.12982  0.20440  1.0000
  S   S271      1.0  0.80450  0.10404  0.22505  1.0000
  S   S272      1.0  0.81830  0.13528  0.18091  1.0000
  Fe  Fe137     1.0  0.75002  0.14471  0.22524  1.0000
  H   H1020     1.0  0.53345  0.34324  0.13800  1.0000
  S   S273      1.0  0.71780  0.16591  0.23274  1.0000
  Fe  Fe138     1.0  0.79318  0.13092  0.24247  1.0000
  H   H1021     1.0  0.89349  0.15342  0.10263  1.0000
  Fe  Fe139     1.0  0.76837  0.09453  0.22794  1.0000
  H   H1022     1.0  0.83928  0.12982  0.09646  1.0000
  S   S274      1.0  0.78500  0.15763  0.22179  1.0000
  S   S275      1.0  0.75787  0.11891  0.20615  1.0000
  H   H1023     1.0  0.87934  0.12826  0.10138  1.0000
  N   N62       1.0  0.84132  0.02944  0.14375  1.0000
  H   H1024     1.0  0.98955  0.28312  0.23461  1.0000
  C   C643      1.0  0.67157  0.22098  0.20678  1.0000
  C   C644      1.0  0.70464  0.19432  0.20500  1.0000
  C   C645      1.0  0.70054  0.18714  0.22224  1.0000
  C   C646      1.0  0.68190  0.19695  0.23166  1.0000
  C   C647      1.0  0.66751  0.21377  0.22401  1.0000
  H   H1025     1.0  0.84825  0.24018  0.24122  1.0000
  H   H1026     1.0  0.65317  0.22102  0.23143  1.0000
  H   H1027     1.0  0.82409  0.15652  0.09276  1.0000
  H   H1028     1.0  0.85337  0.17060  0.07051  1.0000
  C   C648      1.0  0.86595  0.16033  0.07783  1.0000
  S   S276      1.0  0.55209  0.25289  0.24586  1.0000
  H   H1029     1.0  0.96374  0.02559  0.08067  1.0000
  H   H1030     1.0  0.84335  0.15038  0.23845  1.0000
  N   N63       1.0  0.69912  0.27817  0.22417  1.0000
  C   C649      1.0  0.85643  0.18185  0.10194  1.0000
  H   H1031     1.0  0.72701  0.29878  0.22606  1.0000
  H   H1032     1.0  0.81199  0.05216  0.14614  1.0000
  H   H1033     1.0  0.70724  0.12238  0.24770  1.0000
  C   C650      1.0  0.83760  0.14757  0.09994  1.0000
  H   H1034     1.0  0.84316  0.19225  0.09540  1.0000
  H   H1035     1.0  0.67674  0.26927  0.24651  1.0000
  H   H1036     1.0  0.67832  0.13219  0.24802  1.0000
  H   H1037     1.0  0.87243  0.19081  0.09929  1.0000
  H   H1038     1.0  0.95403  0.24279  0.24033  1.0000
  H   H1039     1.0  0.82421  0.04383  0.16562  1.0000
  C   C651      1.0  0.58595  0.34001  0.16237  1.0000
  C   C652      1.0  0.60259  0.32742  0.15314  1.0000
  H   H1040     1.0  0.54914  0.31678  0.13615  1.0000
  H   H1041     1.0  0.84980  0.06231  0.13235  1.0000
  H   H1042     1.0  0.69974  0.31242  0.23046  1.0000
  H   H1043     1.0  0.71425  0.25064  0.23951  1.0000
  H   H1044     1.0  0.61282  0.31440  0.15970  1.0000
  C   C653      1.0  0.87683  0.14567  0.10537  1.0000
  H   H1045     1.0  0.67852  0.19147  0.24500  1.0000
  Fe  Fe140     1.0  0.58058  0.27177  0.23030  1.0000
  H   H1046     1.0  0.65198  0.11159  0.23283  1.0000
  H   H1047     1.0  0.72232  0.09255  0.23031  1.0000
  H   H1048     1.0  0.66148  0.08491  0.24313  1.0000
  S   S277      1.0  0.75781  0.11921  0.24705  1.0000
  C   C654      1.0  0.81732  0.09990  0.13232  1.0000
  C   C655      1.0  0.83717  0.10853  0.13638  1.0000
  C   C656      1.0  0.83726  0.11910  0.15140  1.0000
  C   C657      1.0  0.81774  0.12053  0.16276  1.0000
  C   C658      1.0  0.79810  0.11118  0.15900  1.0000
  C   C659      1.0  0.79785  0.10114  0.14373  1.0000
  H   H1049     1.0  0.85232  0.10747  0.12781  1.0000
  H   H1050     1.0  0.85252  0.12625  0.15428  1.0000
  H   H1051     1.0  0.78293  0.11233  0.16759  1.0000
  H   H1052     1.0  0.78242  0.09450  0.14070  1.0000
  C   C660      1.0  0.86175  0.06008  0.01771  1.0000
  C   C661      1.0  0.65986  0.33126  0.25151  1.0000
  H   H1053     1.0  0.53865  0.33553  0.09176  1.0000
  C   C662      1.0  0.66510  0.09748  0.23201  1.0000
  H   H1054     1.0  0.86609  0.09272  0.02603  1.0000
  C   C663      1.0  0.98135  0.11121  0.09498  1.0000
  C   C664      1.0  0.96496  0.09506  0.09826  1.0000
  C   C665      1.0  0.94428  0.09867  0.09118  1.0000
  C   C666      1.0  0.93983  0.11861  0.08092  1.0000
  C   C667      1.0  0.95620  0.13477  0.07760  1.0000
  C   C668      1.0  0.97700  0.13102  0.08454  1.0000
  H   H1055     1.0  0.96829  0.07972  0.10632  1.0000
  H   H1056     1.0  0.93180  0.08607  0.09373  1.0000
  H   H1057     1.0  0.95285  0.15016  0.06961  1.0000
  H   H1058     1.0  0.98960  0.14348  0.08187  1.0000
  H   H1059     1.0  0.83151  0.14690  0.11365  1.0000
  H   H1060     1.0  0.68022  0.13764  0.21734  1.0000
  C   C669      1.0  0.60618  0.33193  0.13536  1.0000
  H   H1061     1.0  0.68665  0.30118  0.20422  1.0000
  N   N64       1.0  0.85919  0.15885  0.09627  1.0000
  C   C670      1.0  0.71301  0.25677  0.22595  1.0000
  C   C671      1.0  0.75248  0.01554  0.24489  1.0000
  S   S278      1.0  0.90178  0.01647  0.11041  1.0000
  H   H1062     1.0  0.65158  0.34318  0.22635  1.0000
  N   N65       1.0  0.52561  0.32532  0.11737  1.0000
  H   H1063     1.0  0.87817  0.17152  0.23793  1.0000
  C   C672      1.0  0.54326  0.33523  0.10499  1.0000
  C   C673      1.0  0.52313  0.26201  0.24773  1.0000
  H   H1064     1.0  0.71043  0.29154  0.24582  1.0000
  H   H1065     1.0  0.96573  0.21461  0.21935  1.0000
  N   N66       1.0  0.68797  0.10585  0.23160  1.0000
  H   H1066     1.0  0.86123  0.05439  0.15217  1.0000
  H   H1067     1.0  0.80822  0.02425  0.15644  1.0000
  S   S279      1.0  0.58109  0.33605  0.18471  1.0000
  C   C674      1.0  0.69738  0.28528  0.20600  1.0000
  H   H1068     1.0  0.87243  0.14426  0.11934  1.0000
  H   H1069     1.0  0.70433  0.07808  0.21883  1.0000
  S   S280      1.0  0.61605  0.26305  0.23729  1.0000
  C   C675      1.0  0.66281  0.34451  0.23602  1.0000
  H   H1070     1.0  0.71422  0.28822  0.19907  1.0000
  H   H1071     1.0  0.52696  0.29312  0.23174  1.0000
  H   H1072     1.0  0.61923  0.32228  0.12832  1.0000
  H   H1073     1.0  0.87326  0.04212  0.13336  1.0000
  S   S281      1.0  0.75803  0.05808  0.22869  1.0000
  C   C676      1.0  0.67633  0.27470  0.23276  1.0000
  H   H1074     1.0  0.70936  0.12856  0.21566  1.0000
  H   H1075     1.0  0.80985  0.25915  0.24229  1.0000
  H   H1076     1.0  0.69346  0.21656  0.18397  1.0000
  C   C677      1.0  0.86539  0.08323  0.01521  1.0000
  H   H1077     1.0  0.53882  0.29123  0.11507  1.0000
  H   H1078     1.0  0.85146  0.18129  0.11584  1.0000
  H   H1079     1.0  0.88263  0.16793  0.07465  1.0000
  C   C678      1.0  0.70960  0.29595  0.23197  1.0000
  S   S282      1.0  0.00696  0.10623  0.10423  1.0000
  H   H1080     1.0  0.93348  0.22335  0.24987  1.0000
  C   C679      1.0  0.85712  0.04785  0.14029  1.0000
  H   H1081     1.0  0.55978  0.32554  0.10571  1.0000
  H   H1082     1.0  0.70257  0.07382  0.24160  1.0000
  H   H1083     1.0  0.69015  0.11494  0.20463  1.0000
  C   C680      1.0  0.75778  0.03786  0.24663  1.0000
  H   H1084     1.0  0.66552  0.29054  0.23172  1.0000
  H   H1085     1.0  0.70562  0.24314  0.22001  1.0000
  H   H1086     1.0  0.66774  0.26168  0.22705  1.0000
  H   H1087     1.0  0.66310  0.08910  0.22039  1.0000
  C   C681      1.0  0.68988  0.11681  0.24723  1.0000
  H   H1088     1.0  0.82710  0.03636  0.11991  1.0000
  C   C682      1.0  0.82053  0.03770  0.15347  1.0000
  H   H1089     1.0  0.68957  0.27220  0.19972  1.0000
  C   C683      1.0  0.70492  0.08672  0.23053  1.0000
  H   H1090     1.0  0.81522  0.21812  0.23812  1.0000
  C   C684      1.0  0.52283  0.30175  0.11394  1.0000
  C   C685      1.0  0.99463  0.27546  0.24665  1.0000
  H   H1091     1.0  0.51994  0.31730  0.14439  1.0000
  H   H1092     1.0  0.85783  0.03006  0.00545  1.0000
  C   C686      1.0  0.84767  0.15684  0.24988  1.0000
  C   C687      1.0  0.86739  0.16878  0.24963  1.0000
  H   H1093     1.0  0.73039  0.25872  0.21970  1.0000
  C   C688      1.0  0.95126  0.22801  0.24990  1.0000
  N   N67       1.0  0.96727  0.20877  0.24629  1.0000
  H   H1094     1.0  0.99390  0.23020  0.23550  1.0000
  C   C689      1.0  0.51525  0.28256  0.23970  1.0000
  C   C690      1.0  0.86071  0.04795  0.00358  1.0000
  C   C691      1.0  0.99065  0.21602  0.24554  1.0000
  H   H1095     1.0  0.00325  0.20199  0.24275  1.0000
  H   H1096     1.0  0.85095  0.01623  0.11974  1.0000
  Fe  Fe141     1.0  0.94943  0.10997  0.44570  1.0000
  S   S283      1.0  0.92391  0.13707  0.43754  1.0000
  S   S284      1.0  0.94945  0.07249  0.44408  1.0000
  Fe  Fe142     1.0  0.98257  0.14363  0.45299  1.0000
  S   S285      1.0  0.96033  0.17383  0.44507  1.0000
  H   H1097     1.0  0.99931  0.25782  0.34236  1.0000
  Fe  Fe143     1.0  0.93297  0.15379  0.46006  1.0000
  S   S286      1.0  0.90652  0.17029  0.47771  1.0000
  Fe  Fe144     1.0  0.95328  0.15463  0.42324  1.0000
  S   S287      1.0  0.95726  0.16453  0.39471  1.0000
  S   S288      1.0  0.95575  0.12498  0.46932  1.0000
  S   S289      1.0  0.97827  0.12615  0.43010  1.0000
  Fe  Fe145     1.0  0.89433  0.22955  0.32023  1.0000
  S   S290      1.0  0.92256  0.21593  0.30274  1.0000
  S   S291      1.0  0.88731  0.21880  0.34837  1.0000
  Fe  Fe146     1.0  0.87673  0.26405  0.29241  1.0000
  S   S292      1.0  0.84528  0.28418  0.28384  1.0000
  Fe  Fe147     1.0  0.89746  0.21803  0.28339  1.0000
  Fe  Fe148     1.0  0.92792  0.25240  0.29388  1.0000
  S   S293      1.0  0.86851  0.22822  0.30164  1.0000
  S   S294      1.0  0.90051  0.26618  0.31244  1.0000
  H   H1098     1.0  0.80420  0.30733  0.27466  1.0000
  H   H1099     1.0  0.98161  0.27103  0.32677  1.0000
  S   S295      1.0  0.89716  0.19336  0.26355  1.0000
  C   C692      1.0  0.90159  0.12562  0.39959  1.0000
  C   C693      1.0  0.88942  0.02313  0.47669  1.0000
  H   H1100     1.0  0.94124  0.26378  0.32927  1.0000
  H   H1101     1.0  0.93178  0.09608  0.41310  1.0000
  N   N68       1.0  0.96396  0.25188  0.34783  1.0000
  H   H1102     1.0  0.94759  0.23392  0.33078  1.0000
  C   C694      1.0  0.84993  0.02554  0.47202  1.0000
  C   C695      1.0  0.92331  0.11863  0.37324  1.0000
  C   C696      1.0  0.67453  0.33310  0.26395  1.0000
  C   C697      1.0  0.84498  0.32707  0.29528  1.0000
  C   C698      1.0  0.85896  0.17381  0.27940  1.0000
  C   C699      1.0  0.83949  0.16158  0.27972  1.0000
  H   H1103     1.0  0.86322  0.18020  0.29086  1.0000
  H   H1104     1.0  0.82878  0.15870  0.29145  1.0000
  H   H1105     1.0  0.67260  0.32245  0.27578  1.0000
  H   H1106     1.0  0.89839  0.08041  0.40278  1.0000
  C   C700      1.0  0.96807  0.23147  0.35951  1.0000
  H   H1107     1.0  0.96634  0.19570  0.27250  1.0000
  C   C701      1.0  0.83386  0.31189  0.28710  1.0000
  C   C702      1.0  0.93728  0.17935  0.38218  1.0000
  C   C703      1.0  0.94191  0.18123  0.36445  1.0000
  C   C704      1.0  0.92672  0.19314  0.35392  1.0000
  C   C705      1.0  0.90668  0.20321  0.36105  1.0000
  C   C706      1.0  0.90189  0.20101  0.37877  1.0000
  C   C707      1.0  0.91713  0.18916  0.38932  1.0000
  H   H1108     1.0  0.95739  0.17349  0.35883  1.0000
  H   H1109     1.0  0.93045  0.19444  0.34030  1.0000
  H   H1110     1.0  0.88637  0.20870  0.38438  1.0000
  H   H1111     1.0  0.91336  0.18783  0.40295  1.0000
  H   H1112     1.0  0.01290  0.24957  0.29000  1.0000
  C   C708      1.0  0.95899  0.27169  0.35765  1.0000
  H   H1113     1.0  0.97546  0.17532  0.25765  1.0000
  H   H1114     1.0  0.89131  0.04118  0.47181  1.0000
  C   C709      1.0  0.00768  0.25666  0.27787  1.0000
  H   H1115     1.0  0.89558  0.11863  0.41265  1.0000
  H   H1116     1.0  0.68602  0.10511  0.25881  1.0000
  C   C710      1.0  0.88378  0.04616  0.43092  1.0000
  C   C711      1.0  0.88368  0.06765  0.43672  1.0000
  C   C712      1.0  0.90373  0.07581  0.44106  1.0000
  C   C713      1.0  0.92386  0.06244  0.43963  1.0000
  C   C714      1.0  0.92385  0.04091  0.43402  1.0000
  C   C715      1.0  0.76263  0.04345  0.26247  1.0000
  H   H1117     1.0  0.86811  0.07797  0.43784  1.0000
  H   H1118     1.0  0.90357  0.09235  0.44561  1.0000
  H   H1119     1.0  0.96090  0.27772  0.25935  1.0000
  S   S296      1.0  0.85881  0.03594  0.42543  1.0000
  S   S297      1.0  0.63765  0.31282  0.25606  1.0000
  H   H1120     1.0  0.51492  0.27935  0.27996  1.0000
  C   C716      1.0  0.81829  0.22747  0.27925  1.0000
  C   C717      1.0  0.97834  0.27232  0.26062  1.0000
  C   C718      1.0  0.84531  0.23620  0.25518  1.0000
  H   H1121     1.0  0.99416  0.22206  0.25775  1.0000
  H   H1122     1.0  0.80036  0.22472  0.28385  1.0000
  C   C719      1.0  0.83370  0.15315  0.26498  1.0000
  N   N69       1.0  0.86634  0.01927  0.48466  1.0000
  H   H1123     1.0  0.76670  0.06057  0.26399  1.0000
  C   C720      1.0  0.80333  0.34083  0.28288  1.0000
  H   H1124     1.0  0.97208  0.21625  0.35247  1.0000
  H   H1125     1.0  0.94764  0.08964  0.39371  1.0000
  H   H1126     1.0  0.88823  0.09227  0.38320  1.0000
  H   H1127     1.0  0.93732  0.14702  0.50168  1.0000
  H   H1128     1.0  0.93309  0.13393  0.37345  1.0000
  H   H1129     1.0  0.82833  0.21175  0.28313  1.0000
  C   C721      1.0  0.87300  0.17740  0.26436  1.0000
  C   C722      1.0  0.81296  0.31888  0.28101  1.0000
  H   H1130     1.0  0.91425  0.07526  0.38314  1.0000
  H   H1131     1.0  0.90850  0.12386  0.36602  1.0000
  H   H1132     1.0  0.78737  0.34602  0.27796  1.0000
  H   H1133     1.0  0.92882  0.24603  0.34694  1.0000
  C   C723      1.0  0.94452  0.24874  0.33834  1.0000
  H   H1134     1.0  0.95567  0.28736  0.34918  1.0000
  H   H1135     1.0  0.79525  0.21143  0.25616  1.0000
  H   H1136     1.0  0.83229  0.02311  0.47759  1.0000
  H   H1137     1.0  0.85109  0.04349  0.46666  1.0000
  C   C724      1.0  0.98415  0.25566  0.33573  1.0000
  C   C725      1.0  0.98479  0.26289  0.27631  1.0000
  H   H1138     1.0  0.97332  0.27465  0.36496  1.0000
  H   H1139     1.0  0.86109  0.32196  0.29999  1.0000
  H   H1140     1.0  0.93938  0.03053  0.43281  1.0000
  H   H1141     1.0  0.82387  0.24125  0.28611  1.0000
  H   H1142     1.0  0.98263  0.15249  0.49701  1.0000
  H   H1143     1.0  0.95297  0.22792  0.36861  1.0000
  C   C726      1.0  0.93647  0.10279  0.39978  1.0000
  H   H1144     1.0  0.91073  0.14110  0.40072  1.0000
  S   S298      1.0  0.90480  0.25359  0.27310  1.0000
  H   H1145     1.0  0.94662  0.11775  0.40025  1.0000
  H   H1146     1.0  0.90228  0.01847  0.48580  1.0000
  H   H1147     1.0  0.94378  0.26933  0.36685  1.0000
  H   H1148     1.0  0.76549  0.03151  0.28869  1.0000
  H   H1149     1.0  0.88645  0.13105  0.39282  1.0000
  C   C727      1.0  0.96370  0.19019  0.25990  1.0000
  H   H1150     1.0  0.99586  0.07687  0.45439  1.0000
  H   H1151     1.0  0.98798  0.24125  0.32779  1.0000
  S   S299      1.0  0.80859  0.13871  0.26597  1.0000
  H   H1152     1.0  0.90427  0.01640  0.42488  1.0000
  C   C728      1.0  0.90374  0.08832  0.38986  1.0000
  H   H1153     1.0  0.98243  0.23329  0.36709  1.0000
  H   H1154     1.0  0.93423  0.10637  0.36601  1.0000
  H   H1155     1.0  0.53126  0.27364  0.29770  1.0000
  N   N70       1.0  0.91627  0.10883  0.39061  1.0000
  H   H1156     1.0  0.66137  0.33912  0.48280  1.0000
  H   H1157     1.0  0.64281  0.34447  0.46621  1.0000
  C   C729      1.0  0.76194  0.02692  0.27645  1.0000
  C   C730      1.0  0.90390  0.03285  0.42959  1.0000
  S   S300      1.0  0.96497  0.25927  0.29438  1.0000
  H   H1158     1.0  0.94617  0.18440  0.26082  1.0000
  H   H1159     1.0  0.85185  0.25017  0.26127  1.0000
  H   H1160     1.0  0.86256  0.05163  0.49478  1.0000
  C   C731      1.0  0.90786  0.16968  0.49987  1.0000
  H   H1161     1.0  0.82309  0.19841  0.25525  1.0000
  H   H1162     1.0  0.51445  0.28361  0.32636  1.0000
  H   H1163     1.0  0.95303  0.23370  0.26258  1.0000
  H   H1164     1.0  0.00084  0.17556  0.49322  1.0000
  H   H1165     1.0  0.99919  0.07660  0.42328  1.0000
  H   H1166     1.0  0.52452  0.30235  0.28965  1.0000
  H   H1167     1.0  0.85584  0.22071  0.25862  1.0000
  H   H1168     1.0  0.78972  0.25269  0.26028  1.0000
  H   H1169     1.0  0.00462  0.04064  0.44172  1.0000
  H   H1170     1.0  0.81368  0.26864  0.26244  1.0000
  C   C732      1.0  0.80797  0.25432  0.25620  1.0000
  N   N71       1.0  0.82121  0.23313  0.26069  1.0000
  C   C733      1.0  0.51782  0.28519  0.29235  1.0000
  C   C734      1.0  0.86137  0.03330  0.49903  1.0000
  H   H1171     1.0  0.51358  0.23246  0.26418  1.0000
  C   C735      1.0  0.69154  0.34876  0.26124  1.0000
  C   C736      1.0  0.81330  0.21454  0.25216  1.0000
  H   H1172     1.0  0.93256  0.02380  0.59690  1.0000
  Fe  Fe149     1.0  0.97807  0.14351  0.58334  1.0000
  S   S301      1.0  0.95227  0.17189  0.58822  1.0000
  Fe  Fe150     1.0  0.94499  0.10710  0.59244  1.0000
  S   S302      1.0  0.91601  0.13176  0.59798  1.0000
  S   S303      1.0  0.94540  0.06929  0.59633  1.0000
  Fe  Fe151     1.0  0.93019  0.15208  0.57442  1.0000
  S   S304      1.0  0.90552  0.17080  0.55768  1.0000
  Fe  Fe152     1.0  0.93993  0.14968  0.61144  1.0000
  S   S305      1.0  0.92772  0.15736  0.63833  1.0000
  S   S306      1.0  0.95695  0.12561  0.56766  1.0000
  S   S307      1.0  0.96786  0.12305  0.60774  1.0000
  Fe  Fe153     1.0  0.89774  0.25354  0.69807  1.0000
  S   S308      1.0  0.91546  0.22999  0.71690  1.0000
  S   S309      1.0  0.90236  0.25069  0.66969  1.0000
  Fe  Fe154     1.0  0.88255  0.28792  0.72388  1.0000
  H   H1173     1.0  0.87341  0.02895  0.50885  1.0000
  S   S310      1.0  0.86662  0.32135  0.73238  1.0000
  Fe  Fe155     1.0  0.92903  0.26136  0.72488  1.0000
  H   H1174     1.0  0.99706  0.07540  0.59803  1.0000
  Fe  Fe156     1.0  0.88482  0.23744  0.73478  1.0000
  H   H1175     1.0  0.98701  0.05408  0.61396  1.0000
  S   S311      1.0  0.91291  0.28457  0.70502  1.0000
  S   S312      1.0  0.86572  0.25875  0.71538  1.0000
  H   H1176     1.0  0.95526  0.24887  0.66657  1.0000
  H   H1177     1.0  0.97990  0.02995  0.59174  1.0000
  H   H1178     1.0  0.87850  0.18612  0.63262  1.0000
  H   H1179     1.0  0.96316  0.34556  0.74300  1.0000
  C   C737      1.0  0.84727  0.18864  0.73481  1.0000
  C   C738      1.0  0.83322  0.17146  0.73204  1.0000
  C   C739      1.0  0.86252  0.21133  0.59507  1.0000
  H   H1180     1.0  0.85387  0.20003  0.72429  1.0000
  H   H1181     1.0  0.82899  0.16972  0.71935  1.0000
  C   C740      1.0  0.89929  0.19586  0.60144  1.0000
  H   H1182     1.0  0.93669  0.14695  0.53318  1.0000
  H   H1183     1.0  0.85116  0.19807  0.62802  1.0000
  H   H1184     1.0  0.84374  0.31812  0.70189  1.0000
  H   H1185     1.0  0.61748  0.29252  0.72815  1.0000
  H   H1186     1.0  0.59117  0.31007  0.74969  1.0000
  H   H1187     1.0  0.77659  0.32997  0.72001  1.0000
  C   C741      1.0  0.83462  0.03834  0.59978  1.0000
  H   H1188     1.0  0.59836  0.33750  0.74032  1.0000
  N   N72       1.0  0.58897  0.31509  0.72285  1.0000
  H   H1189     1.0  0.83445  0.04744  0.61133  1.0000
  H   H1190     1.0  0.97686  0.17666  0.50887  1.0000
  C   C742      1.0  0.93213  0.32218  0.73094  1.0000
  H   H1191     1.0  0.98198  0.12800  0.52412  1.0000
  C   C743      1.0  0.92138  0.18360  0.64676  1.0000
  C   C744      1.0  0.92578  0.20421  0.63730  1.0000
  C   C745      1.0  0.91958  0.22469  0.64442  1.0000
  C   C746      1.0  0.90951  0.22469  0.66115  1.0000
  C   C747      1.0  0.90547  0.20410  0.67068  1.0000
  C   C748      1.0  0.91132  0.18365  0.66348  1.0000
  H   H1192     1.0  0.93407  0.20436  0.62459  1.0000
  H   H1193     1.0  0.92287  0.24061  0.63703  1.0000
  H   H1194     1.0  0.89761  0.20391  0.68355  1.0000
  H   H1195     1.0  0.90789  0.16776  0.67088  1.0000
  H   H1196     1.0  0.61484  0.30008  0.70599  1.0000
  C   C749      1.0  0.90732  0.16980  0.53543  1.0000
  C   C750      1.0  0.73312  0.34074  0.71721  1.0000
  C   C751      1.0  0.88980  0.03882  0.57210  1.0000
  C   C752      1.0  0.89230  0.06220  0.56970  1.0000
  C   C753      1.0  0.90937  0.07177  0.57715  1.0000
  C   C754      1.0  0.92391  0.05790  0.58694  1.0000
  C   C755      1.0  0.92136  0.03457  0.58931  1.0000
  C   C756      1.0  0.82443  0.15669  0.74564  1.0000
  H   H1197     1.0  0.88115  0.07290  0.56205  1.0000
  H   H1198     1.0  0.91137  0.08982  0.57523  1.0000
  N   N73       1.0  0.00481  0.15455  0.51647  1.0000
  C   C757      1.0  0.96052  0.20541  0.67934  1.0000
  H   H1199     1.0  0.97097  0.26055  0.68160  1.0000
  C   C758      1.0  0.89095  0.18243  0.52659  1.0000
  N   N74       1.0  0.87482  0.19439  0.60609  1.0000
  C   C759      1.0  0.99535  0.03627  0.58415  1.0000
  H   H1200     1.0  0.79300  0.05423  0.61042  1.0000
  S   S313      1.0  0.86835  0.02670  0.56310  1.0000
  H   H1201     1.0  0.94060  0.30496  0.73176  1.0000
  H   H1202     1.0  0.87283  0.16723  0.59045  1.0000
  H   H1203     1.0  0.87787  0.19233  0.53338  1.0000
  H   H1204     1.0  0.87662  0.15839  0.61227  1.0000
  H   H1205     1.0  0.84963  0.16993  0.60654  1.0000
  C   C760      1.0  0.79439  0.04495  0.59886  1.0000
  H   H1206     1.0  0.57756  0.28229  0.73257  1.0000
  C   C761      1.0  0.99451  0.22451  0.66931  1.0000
  C   C762      1.0  0.96113  0.24595  0.67950  1.0000
  N   N75       1.0  0.81312  0.02750  0.59905  1.0000
  H   H1207     1.0  0.95514  0.20691  0.66628  1.0000
  H   H1208     1.0  0.78058  0.21749  0.74334  1.0000
  H   H1209     1.0  0.71192  0.33030  0.74837  1.0000
  H   H1210     1.0  0.72950  0.32583  0.71073  1.0000
  C   C763      1.0  0.85266  0.19102  0.75122  1.0000
  H   H1211     1.0  0.84918  0.02568  0.59981  1.0000
  C   C764      1.0  0.57361  0.29650  0.72292  1.0000
  H   H1212     1.0  0.91517  0.32078  0.72658  1.0000
  H   H1213     1.0  0.62458  0.32006  0.71883  1.0000
  C   C765      1.0  0.83562  0.33187  0.70854  1.0000
  C   C766      1.0  0.76352  0.03081  0.74843  1.0000
  S   S314      1.0  0.96705  0.26424  0.72468  1.0000
  H   H1214     1.0  0.96705  0.22113  0.70893  1.0000
  H   H1215     1.0  0.90388  0.19303  0.58789  1.0000
  H   H1216     1.0  0.94199  0.33281  0.72089  1.0000
  H   H1217     1.0  0.77369  0.31565  0.74091  1.0000
  H   H1218     1.0  0.84409  0.03081  0.50536  1.0000
  C   C767      1.0  0.00234  0.05979  0.60590  1.0000
  C   C768      1.0  0.92419  0.15701  0.52642  1.0000
  H   H1219     1.0  0.86735  0.22879  0.59644  1.0000
  H   H1220     1.0  0.90512  0.21273  0.60337  1.0000
  H   H1221     1.0  0.86630  0.20828  0.58145  1.0000
  H   H1222     1.0  0.79689  0.05763  0.58765  1.0000
  H   H1223     1.0  0.84395  0.21078  0.59819  1.0000
  C   C769      1.0  0.72785  0.32031  0.74497  1.0000
  H   H1224     1.0  0.94577  0.24632  0.68859  1.0000
  H   H1225     1.0  0.83828  0.05073  0.58854  1.0000
  H   H1226     1.0  0.87480  0.21578  0.62640  1.0000
  C   C770      1.0  0.84332  0.33678  0.72372  1.0000
  C   C771      1.0  0.86952  0.19882  0.62405  1.0000
  H   H1227     1.0  0.90902  0.18288  0.60920  1.0000
  H   H1228     1.0  0.72315  0.30509  0.73933  1.0000
  H   H1229     1.0  0.77794  0.03730  0.59827  1.0000
  C   C772      1.0  0.86813  0.17149  0.60373  1.0000
  H   H1230     1.0  0.98981  0.05130  0.57580  1.0000
  C   C773      1.0  0.98177  0.22118  0.69915  1.0000
  H   H1231     1.0  0.57477  0.28954  0.71040  1.0000
  N   N76       1.0  0.97448  0.22426  0.68183  1.0000
  H   H1232     1.0  0.81217  0.34146  0.68979  1.0000
  S   S315      1.0  0.89996  0.26688  0.74435  1.0000
  H   H1233     1.0  0.58445  0.32782  0.69711  1.0000
  C   C774      1.0  0.58681  0.32365  0.73977  1.0000
  C   C775      1.0  0.99059  0.14124  0.52961  1.0000
  S   S316      1.0  0.80571  0.13623  0.74202  1.0000
  N   N77       1.0  0.74357  0.33388  0.73313  1.0000
  H   H1234     1.0  0.55571  0.30226  0.72615  1.0000
  H   H1235     1.0  0.00494  0.20837  0.67066  1.0000
  C   C776      1.0  0.98386  0.26699  0.74151  1.0000
  H   H1236     1.0  0.94495  0.20510  0.68831  1.0000
  H   H1237     1.0  0.81745  0.02759  0.57186  1.0000
  H   H1238     1.0  0.00076  0.13269  0.53964  1.0000
  H   H1239     1.0  0.99236  0.23511  0.70151  1.0000
  H   H1240     1.0  0.99178  0.20495  0.70144  1.0000
  H   H1241     1.0  0.96981  0.18872  0.68134  1.0000
  H   H1242     1.0  0.00541  0.23854  0.67087  1.0000
  N   N78       1.0  0.01220  0.04205  0.59521  1.0000
  C   C777      1.0  0.99065  0.16534  0.50337  1.0000
  H   H1243     1.0  0.87828  0.19210  0.50242  1.0000
  C   C778      1.0  0.92451  0.15701  0.50860  1.0000
  H   H1244     1.0  0.76163  0.30452  0.72378  1.0000
  C   C779      1.0  0.81774  0.34518  0.70169  1.0000
  H   H1245     1.0  0.56538  0.34047  0.71286  1.0000
  H   H1246     1.0  0.75730  0.18437  0.74719  1.0000
  H   H1247     1.0  0.00215  0.02278  0.57600  1.0000
  H   H1248     1.0  0.97732  0.15227  0.53602  1.0000
  C   C780      1.0  0.76476  0.32033  0.72934  1.0000
  C   C781      1.0  0.81428  0.01573  0.58348  1.0000
  H   H1249     1.0  0.80789  0.01916  0.62603  1.0000
  H   H1250     1.0  0.98954  0.22684  0.65610  1.0000
  H   H1251     1.0  0.77352  0.04540  0.74825  1.0000
  C   C782      1.0  0.61247  0.30656  0.71870  1.0000
  N   N79       1.0  0.93032  0.33188  0.74742  1.0000
  C   C783      1.0  0.90428  0.02506  0.58197  1.0000
  C   C784      1.0  0.89119  0.18232  0.50901  1.0000
  C   C785      1.0  0.58302  0.33365  0.71005  1.0000
  H   H1252     1.0  0.66405  0.34579  0.72890  1.0000
  H   H1253     1.0  0.56924  0.33000  0.74347  1.0000
  C   C786      1.0  0.00743  0.26724  0.73797  1.0000
  H   H1254     1.0  0.00249  0.18383  0.53048  1.0000
  H   H1255     1.0  0.59434  0.34792  0.70971  1.0000
  S   S317      1.0  0.97935  0.15034  0.93271  1.0000
  Fe  Fe157     1.0  0.87560  0.03096  0.92598  1.0000
  S   S318      1.0  0.84567  0.05389  0.93385  1.0000
  Fe  Fe158     1.0  0.90305  0.06907  0.90919  1.0000
  S   S319      1.0  0.87575  0.09515  0.91559  1.0000
  S   S320      1.0  0.93741  0.07596  0.89599  1.0000
  Fe  Fe159     1.0  0.87172  0.07579  0.94126  1.0000
  S   S321      1.0  0.87083  0.09601  0.96397  1.0000
  Fe  Fe160     1.0  0.85214  0.07131  0.90740  1.0000
  S   S322      1.0  0.82571  0.08978  0.89163  1.0000
  S   S323      1.0  0.90103  0.05161  0.93538  1.0000
  S   S324      1.0  0.88002  0.04649  0.89901  1.0000
  H   H1256     1.0  0.77098  0.02166  0.78676  1.0000
  H   H1257     1.0  0.52427  0.32263  0.85730  1.0000
  H   H1258     1.0  0.84836  0.17773  0.77744  1.0000
  C   C787      1.0  0.52867  0.34043  0.85345  1.0000
  H   H1259     1.0  0.65523  0.33101  0.78300  1.0000
  H   H1260     1.0  0.98948  0.03966  0.90922  1.0000
  Fe  Fe161     1.0  0.61545  0.24364  0.78684  1.0000
  S   S325      1.0  0.60708  0.26495  0.76320  1.0000
  S   S326      1.0  0.62839  0.20671  0.78643  1.0000
  Fe  Fe162     1.0  0.59928  0.28094  0.80931  1.0000
  S   S327      1.0  0.59027  0.30569  0.78747  1.0000
  S   S328      1.0  0.59241  0.28255  0.83785  1.0000
  Fe  Fe163     1.0  0.57482  0.27669  0.77746  1.0000
  H   H1261     1.0  0.00451  0.02993  0.89044  1.0000
  Fe  Fe164     1.0  0.62280  0.29293  0.77403  1.0000
  C   C788      1.0  0.83008  0.15896  0.76198  1.0000
  S   S329      1.0  0.58143  0.25270  0.80032  1.0000
  S   S330      1.0  0.63359  0.27075  0.79672  1.0000
  Fe  Fe165     1.0  0.78281  0.09371  0.79987  1.0000
  S   S331      1.0  0.78794  0.08283  0.77340  1.0000
  S   S332      1.0  0.80409  0.07127  0.81771  1.0000
  Fe  Fe166     1.0  0.74483  0.12930  0.79043  1.0000
  S   S333      1.0  0.74682  0.11972  0.76368  1.0000
  S   S334      1.0  0.72567  0.16103  0.79983  1.0000
  Fe  Fe167     1.0  0.75027  0.08337  0.77493  1.0000
  H   H1262     1.0  0.75781  0.05069  0.82602  1.0000
  Fe  Fe168     1.0  0.78446  0.11974  0.76458  1.0000
  H   H1263     1.0  0.95638  0.26891  0.76105  1.0000
  S   S335      1.0  0.74504  0.09297  0.80185  1.0000
  S   S336      1.0  0.78259  0.13074  0.79082  1.0000
  C   C789      1.0  0.95758  0.09620  0.95977  1.0000
  S   S337      1.0  0.73145  0.05276  0.76988  1.0000
  H   H1264     1.0  0.90034  0.31463  0.75690  1.0000
  C   C790      1.0  0.65623  0.19500  0.78886  1.0000
  C   C791      1.0  0.66172  0.17253  0.78523  1.0000
  C   C792      1.0  0.68311  0.16207  0.78798  1.0000
  C   C793      1.0  0.69906  0.17378  0.79487  1.0000
  C   C794      1.0  0.69355  0.19624  0.79854  1.0000
  C   C795      1.0  0.67246  0.20694  0.79527  1.0000
  H   H1265     1.0  0.64932  0.16309  0.78030  1.0000
  H   H1266     1.0  0.68701  0.14475  0.78517  1.0000
  H   H1267     1.0  0.70566  0.20542  0.80401  1.0000
  H   H1268     1.0  0.66869  0.22428  0.79796  1.0000
  H   H1269     1.0  0.95681  0.12591  0.98312  1.0000
  H   H1270     1.0  0.00051  0.11544  0.91238  1.0000
  H   H1271     1.0  0.73679  0.20639  0.77948  1.0000
  H   H1272     1.0  0.58808  0.34630  0.99931  1.0000
  H   H1273     1.0  0.79093  0.02921  0.80063  1.0000
  N   N80       1.0  0.77002  0.19977  0.76746  1.0000
  H   H1274     1.0  0.96755  0.11130  0.95556  1.0000
  C   C796      1.0  0.65820  0.33619  0.75574  1.0000
  C   C797      1.0  0.66213  0.34127  0.77192  1.0000
  H   H1275     1.0  0.57829  0.32486  0.88812  1.0000
  C   C798      1.0  0.74249  0.03017  0.75791  1.0000
  H   H1276     1.0  0.95146  0.09033  0.94826  1.0000
  C   C799      1.0  0.78714  0.21168  0.75573  1.0000
  C   C800      1.0  0.58314  0.32605  0.87461  1.0000
  C   C801      1.0  0.58440  0.30652  0.86581  1.0000
  C   C802      1.0  0.59096  0.30767  0.84829  1.0000
  C   C803      1.0  0.59626  0.32857  0.83963  1.0000
  H   H1277     1.0  0.94305  0.02438  0.90386  1.0000
  H   H1278     1.0  0.79482  0.18094  0.78177  1.0000
  H   H1279     1.0  0.87014  0.11213  0.99682  1.0000
  S   S338      1.0  0.86948  0.21270  0.75554  1.0000
  H   H1280     1.0  0.91591  0.32354  0.77298  1.0000
  C   C804      1.0  0.58852  0.34694  0.86596  1.0000
  C   C805      1.0  0.81960  0.08404  0.87124  1.0000
  C   C806      1.0  0.80574  0.09971  0.86206  1.0000
  C   C807      1.0  0.80086  0.09612  0.84562  1.0000
  C   C808      1.0  0.80978  0.07674  0.83826  1.0000
  C   C809      1.0  0.82361  0.06104  0.84745  1.0000
  C   C810      1.0  0.82850  0.06463  0.86389  1.0000
  H   H1281     1.0  0.79869  0.11470  0.86772  1.0000
  H   H1282     1.0  0.79013  0.10827  0.83870  1.0000
  H   H1283     1.0  0.83055  0.04598  0.84184  1.0000
  H   H1284     1.0  0.83907  0.05239  0.87087  1.0000
  C   C811      1.0  0.86335  0.05881  0.98704  1.0000
  C   C812      1.0  0.86666  0.08199  0.98455  1.0000
  H   H1285     1.0  0.60144  0.32968  0.82617  1.0000
  H   H1286     1.0  0.86261  0.04927  0.97624  1.0000
  C   C813      1.0  0.92632  0.08102  0.97809  1.0000
  C   C814      1.0  0.96832  0.13054  0.92136  1.0000
  C   C815      1.0  0.98238  0.11487  0.91273  1.0000
  C   C816      1.0  0.97291  0.09836  0.90456  1.0000
  C   C817      1.0  0.94942  0.09723  0.90539  1.0000
  C   C818      1.0  0.93552  0.11299  0.91397  1.0000
  C   C819      1.0  0.94492  0.12976  0.92173  1.0000
  C   C820      1.0  0.76346  0.17978  0.75987  1.0000
  H   H1287     1.0  0.98379  0.08630  0.89787  1.0000
  H   H1288     1.0  0.91748  0.11252  0.91452  1.0000
  H   H1289     1.0  0.93402  0.14205  0.92818  1.0000
  H   H1290     1.0  0.91832  0.07476  0.96750  1.0000
  N   N81       1.0  0.62021  0.21047  0.83972  1.0000
  C   C821      1.0  0.61828  0.21292  0.85810  1.0000
  C   C822      1.0  0.59749  0.21242  0.83366  1.0000
  C   C823      1.0  0.63116  0.18817  0.83634  1.0000
  C   C824      1.0  0.63391  0.22852  0.83067  1.0000
  H   H1291     1.0  0.61009  0.22970  0.86091  1.0000
  H   H1292     1.0  0.63515  0.21167  0.86306  1.0000
  H   H1293     1.0  0.60797  0.19963  0.86538  1.0000
  H   H1294     1.0  0.59839  0.21030  0.81985  1.0000
  H   H1295     1.0  0.58649  0.19930  0.84037  1.0000
  H   H1296     1.0  0.58898  0.22931  0.83563  1.0000
  H   H1297     1.0  0.63262  0.18586  0.82253  1.0000
  H   H1298     1.0  0.62137  0.17408  0.84303  1.0000
  H   H1299     1.0  0.64854  0.18624  0.84041  1.0000
  H   H1300     1.0  0.63513  0.22743  0.81677  1.0000
  H   H1301     1.0  0.65139  0.22733  0.83452  1.0000
  H   H1302     1.0  0.62637  0.24563  0.83311  1.0000
  N   N82       1.0  0.88373  0.11666  0.86127  1.0000
  C   C825      1.0  0.86423  0.12889  0.86988  1.0000
  C   C826      1.0  0.87851  0.09280  0.86080  1.0000
  C   C827      1.0  0.90379  0.11770  0.87062  1.0000
  C   C828      1.0  0.88832  0.12720  0.84375  1.0000
  H   H1303     1.0  0.86714  0.14715  0.87000  1.0000
  H   H1304     1.0  0.86072  0.12181  0.88330  1.0000
  H   H1305     1.0  0.84853  0.12747  0.86364  1.0000
  H   H1306     1.0  0.89330  0.08256  0.85550  1.0000
  H   H1307     1.0  0.87323  0.08485  0.87371  1.0000
  H   H1308     1.0  0.86439  0.09135  0.85290  1.0000
  H   H1309     1.0  0.91888  0.10867  0.86450  1.0000
  H   H1310     1.0  0.90101  0.10955  0.88378  1.0000
  H   H1311     1.0  0.90808  0.13545  0.87150  1.0000
  H   H1312     1.0  0.90271  0.11813  0.83681  1.0000
  H   H1313     1.0  0.89255  0.14518  0.84359  1.0000
  H   H1314     1.0  0.87338  0.12687  0.83643  1.0000
  H   H1315     1.0  0.91255  0.08432  0.98816  1.0000
  C   C829      1.0  0.98745  0.03176  0.89741  1.0000
  H   H1316     1.0  0.00926  0.22146  0.85129  1.0000
  H   H1317     1.0  0.95657  0.02035  0.92313  1.0000
  C   C830      1.0  0.00401  0.23791  0.84447  1.0000
  H   H1318     1.0  0.78460  0.20712  0.78984  1.0000
  H   H1319     1.0  0.74203  0.22061  0.75867  1.0000
  H   H1320     1.0  0.93183  0.13496  0.96016  1.0000
  C   C831      1.0  0.59517  0.34806  0.84846  1.0000
  H   H1321     1.0  0.90837  0.12335  0.97361  1.0000
  C   C832      1.0  0.92313  0.11909  0.96455  1.0000
  H   H1322     1.0  0.82388  0.14736  0.77246  1.0000
  H   H1323     1.0  0.75410  0.23037  0.77633  1.0000
  C   C833      1.0  0.98845  0.27253  0.77083  1.0000
  H   H1324     1.0  0.79286  0.22664  0.76113  1.0000
  N   N83       1.0  0.93861  0.10165  0.97237  1.0000
  H   H1325     1.0  0.91622  0.11317  0.95337  1.0000
  H   H1326     1.0  0.99227  0.23431  0.83517  1.0000
  H   H1327     1.0  0.99440  0.24825  0.85395  1.0000
  H   H1328     1.0  0.58040  0.29042  0.87264  1.0000
  S   S339      1.0  0.54454  0.28882  0.76278  1.0000
  H   H1329     1.0  0.93761  0.06711  0.98340  1.0000
  H   H1330     1.0  0.76790  0.04836  0.79535  1.0000
  H   H1331     1.0  0.52646  0.24466  0.77515  1.0000
  H   H1332     1.0  0.97692  0.04393  0.88956  1.0000
  C   C834      1.0  0.77277  0.03023  0.79832  1.0000
  H   H1333     1.0  0.77985  0.03024  0.83114  1.0000
  C   C835      1.0  0.84407  0.17609  0.76475  1.0000
  H   H1334     1.0  0.00487  0.26845  0.81706  1.0000
  H   H1335     1.0  0.98099  0.27462  0.78356  1.0000
  H   H1336     1.0  0.76720  0.18317  0.79279  1.0000
  H   H1337     1.0  0.54734  0.34078  0.85282  1.0000
  N   N84       1.0  0.75848  0.02049  0.81315  1.0000
  C   C836      1.0  0.77957  0.19247  0.78368  1.0000
  H   H1338     1.0  0.96936  0.08275  0.96506  1.0000
  C   C837      1.0  0.74987  0.21505  0.77060  1.0000
  C   C838      1.0  0.91768  0.31676  0.76037  1.0000
  H   H1339     1.0  0.95910  0.09762  0.99332  1.0000
  H   H1340     1.0  0.00662  0.28264  0.83577  1.0000
  H   H1341     1.0  0.92624  0.29962  0.76182  1.0000
  H   H1342     1.0  0.51948  0.33125  0.88701  1.0000
  C   C839      1.0  0.94740  0.11034  0.98705  1.0000
  C   C840      1.0  0.76193  0.03216  0.82817  1.0000
  H   H1343     1.0  0.72929  0.04177  0.80727  1.0000
  C   C841      1.0  0.86762  0.09418  0.99867  1.0000
  H   H1344     1.0  0.75124  0.02552  0.83961  1.0000
  H   H1345     1.0  0.95256  0.34115  0.76496  1.0000
  C   C842      1.0  0.01205  0.27278  0.76727  1.0000
  C   C843      1.0  0.73453  0.02352  0.80970  1.0000
  H   H1346     1.0  0.93346  0.11472  0.99675  1.0000
  H   H1347     1.0  0.74986  0.17091  0.76799  1.0000
  C   C844      1.0  0.51535  0.25345  0.76644  1.0000
  C   C845      1.0  0.52048  0.27486  0.75864  1.0000
  C   C846      1.0  0.97442  0.26942  0.75807  1.0000
  S   S340      1.0  0.64288  0.31289  0.75265  1.0000
  H   H1348     1.0  0.80237  0.20040  0.75300  1.0000
  H   H1349     1.0  0.77792  0.16732  0.75823  1.0000
  H   H1350     1.0  0.73534  0.31459  0.75702  1.0000
  H   H1351     1.0  0.52383  0.34506  0.84037  1.0000
  H   H1352     1.0  0.72315  0.01622  0.82051  1.0000
  C   C847      1.0  0.95320  0.33416  0.75246  1.0000
  H   H1353     1.0  0.96283  0.31749  0.75349  1.0000
  Fe  Fe169     1.0  0.61432  0.59375  0.09927  1.0000
  S   S341      1.0  0.63605  0.62073  0.08589  1.0000
  S   S342      1.0  0.58003  0.60003  0.11288  1.0000
  Fe  Fe170     1.0  0.64723  0.55568  0.08863  1.0000
  S   S343      1.0  0.67131  0.57945  0.07404  1.0000
  S   S344      1.0  0.65617  0.51839  0.08897  1.0000
  Fe  Fe171     1.0  0.66472  0.59948  0.09680  1.0000
  S   S345      1.0  0.69549  0.61136  0.10737  1.0000
  Fe  Fe172     1.0  0.64051  0.59801  0.06463  1.0000
  S   S346      1.0  0.63359  0.61038  0.03778  1.0000
  S   S347      1.0  0.64247  0.57424  0.11191  1.0000
  S   S348      1.0  0.61686  0.57254  0.07748  1.0000
  Fe  Fe173     1.0  0.56995  0.40713  0.05466  1.0000
  S   S349      1.0  0.54239  0.42980  0.06635  1.0000
  S   S350      1.0  0.55143  0.40304  0.10297  1.0000
  H   H1354     1.0  0.85362  0.66627  0.23528  1.0000
  Fe  Fe174     1.0  0.56555  0.43231  0.08634  1.0000
  S   S351      1.0  0.56690  0.46500  0.09807  1.0000
  S   S352      1.0  0.59416  0.41184  0.07392  1.0000
  H   H1355     1.0  0.84312  0.62834  0.19866  1.0000
  H   H1356     1.0  0.55616  0.63554  0.05886  1.0000
  Fe  Fe175     1.0  0.72907  0.62066  0.20027  1.0000
  S   S353      1.0  0.72562  0.60552  0.22743  1.0000
  S   S354      1.0  0.69860  0.61462  0.18671  1.0000
  Fe  Fe176     1.0  0.77292  0.64283  0.20514  1.0000
  S   S355      1.0  0.77242  0.62910  0.23233  1.0000
  C   C848      1.0  0.84685  0.67539  0.22430  1.0000
  Fe  Fe177     1.0  0.76264  0.59651  0.22345  1.0000
  H   H1357     1.0  0.64931  0.60055  0.23148  1.0000
  Fe  Fe178     1.0  0.73545  0.63934  0.23357  1.0000
  H   H1358     1.0  0.73190  0.55215  0.13770  1.0000
  S   S356      1.0  0.76573  0.60963  0.19579  1.0000
  S   S357      1.0  0.73642  0.65514  0.20688  1.0000
  S   S358      1.0  0.71468  0.38284  0.24230  1.0000
  H   H1359     1.0  0.58959  0.54905  0.05614  1.0000
  H   H1360     1.0  0.57129  0.40934  0.14055  1.0000
  H   H1361     1.0  0.66601  0.66887  0.21592  1.0000
  C   C849      1.0  0.83411  0.61426  0.19460  1.0000
  H   H1362     1.0  0.60325  0.56676  0.03904  1.0000
  C   C850      1.0  0.69409  0.36249  0.24595  1.0000
  H   H1363     1.0  0.82122  0.65155  0.22310  1.0000
  H   H1364     1.0  0.68719  0.64629  0.21366  1.0000
  C   C851      1.0  0.61841  0.53271  0.01998  1.0000
  Fe  Fe179     1.0  0.57828  0.38201  0.08932  1.0000
  C   C852      1.0  0.58131  0.37656  0.01226  1.0000
  H   H1365     1.0  0.60505  0.45871  0.12541  1.0000
  H   H1366     1.0  0.66447  0.64906  0.20046  1.0000
  H   H1367     1.0  0.61201  0.45203  0.14678  1.0000
  C   C853      1.0  0.63194  0.53229  0.04756  1.0000
  H   H1368     1.0  0.65969  0.65569  0.24690  1.0000
  H   H1369     1.0  0.86631  0.57058  0.21199  1.0000
  H   H1370     1.0  0.63186  0.44492  0.12931  1.0000
  H   H1371     1.0  0.63999  0.54871  0.04424  1.0000
  C   C854      1.0  0.69603  0.61281  0.12940  1.0000
  C   C855      1.0  0.71614  0.61782  0.13571  1.0000
  C   C856      1.0  0.71732  0.61833  0.15326  1.0000
  C   C857      1.0  0.69830  0.61393  0.16459  1.0000
  C   C858      1.0  0.67822  0.60891  0.15827  1.0000
  C   C859      1.0  0.67707  0.60833  0.14076  1.0000
  H   H1372     1.0  0.73086  0.62139  0.12699  1.0000
  H   H1373     1.0  0.73284  0.62232  0.15798  1.0000
  H   H1374     1.0  0.66341  0.60554  0.16694  1.0000
  H   H1375     1.0  0.66145  0.60461  0.13606  1.0000
  C   C860      1.0  0.63150  0.50337  0.09138  1.0000
  C   C861      1.0  0.61129  0.51330  0.09831  1.0000
  C   C862      1.0  0.59152  0.50142  0.10006  1.0000
  C   C863      1.0  0.59174  0.47977  0.09459  1.0000
  C   C864      1.0  0.61187  0.46999  0.08730  1.0000
  C   C865      1.0  0.63181  0.48171  0.08587  1.0000
  H   H1376     1.0  0.61092  0.53002  0.10262  1.0000
  H   H1377     1.0  0.57600  0.50904  0.10575  1.0000
  H   H1378     1.0  0.61218  0.45337  0.08292  1.0000
  H   H1379     1.0  0.64740  0.47410  0.08031  1.0000
  S   S359      1.0  0.78110  0.56275  0.23048  1.0000
  C   C866      1.0  0.64424  0.59535  0.02048  1.0000
  H   H1380     1.0  0.58805  0.36918  0.02380  1.0000
  C   C867      1.0  0.52771  0.62593  0.07642  1.0000
  H   H1381     1.0  0.68631  0.56654  0.12543  1.0000
  C   C868      1.0  0.53705  0.60767  0.10367  1.0000
  C   C869      1.0  0.56007  0.60955  0.09863  1.0000
  C   C870      1.0  0.56692  0.61930  0.08235  1.0000
  C   C871      1.0  0.55075  0.62764  0.07132  1.0000
  H   H1382     1.0  0.87220  0.60005  0.20872  1.0000
  H   H1383     1.0  0.53172  0.59982  0.11616  1.0000
  H   H1384     1.0  0.58468  0.62077  0.07834  1.0000
  H   H1385     1.0  0.67728  0.60646  0.22232  1.0000
  C   C872      1.0  0.57374  0.39933  0.01084  1.0000
  H   H1386     1.0  0.83979  0.61269  0.18100  1.0000
  H   H1387     1.0  0.59837  0.42758  0.10804  1.0000
  H   H1388     1.0  0.59608  0.50765  0.05777  1.0000
  C   C873      1.0  0.66882  0.65076  0.21355  1.0000
  H   H1389     1.0  0.60804  0.38987  0.14679  1.0000
  H   H1390     1.0  0.52093  0.67264  0.08990  1.0000
  C   C874      1.0  0.74492  0.54202  0.24917  1.0000
  H   H1391     1.0  0.86958  0.58451  0.19086  1.0000
  C   C875      1.0  0.60119  0.50938  0.04385  1.0000
  H   H1392     1.0  0.62506  0.41393  0.11254  1.0000
  C   C876      1.0  0.59551  0.55009  0.04238  1.0000
  H   H1393     1.0  0.68198  0.37051  0.22134  1.0000
  N   N85       1.0  0.65548  0.63599  0.22630  1.0000
  C   C877      1.0  0.67996  0.36002  0.23325  1.0000
  H   H1394     1.0  0.63117  0.51907  0.01652  1.0000
  H   H1395     1.0  0.80775  0.57899  0.19942  1.0000
  S   S360      1.0  0.57778  0.41730  0.02654  1.0000
  N   N86       1.0  0.83822  0.59283  0.20521  1.0000
  C   C878      1.0  0.82620  0.57467  0.19912  1.0000
  H   H1396     1.0  0.61301  0.49469  0.04111  1.0000
  C   C879      1.0  0.86267  0.58671  0.20414  1.0000
  C   C880      1.0  0.82849  0.66703  0.21743  1.0000
  H   H1397     1.0  0.53164  0.64984  0.00673  1.0000
  H   H1398     1.0  0.60368  0.53147  0.01264  1.0000
  H   H1399     1.0  0.57032  0.43792  0.13099  1.0000
  C   C881      1.0  0.63398  0.59931  0.00528  1.0000
  C   C882      1.0  0.77841  0.51804  0.24332  1.0000
  H   H1400     1.0  0.74748  0.55188  0.11711  1.0000
  C   C883      1.0  0.61494  0.40692  0.14638  1.0000
  H   H1401     1.0  0.62752  0.53067  0.06148  1.0000
  H   H1402     1.0  0.62794  0.66079  0.22908  1.0000
  H   H1403     1.0  0.62070  0.63213  0.23552  1.0000
  C   C884      1.0  0.60690  0.41562  0.11728  1.0000
  H   H1404     1.0  0.68511  0.55617  0.00814  1.0000
  H   H1405     1.0  0.83239  0.57157  0.18586  1.0000
  H   H1406     1.0  0.65443  0.61016  0.20932  1.0000
  C   C885      1.0  0.82027  0.67823  0.20281  1.0000
  H   H1407     1.0  0.63338  0.40491  0.14263  1.0000
  N   N87       1.0  0.60372  0.42350  0.13442  1.0000
  C   C886      1.0  0.57281  0.35683  0.15367  1.0000
  C   C887      1.0  0.61364  0.44574  0.13399  1.0000
  H   H1408     1.0  0.57626  0.43203  0.15272  1.0000
  H   H1409     1.0  0.81146  0.60011  0.22425  1.0000
  H   H1410     1.0  0.67736  0.53875  0.12341  1.0000
  S   S361      1.0  0.59825  0.35455  0.10439  1.0000
  H   H1411     1.0  0.81585  0.61960  0.19535  1.0000
  H   H1412     1.0  0.72685  0.57430  0.12135  1.0000
  N   N88       1.0  0.61175  0.53110  0.03843  1.0000
  Fe  Fe180     1.0  0.53100  0.39826  0.08167  1.0000
  C   C888      1.0  0.52091  0.61560  0.09252  1.0000
  H   H1413     1.0  0.61261  0.41208  0.15952  1.0000
  C   C889      1.0  0.66266  0.57970  0.02149  1.0000
  S   S362      1.0  0.55688  0.37510  0.06875  1.0000
  H   H1414     1.0  0.67086  0.57679  0.03309  1.0000
  C   C890      1.0  0.67075  0.56814  0.00734  1.0000
  C   C891      1.0  0.65920  0.61225  0.22223  1.0000
  C   C892      1.0  0.82987  0.59566  0.22302  1.0000
  H   H1415     1.0  0.82813  0.55844  0.20726  1.0000
  H   H1416     1.0  0.64483  0.51853  0.04470  1.0000
  H   H1417     1.0  0.56576  0.37385  0.12953  1.0000
  H   H1418     1.0  0.62543  0.64162  0.21336  1.0000
  H   H1419     1.0  0.83846  0.60925  0.22809  1.0000
  C   C893      1.0  0.63129  0.64293  0.22606  1.0000
  H   H1420     1.0  0.83238  0.57972  0.23138  1.0000
  N   N89       1.0  0.71302  0.54270  0.11806  1.0000
  C   C894      1.0  0.71145  0.54871  0.09974  1.0000
  C   C895      1.0  0.71876  0.51822  0.12113  1.0000
  C   C896      1.0  0.69111  0.54819  0.12751  1.0000
  C   C897      1.0  0.73063  0.55574  0.12383  1.0000
  H   H1421     1.0  0.70751  0.56716  0.09696  1.0000
  H   H1422     1.0  0.69790  0.53963  0.09501  1.0000
  H   H1423     1.0  0.72755  0.54450  0.09213  1.0000
  H   H1424     1.0  0.71992  0.51307  0.13486  1.0000
  H   H1425     1.0  0.70573  0.50805  0.11679  1.0000
  H   H1426     1.0  0.73523  0.51344  0.11421  1.0000
  H   H1427     1.0  0.69161  0.54408  0.14141  1.0000
  C   C898      1.0  0.76701  0.53947  0.24165  1.0000
  C   C899      1.0  0.57934  0.42579  0.13993  1.0000
  H   H1428     1.0  0.79551  0.51585  0.23759  1.0000
  H   H1429     1.0  0.58581  0.50783  0.03730  1.0000
  H   H1430     1.0  0.58037  0.55020  0.03529  1.0000
  H   H1431     1.0  0.59981  0.39882  0.11710  1.0000
  H   H1432     1.0  0.62596  0.54914  0.01552  1.0000
  H   H1433     1.0  0.68095  0.63342  0.24383  1.0000
  S   S363      1.0  0.79878  0.66721  0.19265  1.0000
  H   H1434     1.0  0.73596  0.55838  0.24808  1.0000
  H   H1435     1.0  0.61978  0.61147  0.00441  1.0000
  C   C900      1.0  0.66262  0.63805  0.24331  1.0000
  C   C901      1.0  0.57624  0.36112  0.13595  1.0000
  H   H1436     1.0  0.52315  0.63555  0.02711  1.0000
  C   C902      1.0  0.51701  0.64697  0.01638  1.0000
  H   H1437     1.0  0.52729  0.65119  0.11739  1.0000
  H   H1438     1.0  0.54596  0.35295  0.10727  1.0000
  H   H1439     1.0  0.55982  0.36654  0.16071  1.0000
  H   H1440     1.0  0.79287  0.67209  0.24444  1.0000
  C   C903      1.0  0.59310  0.34890  0.12669  1.0000
  Fe  Fe181     1.0  0.76900  0.39771  0.28512  1.0000
  S   S364      1.0  0.80327  0.38407  0.29320  1.0000
  Fe  Fe182     1.0  0.72131  0.40355  0.30186  1.0000
  S   S365      1.0  0.70870  0.42224  0.27859  1.0000
  S   S366      1.0  0.69875  0.39298  0.32560  1.0000
  Fe  Fe183     1.0  0.72931  0.39647  0.26422  1.0000
  H   H1441     1.0  0.66384  0.36554  0.31365  1.0000
  Fe  Fe184     1.0  0.74031  0.44156  0.27635  1.0000
  S   S367      1.0  0.73929  0.37582  0.28767  1.0000
  S   S368      1.0  0.75143  0.42433  0.30087  1.0000
  Fe  Fe185     1.0  0.57427  0.66888  0.41862  1.0000
  S   S369      1.0  0.57914  0.63568  0.40727  1.0000
  Fe  Fe186     1.0  0.55602  0.64709  0.45336  1.0000
  S   S370      1.0  0.55909  0.61238  0.44454  1.0000
  C   C904      1.0  0.67426  0.37571  0.46233  1.0000
  Fe  Fe187     1.0  0.59250  0.62255  0.43188  1.0000
  S   S371      1.0  0.62103  0.59637  0.43434  1.0000
  Fe  Fe188     1.0  0.54531  0.62836  0.42088  1.0000
  S   S372      1.0  0.59077  0.65641  0.44240  1.0000
  Fe  Fe189     1.0  0.65445  0.44837  0.40815  1.0000
  S   S373      1.0  0.61743  0.44734  0.40547  1.0000
  S   S374      1.0  0.68005  0.45651  0.38567  1.0000
  Fe  Fe190     1.0  0.64675  0.44644  0.44708  1.0000
  S   S375      1.0  0.60931  0.44553  0.44723  1.0000
  S   S376      1.0  0.66456  0.44733  0.47075  1.0000
  Fe  Fe191     1.0  0.61756  0.42095  0.42767  1.0000
  S   S377      1.0  0.59779  0.38970  0.43197  1.0000
  Fe  Fe192     1.0  0.61275  0.47195  0.42525  1.0000
  S   S378      1.0  0.58727  0.50118  0.42195  1.0000
  S   S379      1.0  0.65512  0.41983  0.42891  1.0000
  S   S380      1.0  0.64970  0.47497  0.42651  1.0000
  H   H1442     1.0  0.74612  0.40529  0.33677  1.0000
  C   C905      1.0  0.69838  0.67936  0.25267  1.0000
  H   H1443     1.0  0.61965  0.57070  0.46888  1.0000
  H   H1444     1.0  0.66021  0.52160  0.41021  1.0000
  H   H1445     1.0  0.61944  0.43239  0.48225  1.0000
  C   C906      1.0  0.61199  0.56995  0.43055  1.0000
  C   C907      1.0  0.59202  0.56851  0.42298  1.0000
  C   C908      1.0  0.58446  0.54733  0.42051  1.0000
  C   C909      1.0  0.59680  0.52749  0.42562  1.0000
  C   C910      1.0  0.61676  0.52891  0.43322  1.0000
  C   C911      1.0  0.62446  0.55011  0.43553  1.0000
  H   H1446     1.0  0.58238  0.58371  0.41892  1.0000
  H   H1447     1.0  0.56902  0.54639  0.41460  1.0000
  H   H1448     1.0  0.62603  0.51372  0.43767  1.0000
  H   H1449     1.0  0.63984  0.55111  0.44150  1.0000
  H   H1450     1.0  0.65504  0.52388  0.35692  1.0000
  H   H1451     1.0  0.67973  0.53363  0.36460  1.0000
  H   H1452     1.0  0.79288  0.35218  0.35294  1.0000
  H   H1453     1.0  0.76383  0.35199  0.36150  1.0000
  C   C912      1.0  0.53267  0.40119  0.40595  1.0000
  C   C913      1.0  0.53271  0.38861  0.42175  1.0000
  C   C914      1.0  0.55293  0.38441  0.42947  1.0000
  C   C915      1.0  0.57301  0.39319  0.42157  1.0000
  C   C916      1.0  0.57297  0.40548  0.40566  1.0000
  C   C917      1.0  0.55290  0.40926  0.39779  1.0000
  H   H1454     1.0  0.63962  0.58198  0.49229  1.0000
  H   H1455     1.0  0.73652  0.38294  0.35189  1.0000
  H   H1456     1.0  0.58848  0.41182  0.39930  1.0000
  H   H1457     1.0  0.55298  0.41875  0.38547  1.0000
  H   H1458     1.0  0.64533  0.38265  0.50064  1.0000
  C   C918      1.0  0.52932  0.67129  0.38723  1.0000
  H   H1459     1.0  0.78182  0.37255  0.36728  1.0000
  N   N90       1.0  0.77141  0.37893  0.34211  1.0000
  H   H1460     1.0  0.75448  0.40342  0.35788  1.0000
  C   C919      1.0  0.69310  0.41119  0.34192  1.0000
  C   C920      1.0  0.67880  0.40432  0.35637  1.0000
  C   C921      1.0  0.67443  0.41816  0.36980  1.0000
  C   C922      1.0  0.68454  0.43888  0.36891  1.0000
  C   C923      1.0  0.69881  0.44576  0.35444  1.0000
  C   C924      1.0  0.70297  0.43204  0.34094  1.0000
  H   H1461     1.0  0.67111  0.38820  0.35724  1.0000
  H   H1462     1.0  0.66342  0.41269  0.38090  1.0000
  H   H1463     1.0  0.70666  0.46178  0.35364  1.0000
  H   H1464     1.0  0.71387  0.43761  0.32981  1.0000
  H   H1465     1.0  0.68285  0.53188  0.39548  1.0000
  H   H1466     1.0  0.54806  0.64022  0.35458  1.0000
  H   H1467     1.0  0.61376  0.62691  0.48566  1.0000
  H   H1468     1.0  0.63093  0.55035  0.37442  1.0000
  H   H1469     1.0  0.65553  0.55984  0.38238  1.0000
  H   H1470     1.0  0.67002  0.39661  0.27120  1.0000
  C   C925      1.0  0.75131  0.39325  0.34745  1.0000
  H   H1471     1.0  0.61248  0.39015  0.29372  1.0000
  S   S381      1.0  0.71887  0.65704  0.25576  1.0000
  H   H1472     1.0  0.54667  0.43517  0.42726  1.0000
  H   H1473     1.0  0.64072  0.40496  0.27024  1.0000
  C   C926      1.0  0.65022  0.40694  0.30210  1.0000
  C   C927      1.0  0.77776  0.36321  0.35662  1.0000
  H   H1474     1.0  0.62655  0.50777  0.39969  1.0000
  H   H1475     1.0  0.62395  0.36180  0.29174  1.0000
  H   H1476     1.0  0.78611  0.40552  0.32500  1.0000
  H   H1477     1.0  0.64746  0.40365  0.31616  1.0000
  H   H1478     1.0  0.60687  0.67000  0.35027  1.0000
  S   S382      1.0  0.76046  0.41679  0.26034  1.0000
  H   H1479     1.0  0.62043  0.38885  0.47788  1.0000
  C   C928      1.0  0.62577  0.37750  0.29796  1.0000
  C   C929      1.0  0.60337  0.57414  0.47657  1.0000
  N   N91       1.0  0.64854  0.38614  0.29366  1.0000
  H   H1480     1.0  0.76186  0.37721  0.31711  1.0000
  H   H1481     1.0  0.67982  0.39341  0.45985  1.0000
  C   C930      1.0  0.63600  0.50692  0.38702  1.0000
  H   H1482     1.0  0.63290  0.54887  0.39682  1.0000
  H   H1483     1.0  0.67365  0.37083  0.49671  1.0000
  H   H1484     1.0  0.62352  0.50973  0.37744  1.0000
  H   H1485     1.0  0.64342  0.48936  0.38648  1.0000
  H   H1486     1.0  0.54189  0.45036  0.44568  1.0000
  H   H1487     1.0  0.59057  0.57917  0.46743  1.0000
  H   H1488     1.0  0.79500  0.40347  0.34601  1.0000
  C   C931      1.0  0.66556  0.36883  0.29958  1.0000
  H   H1489     1.0  0.64048  0.40665  0.46563  1.0000
  H   H1490     1.0  0.59846  0.55796  0.48382  1.0000
  C   C932      1.0  0.79037  0.39341  0.33596  1.0000
  S   S383      1.0  0.53917  0.64826  0.47999  1.0000
  H   H1491     1.0  0.59878  0.66882  0.38146  1.0000
  H   H1492     1.0  0.67740  0.50234  0.39770  1.0000
  S   S384      1.0  0.73186  0.47960  0.27258  1.0000
  H   H1493     1.0  0.68302  0.37429  0.29578  1.0000
  H   H1494     1.0  0.65037  0.37611  0.26830  1.0000
  C   C933      1.0  0.66630  0.52125  0.36735  1.0000
  C   C934      1.0  0.62827  0.43424  0.49316  1.0000
  N   N92       1.0  0.65358  0.52367  0.38404  1.0000
  C   C935      1.0  0.66023  0.38206  0.49104  1.0000
  C   C936      1.0  0.66919  0.51971  0.39744  1.0000
  S   S385      1.0  0.53920  0.66249  0.43061  1.0000
  C   C937      1.0  0.65257  0.39120  0.27507  1.0000
  H   H1495     1.0  0.55288  0.37478  0.44174  1.0000
  C   C938      1.0  0.64279  0.54671  0.38439  1.0000
  H   H1496     1.0  0.52594  0.65700  0.39706  1.0000
  H   H1497     1.0  0.63772  0.42049  0.29796  1.0000
  H   H1498     1.0  0.54609  0.47649  0.40143  1.0000
  H   H1499     1.0  0.68883  0.36488  0.46669  1.0000
  H   H1500     1.0  0.76590  0.66979  0.25652  1.0000
  N   N93       1.0  0.60531  0.59203  0.48788  1.0000
  C   C939      1.0  0.64980  0.44275  0.49106  1.0000
  C   C940      1.0  0.76619  0.36579  0.32833  1.0000
  C   C941      1.0  0.63560  0.38887  0.46854  1.0000
  H   H1501     1.0  0.67466  0.50398  0.36684  1.0000
  C   C942      1.0  0.58345  0.59597  0.49791  1.0000
  N   N94       1.0  0.65441  0.37432  0.47501  1.0000
  C   C943      1.0  0.55526  0.64946  0.49717  1.0000
  H   H1502     1.0  0.80565  0.38317  0.33140  1.0000
  C   C944      1.0  0.57670  0.65816  0.49501  1.0000
  C   C945      1.0  0.54741  0.64611  0.36745  1.0000
  H   H1503     1.0  0.53127  0.45140  0.40019  1.0000
  H   H1504     1.0  0.62223  0.37335  0.31188  1.0000
  H   H1505     1.0  0.51716  0.38224  0.42810  1.0000
  H   H1506     1.0  0.53847  0.49771  0.42695  1.0000
  H   H1507     1.0  0.70270  0.35020  0.27093  1.0000
  H   H1508     1.0  0.51619  0.47830  0.39941  1.0000
  H   H1509     1.0  0.63047  0.38321  0.45664  1.0000
  C   C946      1.0  0.61155  0.61315  0.47757  1.0000
  H   H1510     1.0  0.75161  0.35505  0.33226  1.0000
  H   H1511     1.0  0.68807  0.67936  0.27939  1.0000
  C   C947      1.0  0.54452  0.45241  0.43160  1.0000
  S   S386      1.0  0.52217  0.60954  0.40730  1.0000
  N   N95       1.0  0.52939  0.66398  0.37004  1.0000
  H   H1512     1.0  0.59833  0.61925  0.46904  1.0000
  C   C948      1.0  0.64754  0.35070  0.47805  1.0000
  H   H1513     1.0  0.66727  0.41375  0.29928  1.0000
  H   H1514     1.0  0.53423  0.67860  0.34418  1.0000
  C   C949      1.0  0.74583  0.50202  0.26017  1.0000
  H   H1515     1.0  0.62757  0.61065  0.46934  1.0000
  H   H1516     1.0  0.66398  0.35250  0.29430  1.0000
  H   H1517     1.0  0.54583  0.67780  0.38924  1.0000
  H   H1518     1.0  0.54480  0.63111  0.37685  1.0000
  H   H1519     1.0  0.66665  0.39939  0.48897  1.0000
  H   H1520     1.0  0.77680  0.48299  0.25371  1.0000
  H   H1521     1.0  0.56073  0.46074  0.42797  1.0000
  H   H1522     1.0  0.56993  0.60208  0.48959  1.0000
  H   H1523     1.0  0.58383  0.66428  0.48249  1.0000
  H   H1524     1.0  0.56427  0.65224  0.36892  1.0000
  H   H1525     1.0  0.65327  0.62681  0.25324  1.0000
  N   N96       1.0  0.52548  0.46553  0.42413  1.0000
  H   H1526     1.0  0.67039  0.37031  0.44998  1.0000
  H   H1527     1.0  0.51977  0.48688  0.44454  1.0000
  C   C950      1.0  0.52999  0.46809  0.40546  1.0000
  H   H1528     1.0  0.78092  0.35470  0.32395  1.0000
  C   C951      1.0  0.62286  0.58494  0.49946  1.0000
  H   H1529     1.0  0.63263  0.34919  0.48762  1.0000
  C   C952      1.0  0.81460  0.35613  0.29080  1.0000
  H   H1530     1.0  0.84427  0.36083  0.30319  1.0000
  C   C953      1.0  0.73449  0.52345  0.25845  1.0000
  H   H1531     1.0  0.71750  0.52570  0.26442  1.0000
  C   C954      1.0  0.52294  0.48814  0.43049  1.0000
  C   C955      1.0  0.83539  0.34909  0.29708  1.0000
  C   C956      1.0  0.76784  0.49935  0.25245  1.0000
  C   C957      1.0  0.77998  0.68125  0.25268  1.0000
  Fe  Fe193     1.0  0.57628  0.65036  0.56979  1.0000
  Fe  Fe194     1.0  0.75074  0.45088  0.72976  1.0000
  S   S387      1.0  0.75788  0.44383  0.70225  1.0000
  H   H1532     1.0  0.55200  0.38606  0.56318  1.0000
  S   S388      1.0  0.59838  0.67769  0.62360  1.0000
  S   S389      1.0  0.72399  0.40119  0.71159  1.0000
  H   H1533     1.0  0.74439  0.35145  0.70813  1.0000
  Fe  Fe195     1.0  0.76096  0.40681  0.71215  1.0000
  S   S390      1.0  0.78435  0.37910  0.70093  1.0000
  Fe  Fe196     1.0  0.72058  0.43835  0.70336  1.0000
  S   S391      1.0  0.69570  0.45450  0.68523  1.0000
  H   H1534     1.0  0.62466  0.59809  0.50822  1.0000
  S   S392      1.0  0.71349  0.44805  0.73011  1.0000
  H   H1535     1.0  0.61914  0.63830  0.68837  1.0000
  Fe  Fe197     1.0  0.56239  0.61602  0.59943  1.0000
  S   S393      1.0  0.56011  0.57912  0.60863  1.0000
  Fe  Fe198     1.0  0.53222  0.65742  0.59140  1.0000
  S   S394      1.0  0.54623  0.62937  0.57605  1.0000
  S   S395      1.0  0.54580  0.64239  0.61556  1.0000
  Fe  Fe199     1.0  0.62366  0.43549  0.56751  1.0000
  S   S396      1.0  0.60063  0.46550  0.57320  1.0000
  S   S397      1.0  0.61717  0.41934  0.54394  1.0000
  Fe  Fe200     1.0  0.64430  0.43439  0.60157  1.0000
  S   S398      1.0  0.62232  0.46398  0.60978  1.0000
  S   S399      1.0  0.67157  0.41741  0.61724  1.0000
  Fe  Fe201     1.0  0.59443  0.44777  0.59921  1.0000
  S   S400      1.0  0.55805  0.45012  0.61013  1.0000
  Fe  Fe202     1.0  0.63034  0.47894  0.58306  1.0000
  S   S401      1.0  0.63854  0.51535  0.57706  1.0000
  S   S402      1.0  0.61565  0.41659  0.59312  1.0000
  S   S403      1.0  0.65433  0.45048  0.57520  1.0000
  C   C958      1.0  0.62939  0.42991  0.52385  1.0000
  C   C959      1.0  0.65039  0.43954  0.52184  1.0000
  H   H1536     1.0  0.53185  0.54060  0.62003  1.0000
  H   H1537     1.0  0.65907  0.44150  0.53286  1.0000
  C   C960      1.0  0.56005  0.43721  0.54094  1.0000
  C   C961      1.0  0.58239  0.56184  0.59999  1.0000
  C   C962      1.0  0.58337  0.53865  0.60517  1.0000
  C   C963      1.0  0.60030  0.52432  0.59786  1.0000
  C   C964      1.0  0.61685  0.53320  0.58578  1.0000
  C   C965      1.0  0.61613  0.55645  0.58076  1.0000
  C   C966      1.0  0.59872  0.57072  0.58769  1.0000
  H   H1538     1.0  0.57108  0.53170  0.61486  1.0000
  H   H1539     1.0  0.60056  0.50644  0.60173  1.0000
  H   H1540     1.0  0.62885  0.56339  0.57137  1.0000
  H   H1541     1.0  0.59796  0.58853  0.58346  1.0000
  H   H1542     1.0  0.56198  0.66843  0.68798  1.0000
  S   S404      1.0  0.74144  0.58070  0.74984  1.0000
  C   C967      1.0  0.54202  0.38855  0.59880  1.0000
  C   C968      1.0  0.55400  0.40623  0.60333  1.0000
  C   C969      1.0  0.54287  0.42700  0.60641  1.0000
  H   H1543     1.0  0.92706  0.36610  0.73599  1.0000
  Fe  Fe203     1.0  0.57628  0.66234  0.60654  1.0000
  H   H1544     1.0  0.55083  0.37265  0.59615  1.0000
  H   H1545     1.0  0.57185  0.40372  0.60444  1.0000
  C   C970      1.0  0.91818  0.35431  0.74582  1.0000
  C   C971      1.0  0.80712  0.36331  0.71003  1.0000
  H   H1546     1.0  0.51441  0.66712  0.53326  1.0000
  Fe  Fe204     1.0  0.72012  0.41135  0.73812  1.0000
  C   C972      1.0  0.68843  0.44243  0.66718  1.0000
  C   C973      1.0  0.70247  0.42603  0.65935  1.0000
  C   C974      1.0  0.69692  0.41824  0.64420  1.0000
  C   C975      1.0  0.67726  0.42662  0.63683  1.0000
  C   C976      1.0  0.66291  0.44250  0.64495  1.0000
  C   C977      1.0  0.66856  0.45049  0.65997  1.0000
  H   H1547     1.0  0.71785  0.41974  0.66474  1.0000
  H   H1548     1.0  0.70808  0.40585  0.63806  1.0000
  H   H1549     1.0  0.64742  0.44857  0.63970  1.0000
  H   H1550     1.0  0.65751  0.46300  0.66604  1.0000
  C   C978      1.0  0.66072  0.44558  0.50547  1.0000
  H   H1551     1.0  0.80649  0.38183  0.73195  1.0000
  C   C979      1.0  0.52582  0.50515  0.60282  1.0000
  S   S405      1.0  0.76420  0.47493  0.74657  1.0000
  C   C980      1.0  0.66718  0.34956  0.74145  1.0000
  C   C981      1.0  0.81448  0.36793  0.72540  1.0000
  H   H1552     1.0  0.55081  0.63711  0.54007  1.0000
  C   C982      1.0  0.55805  0.64310  0.52760  1.0000
  H   H1553     1.0  0.67740  0.45212  0.50397  1.0000
  H   H1554     1.0  0.74173  0.50911  0.72388  1.0000
  H   H1555     1.0  0.61874  0.56900  0.50742  1.0000
  H   H1556     1.0  0.79386  0.56251  0.74069  1.0000
  C   C983      1.0  0.51423  0.53837  0.61731  1.0000
  C   C984      1.0  0.74096  0.54035  0.73582  1.0000
  H   H1557     1.0  0.76074  0.36466  0.73253  1.0000
  H   H1558     1.0  0.53331  0.43259  0.57028  1.0000
  H   H1559     1.0  0.60673  0.65250  0.71654  1.0000
  H   H1560     1.0  0.51636  0.55940  0.58601  1.0000
  C   C985      1.0  0.57921  0.65236  0.52557  1.0000
  C   C986      1.0  0.51950  0.42973  0.60563  1.0000
  S   S406      1.0  0.59394  0.63462  0.59206  1.0000
  N   N97       1.0  0.68170  0.50081  0.61542  1.0000
  C   C987      1.0  0.68240  0.48207  0.60449  1.0000
  C   C988      1.0  0.65855  0.50439  0.62356  1.0000
  C   C989      1.0  0.68836  0.52172  0.60498  1.0000
  C   C990      1.0  0.69746  0.49507  0.62859  1.0000
  H   H1561     1.0  0.67680  0.46617  0.61181  1.0000
  H   H1562     1.0  0.69970  0.47841  0.59848  1.0000
  H   H1563     1.0  0.67118  0.48609  0.59414  1.0000
  H   H1564     1.0  0.65732  0.51856  0.63178  1.0000
  H   H1565     1.0  0.64622  0.50853  0.61393  1.0000
  H   H1566     1.0  0.65297  0.48903  0.63162  1.0000
  H   H1567     1.0  0.68813  0.53622  0.61281  1.0000
  H   H1568     1.0  0.67660  0.52654  0.59502  1.0000
  H   H1569     1.0  0.70560  0.51957  0.59840  1.0000
  H   H1570     1.0  0.69690  0.50846  0.63747  1.0000
  H   H1571     1.0  0.71516  0.49273  0.62291  1.0000
  H   H1572     1.0  0.69330  0.47899  0.63634  1.0000
  H   H1573     1.0  0.52755  0.41884  0.52637  1.0000
  C   C991      1.0  0.56152  0.40087  0.55735  1.0000
  H   H1574     1.0  0.65797  0.65201  0.74026  1.0000
  C   C992      1.0  0.75658  0.50412  0.74759  1.0000
  H   H1575     1.0  0.52960  0.63477  0.51516  1.0000
  C   C993      1.0  0.74859  0.35426  0.74097  1.0000
  C   C994      1.0  0.60387  0.64731  0.68346  1.0000
  S   S407      1.0  0.59383  0.65591  0.54320  1.0000
  C   C995      1.0  0.54607  0.64179  0.51347  1.0000
  C   C996      1.0  0.68013  0.36791  0.74327  1.0000
  H   H1576     1.0  0.59019  0.63519  0.68484  1.0000
  C   C997      1.0  0.52758  0.42512  0.55928  1.0000
  H   H1577     1.0  0.54950  0.45048  0.53413  1.0000
  N   N98       1.0  0.54697  0.41751  0.54783  1.0000
  N   N99       1.0  0.59703  0.66756  0.69247  1.0000
  C   C998      1.0  0.59172  0.66080  0.71073  1.0000
  C   C999      1.0  0.74580  0.51699  0.73479  1.0000
  C   C1000     1.0  0.53869  0.40683  0.53381  1.0000
  H   H1578     1.0  0.57612  0.39441  0.54904  1.0000
  H   H1579     1.0  0.68665  0.37834  0.73220  1.0000
  H   H1580     1.0  0.73319  0.55030  0.72562  1.0000
  C   C1001     1.0  0.61840  0.42726  0.50944  1.0000
  H   H1581     1.0  0.81879  0.58416  0.71881  1.0000
  C   C1002     1.0  0.65980  0.66493  0.74859  1.0000
  C   C1003     1.0  0.83261  0.35484  0.73212  1.0000
  H   H1582     1.0  0.52879  0.39187  0.53871  1.0000
  H   H1583     1.0  0.57447  0.43223  0.53191  1.0000
  C   C1004     1.0  0.58863  0.65963  0.50921  1.0000
  H   H1584     1.0  0.54381  0.50645  0.60506  1.0000
  C   C1005     1.0  0.74621  0.55094  0.74985  1.0000
  N   N100      1.0  0.81286  0.59067  0.74496  1.0000
  H   H1585     1.0  0.84249  0.57723  0.73097  1.0000
  S   S408      1.0  0.75712  0.41428  0.73930  1.0000
  H   H1586     1.0  0.90082  0.35296  0.74205  1.0000
  H   H1587     1.0  0.71692  0.35073  0.71959  1.0000
  H   H1588     1.0  0.55293  0.40087  0.52494  1.0000
  H   H1589     1.0  0.57791  0.64884  0.71299  1.0000
  C   C1006     1.0  0.57684  0.67906  0.68548  1.0000
  C   C1007     1.0  0.82793  0.58955  0.72914  1.0000
  H   H1590     1.0  0.51646  0.43807  0.55269  1.0000
  H   H1591     1.0  0.58640  0.67579  0.71780  1.0000
  C   C1008     1.0  0.51889  0.39165  0.59714  1.0000
  H   H1592     1.0  0.54268  0.54421  0.58895  1.0000
  H   H1593     1.0  0.78391  0.60257  0.73181  1.0000
  H   H1594     1.0  0.56866  0.40850  0.56774  1.0000
  C   C1009     1.0  0.79385  0.60721  0.74196  1.0000
  H   H1595     1.0  0.58456  0.60896  0.50689  1.0000
  H   H1596     1.0  0.60500  0.66687  0.50756  1.0000
  H   H1597     1.0  0.51813  0.49376  0.61352  1.0000
  H   H1598     1.0  0.52575  0.49645  0.59109  1.0000
  H   H1599     1.0  0.60228  0.41963  0.51084  1.0000
  H   H1600     1.0  0.56732  0.44500  0.55121  1.0000
  H   H1601     1.0  0.52434  0.53478  0.57488  1.0000
  H   H1602     1.0  0.83475  0.60633  0.72469  1.0000
  H   H1603     1.0  0.51699  0.41077  0.56436  1.0000
  H   H1604     1.0  0.73307  0.36518  0.74361  1.0000
  H   H1605     1.0  0.52218  0.66668  0.55450  1.0000
  H   H1606     1.0  0.79966  0.62461  0.73841  1.0000
  H   H1607     1.0  0.57789  0.58028  0.50556  1.0000
  C   C1010     1.0  0.52470  0.54210  0.58716  1.0000
  C   C1011     1.0  0.80399  0.56817  0.75037  1.0000
  H   H1608     1.0  0.60792  0.65195  0.66960  1.0000
  H   H1609     1.0  0.83845  0.35882  0.74385  1.0000
  H   H1610     1.0  0.63082  0.67543  0.69624  1.0000
  N   N101      1.0  0.51368  0.52764  0.60140  1.0000
  S   S409      1.0  0.56123  0.67977  0.58353  1.0000
  Fe  Fe205     1.0  0.60661  0.57722  0.93760  1.0000
  S   S410      1.0  0.63681  0.59638  0.94086  1.0000
  S   S411      1.0  0.57222  0.59012  0.94789  1.0000
  Fe  Fe206     1.0  0.63485  0.53815  0.92383  1.0000
  S   S412      1.0  0.66754  0.55391  0.92606  1.0000
  S   S413      1.0  0.63565  0.50401  0.91391  1.0000
  Fe  Fe207     1.0  0.65140  0.56294  0.95142  1.0000
  S   S414      1.0  0.67086  0.55741  0.97463  1.0000
  Fe  Fe208     1.0  0.65022  0.58582  0.91519  1.0000
  S   S415      1.0  0.66754  0.61207  0.89647  1.0000
  S   S416      1.0  0.62024  0.54440  0.95007  1.0000
  S   S417      1.0  0.61851  0.56943  0.91102  1.0000
  H   H1611     1.0  0.63041  0.46160  0.96455  1.0000
  Fe  Fe209     1.0  0.54931  0.41739  0.92220  1.0000
  S   S418      1.0  0.54417  0.45459  0.92541  1.0000
  S   S419      1.0  0.53751  0.40114  0.90078  1.0000
  S   S420      1.0  0.57665  0.35759  0.96517  1.0000
  Fe  Fe210     1.0  0.72236  0.64427  0.78756  1.0000
  S   S421      1.0  0.74677  0.64203  0.80758  1.0000
  H   H1612     1.0  0.68574  0.60135  0.92798  1.0000
  Fe  Fe211     1.0  0.74334  0.60173  0.77204  1.0000
  S   S422      1.0  0.76919  0.59639  0.79080  1.0000
  S   S423      1.0  0.58200  0.39654  0.92206  1.0000
  Fe  Fe212     1.0  0.74042  0.60492  0.81013  1.0000
  S   S424      1.0  0.73299  0.58148  0.83396  1.0000
  Fe  Fe213     1.0  0.77323  0.63411  0.78647  1.0000
  S   S425      1.0  0.80792  0.64810  0.77842  1.0000
  S   S426      1.0  0.71425  0.60771  0.79153  1.0000
  H   H1613     1.0  0.67053  0.63168  0.79903  1.0000
  C   C1012     1.0  0.69170  0.61155  0.95929  1.0000
  H   H1614     1.0  0.65091  0.65479  0.80306  1.0000
  C   C1013     1.0  0.70571  0.46109  0.80045  1.0000
  S   S427      1.0  0.69636  0.67352  0.78775  1.0000
  C   C1014     1.0  0.68729  0.44760  0.77802  1.0000
  C   C1015     1.0  0.71621  0.58173  0.94791  1.0000
  H   H1615     1.0  0.71186  0.47891  0.75840  1.0000
  H   H1616     1.0  0.55888  0.40337  0.97024  1.0000
  C   C1016     1.0  0.63072  0.43429  0.93965  1.0000
  S   S428      1.0  0.58665  0.37217  0.87629  1.0000
  N   N102      1.0  0.61832  0.43138  0.95668  1.0000
  C   C1017     1.0  0.56499  0.39577  0.98192  1.0000
  C   C1018     1.0  0.68628  0.60320  0.87952  1.0000
  C   C1019     1.0  0.68949  0.58040  0.87659  1.0000
  C   C1020     1.0  0.70409  0.57396  0.86269  1.0000
  C   C1021     1.0  0.71535  0.59025  0.85152  1.0000
  C   C1022     1.0  0.71235  0.61304  0.85456  1.0000
  C   C1023     1.0  0.69793  0.61946  0.86858  1.0000
  H   H1617     1.0  0.68064  0.56771  0.88495  1.0000
  H   H1618     1.0  0.70647  0.55627  0.86048  1.0000
  H   H1619     1.0  0.72134  0.62564  0.84622  1.0000
  H   H1620     1.0  0.69575  0.63709  0.87093  1.0000
  C   C1024     1.0  0.60947  0.49166  0.91577  1.0000
  C   C1025     1.0  0.60790  0.47100  0.90905  1.0000
  C   C1026     1.0  0.58771  0.45976  0.91166  1.0000
  C   C1027     1.0  0.56892  0.46931  0.92082  1.0000
  C   C1028     1.0  0.57020  0.49038  0.92704  1.0000
  C   C1029     1.0  0.59050  0.50153  0.92457  1.0000
  H   H1621     1.0  0.62247  0.46350  0.90203  1.0000
  H   H1622     1.0  0.58667  0.44376  0.90652  1.0000
  H   H1623     1.0  0.55568  0.49775  0.93417  1.0000
  H   H1624     1.0  0.59160  0.51754  0.92970  1.0000
  H   H1625     1.0  0.52037  0.61656  0.99333  1.0000
  C   C1030     1.0  0.81993  0.66939  0.78830  1.0000
  Fe  Fe214     1.0  0.56844  0.37776  0.90221  1.0000
  H   H1626     1.0  0.69746  0.60697  0.97213  1.0000
  H   H1627     1.0  0.63370  0.59067  0.97963  1.0000
  C   C1031     1.0  0.72915  0.61958  0.94660  1.0000
  C   C1032     1.0  0.75624  0.53787  0.76296  1.0000
  H   H1628     1.0  0.69475  0.64287  0.82037  1.0000
  C   C1033     1.0  0.54584  0.61710  0.90495  1.0000
  C   C1034     1.0  0.56097  0.60637  0.91602  1.0000
  C   C1035     1.0  0.55595  0.60647  0.93357  1.0000
  S   S429      1.0  0.53070  0.39481  0.94236  1.0000
  H   H1629     1.0  0.67518  0.66654  0.82310  1.0000
  H   H1630     1.0  0.54924  0.61618  0.89143  1.0000
  H   H1631     1.0  0.57599  0.59728  0.91101  1.0000
  C   C1036     1.0  0.70959  0.48051  0.77230  1.0000
  H   H1632     1.0  0.67638  0.60203  0.95874  1.0000
  H   H1633     1.0  0.69476  0.62958  0.92690  1.0000
  C   C1037     1.0  0.68443  0.37278  0.75941  1.0000
  H   H1634     1.0  0.79398  0.67100  0.80901  1.0000
  H   H1635     1.0  0.62074  0.44133  0.98163  1.0000
  H   H1636     1.0  0.70186  0.57111  0.94668  1.0000
  H   H1637     1.0  0.72998  0.57710  0.93818  1.0000
  H   H1638     1.0  0.62199  0.42644  0.93014  1.0000
  C   C1038     1.0  0.70050  0.61145  0.92905  1.0000
  S   S430      1.0  0.74901  0.63897  0.76633  1.0000
  H   H1639     1.0  0.71327  0.60761  0.91840  1.0000
  H   H1640     1.0  0.59484  0.45944  0.95122  1.0000
  H   H1641     1.0  0.68561  0.64553  0.76186  1.0000
  H   H1642     1.0  0.73625  0.61587  0.95905  1.0000
  C   C1039     1.0  0.57358  0.37330  0.98305  1.0000
  H   H1643     1.0  0.72455  0.63804  0.94496  1.0000
  C   C1040     1.0  0.62974  0.44316  0.96864  1.0000
  Fe  Fe215     1.0  0.56248  0.37284  0.94104  1.0000
  H   H1644     1.0  0.59946  0.36412  0.84167  1.0000
  H   H1645     1.0  0.64813  0.42643  0.93958  1.0000
  H   H1646     1.0  0.54335  0.38022  0.86041  1.0000
  H   H1647     1.0  0.81457  0.59893  0.77050  1.0000
  C   C1041     1.0  0.66037  0.57205  0.99218  1.0000
  H   H1648     1.0  0.64738  0.43622  0.96957  1.0000
  C   C1042     1.0  0.67883  0.64850  0.82766  1.0000
  H   H1649     1.0  0.63223  0.45253  0.93516  1.0000
  H   H1650     1.0  0.72975  0.44105  0.76408  1.0000
  H   H1651     1.0  0.67165  0.45812  0.78115  1.0000
  H   H1652     1.0  0.63464  0.65965  0.83256  1.0000
  S   S431      1.0  0.70175  0.39485  0.76191  1.0000
  H   H1653     1.0  0.60993  0.40429  0.97581  1.0000
  H   H1654     1.0  0.84000  0.58574  0.76110  1.0000
  H   H1655     1.0  0.72448  0.48912  0.77539  1.0000
  H   H1656     1.0  0.68818  0.44509  0.76430  1.0000
  H   H1657     1.0  0.81775  0.55507  0.75263  1.0000
  C   C1043     1.0  0.52962  0.55076  0.92261  1.0000
  C   C1044     1.0  0.80962  0.67773  0.80315  1.0000
  C   C1045     1.0  0.65544  0.63685  0.80742  1.0000
  H   H1658     1.0  0.66862  0.60760  0.84435  1.0000
  C   C1046     1.0  0.67783  0.67785  0.77167  1.0000
  H   H1659     1.0  0.63508  0.39876  0.96237  1.0000
  C   C1047     1.0  0.72782  0.44352  0.77779  1.0000
  H   H1660     1.0  0.69067  0.47218  0.80417  1.0000
  H   H1661     1.0  0.77004  0.50484  0.77166  1.0000
  H   H1662     1.0  0.72686  0.42640  0.78481  1.0000
  H   H1663     1.0  0.78196  0.60787  0.75353  1.0000
  N   N103      1.0  0.66007  0.63430  0.82543  1.0000
  C   C1048     1.0  0.53656  0.61843  0.93995  1.0000
  H   H1664     1.0  0.53284  0.61890  0.95349  1.0000
  C   C1049     1.0  0.58141  0.36367  0.99835  1.0000
  H   H1665     1.0  0.69442  0.49192  0.77487  1.0000
  C   C1050     1.0  0.66629  0.61033  0.83059  1.0000
  H   H1666     1.0  0.68242  0.60456  0.82363  1.0000
  H   H1667     1.0  0.72200  0.57671  0.96068  1.0000
  H   H1668     1.0  0.68635  0.62984  0.95823  1.0000
  H   H1669     1.0  0.67852  0.36329  0.78626  1.0000
  H   H1670     1.0  0.54258  0.34966  0.88322  1.0000
  H   H1671     1.0  0.72083  0.46896  0.80397  1.0000
  N   N104      1.0  0.70940  0.60609  0.94572  1.0000
  H   H1672     1.0  0.74279  0.61591  0.93650  1.0000
  C   C1051     1.0  0.63972  0.64160  0.83607  1.0000
  N   N105      1.0  0.51758  0.35603  0.86545  1.0000
  H   H1673     1.0  0.68213  0.64790  0.84118  1.0000
  H   H1674     1.0  0.60802  0.39777  0.95451  1.0000
  C   C1052     1.0  0.52587  0.62811  0.91144  1.0000
  H   H1675     1.0  0.65309  0.59896  0.82821  1.0000
  N   N106      1.0  0.70758  0.45819  0.78214  1.0000
  H   H1676     1.0  0.76016  0.54570  0.77392  1.0000
  H   H1677     1.0  0.55947  0.42639  0.99455  1.0000
  S   S432      1.0  0.55170  0.35212  0.92126  1.0000
  H   H1678     1.0  0.58526  0.43962  0.96855  1.0000
  H   H1679     1.0  0.58568  0.43254  0.94717  1.0000
  H   H1680     1.0  0.70413  0.44455  0.80823  1.0000
  C   C1053     1.0  0.64190  0.58760  0.99121  1.0000
  C   C1054     1.0  0.56538  0.40880  0.99569  1.0000
  C   C1055     1.0  0.59502  0.44117  0.95589  1.0000
  H   H1681     1.0  0.51568  0.35997  0.89203  1.0000
  C   C1056     1.0  0.61783  0.40703  0.96256  1.0000
  C   C1057     1.0  0.84034  0.67829  0.78094  1.0000
  H   H1682     1.0  0.74354  0.45105  0.78053  1.0000
  H   H1683     1.0  0.84852  0.67191  0.76950  1.0000
  H   H1684     1.0  0.53389  0.54275  0.91057  1.0000
  H   H1685     1.0  0.53654  0.53925  0.93296  1.0000
  Fe  Fe216     1.0  0.52152  0.37665  0.92095  1.0000
  H   H1686     1.0  0.64140  0.62643  0.80514  1.0000
  H   H1687     1.0  0.83218  0.61488  0.75487  1.0000
  C   C1058     1.0  0.52169  0.62942  0.92890  1.0000
  H   H1688     1.0  0.53886  0.56658  0.92159  1.0000
  H   H1689     1.0  0.79263  0.56848  0.76233  1.0000
  H   H1690     1.0  0.68542  0.43057  0.78507  1.0000
  C   C1059     1.0  0.67530  0.35953  0.77374  1.0000
  C   C1060     1.0  0.76176  0.51468  0.76167  1.0000
  H   H1691     1.0  0.62521  0.63125  0.83471  1.0000
  C   C1061     1.0  0.82553  0.59779  0.75840  1.0000
  H   H1692     1.0  0.64269  0.63986  0.84976  1.0000
  C   C1062     1.0  0.67547  0.66124  0.76081  1.0000
  C   C1063     1.0  0.52476  0.37924  0.86022  1.0000
  H   H1693     1.0  0.52053  0.38513  0.84716  1.0000
  H   H1694     1.0  0.91646  0.36221  0.75800  1.0000
  H   H1695     1.0  0.51646  0.39150  0.86887  1.0000
  H   H1696     1.0  0.75610  0.34985  0.75318  1.0000
  C   C1064     1.0  0.52412  0.34885  0.88265  1.0000
  Fe  Fe217     1.0  0.95526  0.86440  0.09521  1.0000
  S   S433      1.0  0.95222  0.90190  0.09748  1.0000
  S   S434      1.0  0.96226  0.83675  0.11599  1.0000
  Fe  Fe218     1.0  0.95281  0.86979  0.05689  1.0000
  S   S435      1.0  0.94954  0.90761  0.05579  1.0000
  S   S436      1.0  0.95501  0.84770  0.03512  1.0000
  Fe  Fe219     1.0  0.97629  0.90439  0.07389  1.0000
  Fe  Fe220     1.0  0.92576  0.90223  0.07930  1.0000
  S   S437      1.0  0.89316  0.92321  0.08063  1.0000
  S   S438      1.0  0.98180  0.86701  0.07302  1.0000
  S   S439      1.0  0.92660  0.86451  0.07899  1.0000
  Fe  Fe221     1.0  0.89633  0.78560  0.19908  1.0000
  S   S440      1.0  0.90338  0.80418  0.22096  1.0000
  S   S441      1.0  0.88738  0.80585  0.17476  1.0000
  Fe  Fe222     1.0  0.89199  0.74064  0.22096  1.0000
  S   S442      1.0  0.88092  0.70432  0.22522  1.0000
  Fe  Fe223     1.0  0.87608  0.78472  0.23586  1.0000
  H   H1697     1.0  0.79696  0.84341  0.21468  1.0000
  Fe  Fe224     1.0  0.92685  0.77417  0.22791  1.0000
  H   H1698     1.0  0.86785  0.00361  0.14637  1.0000
  S   S443      1.0  0.86692  0.76835  0.21361  1.0000
  S   S444      1.0  0.92151  0.75655  0.20473  1.0000
  H   H1699     1.0  0.80432  0.70922  0.23033  1.0000
  H   H1700     1.0  0.74856  0.01109  0.23271  1.0000
  H   H1701     1.0  0.85557  0.72219  0.19680  1.0000
  H   H1702     1.0  0.86737  0.83240  0.19998  1.0000
  C   C1065     1.0  0.85408  0.83580  0.21038  1.0000
  C   C1066     1.0  0.57905  0.75323  0.23677  1.0000
  H   H1703     1.0  0.83995  0.80917  0.18904  1.0000
  H   H1704     1.0  0.85768  0.85203  0.21515  1.0000
  C   C1067     1.0  0.59131  0.79114  0.22953  1.0000
  H   H1705     1.0  0.81487  0.82910  0.22962  1.0000
  H   H1706     1.0  0.81018  0.81439  0.19430  1.0000
  H   H1707     1.0  0.80194  0.00756  0.24642  1.0000
  H   H1708     1.0  0.91236  0.79190  0.09834  1.0000
  H   H1709     1.0  0.79932  0.72121  0.25024  1.0000
  H   H1710     1.0  0.79245  0.98116  0.24153  1.0000
  H   H1711     1.0  0.95125  0.96775  0.10035  1.0000
  H   H1712     1.0  0.93749  0.79494  0.10848  1.0000
  H   H1713     1.0  0.81292  0.85513  0.18529  1.0000
  H   H1714     1.0  0.67514  0.71463  0.22190  1.0000
  H   H1715     1.0  0.57086  0.75806  0.24912  1.0000
  H   H1716     1.0  0.85598  0.82214  0.22079  1.0000
  H   H1717     1.0  0.84253  0.85006  0.17930  1.0000
  H   H1718     1.0  0.78565  0.73384  0.23222  1.0000
  H   H1719     1.0  0.81753  0.85862  0.22339  1.0000
  H   H1720     1.0  0.77411  0.68928  0.21962  1.0000
  C   C1068     1.0  0.94144  0.82924  0.13262  1.0000
  C   C1069     1.0  0.94735  0.81383  0.14619  1.0000
  C   C1070     1.0  0.93102  0.80679  0.15934  1.0000
  C   C1071     1.0  0.90857  0.81487  0.15884  1.0000
  C   C1072     1.0  0.90264  0.83020  0.14521  1.0000
  C   C1073     1.0  0.91903  0.83750  0.13219  1.0000
  H   H1721     1.0  0.96466  0.80735  0.14657  1.0000
  H   H1722     1.0  0.93577  0.79495  0.16976  1.0000
  H   H1723     1.0  0.88530  0.83652  0.14474  1.0000
  H   H1724     1.0  0.91430  0.84937  0.12179  1.0000
  C   C1074     1.0  0.89504  0.94894  0.08928  1.0000
  C   C1075     1.0  0.90452  0.94957  0.10459  1.0000
  C   C1076     1.0  0.90592  0.97034  0.11132  1.0000
  C   C1077     1.0  0.89844  0.99052  0.10250  1.0000
  C   C1078     1.0  0.88898  0.98986  0.08720  1.0000
  C   C1079     1.0  0.88698  0.96907  0.08074  1.0000
  H   H1725     1.0  0.91057  0.93402  0.11130  1.0000
  H   H1726     1.0  0.91323  0.97077  0.12317  1.0000
  H   H1727     1.0  0.81676  0.99302  0.22958  1.0000
  H   H1728     1.0  0.87960  0.96863  0.06891  1.0000
  C   C1080     1.0  0.94660  0.86022  0.01553  1.0000
  C   C1081     1.0  0.93677  0.88219  0.01400  1.0000
  H   H1729     1.0  0.91433  0.79406  0.06673  1.0000
  H   H1730     1.0  0.93373  0.89160  0.02501  1.0000
  H   H1731     1.0  0.58217  0.75199  0.20303  1.0000
  H   H1732     1.0  0.82744  0.80088  0.21001  1.0000
  C   C1082     1.0  0.82989  0.85401  0.19006  1.0000
  H   H1733     1.0  0.59646  0.74649  0.23894  1.0000
  C   C1083     1.0  0.84797  0.70696  0.20271  1.0000
  H   H1734     1.0  0.81417  0.94528  0.24895  1.0000
  H   H1735     1.0  0.85691  0.01501  0.16581  1.0000
  H   H1736     1.0  0.59196  0.80617  0.22003  1.0000
  H   H1737     1.0  0.96071  0.82517  0.07982  1.0000
  H   H1738     1.0  0.58278  0.79690  0.24160  1.0000
  C   C1084     1.0  0.99107  0.75241  0.24175  1.0000
  C   C1085     1.0  0.82698  0.81430  0.19923  1.0000
  C   C1086     1.0  0.94779  0.77023  0.08196  1.0000
  H   H1739     1.0  0.74715  0.68721  0.23168  1.0000
  H   H1740     1.0  0.83327  0.87101  0.19363  1.0000
  N   N107      1.0  0.83129  0.83661  0.20457  1.0000
  C   C1087     1.0  0.81439  0.84222  0.21863  1.0000
  H   H1741     1.0  0.82392  0.00810  0.12963  1.0000
  H   H1742     1.0  0.86390  0.87732  0.25079  1.0000
  H   H1743     1.0  0.99977  0.97226  0.08554  1.0000
  H   H1744     1.0  0.98284  0.00536  0.05687  1.0000
  H   H1745     1.0  0.97375  0.80143  0.09123  1.0000
  H   H1746     1.0  0.74799  0.73047  0.24885  1.0000
  C   C1088     1.0  0.83000  0.69829  0.19558  1.0000
  H   H1747     1.0  0.60898  0.78549  0.23187  1.0000
  H   H1748     1.0  0.59160  0.78016  0.19764  1.0000
  C   C1089     1.0  0.59091  0.76579  0.20772  1.0000
  C   C1090     1.0  0.67790  0.70689  0.23445  1.0000
  N   N108      1.0  0.57925  0.77278  0.22378  1.0000
  C   C1091     1.0  0.96404  0.80659  0.08010  1.0000
  H   H1749     1.0  0.51655  0.69714  0.13149  1.0000
  H   H1750     1.0  0.95844  0.76559  0.07040  1.0000
  H   H1751     1.0  0.95706  0.76404  0.09314  1.0000
  H   H1752     1.0  0.97501  0.80332  0.06836  1.0000
  C   C1092     1.0  0.55581  0.78091  0.22116  1.0000
  C   C1093     1.0  0.92866  0.80030  0.09693  1.0000
  H   H1753     1.0  0.93881  0.96998  0.08052  1.0000
  H   H1754     1.0  0.83851  0.95646  0.23652  1.0000
  H   H1755     1.0  0.93207  0.76086  0.08293  1.0000
  H   H1756     1.0  0.75552  0.71397  0.22133  1.0000
  N   N109      1.0  0.94273  0.79490  0.08133  1.0000
  H   H1757     1.0  0.92475  0.81882  0.09702  1.0000
  H   H1758     1.0  0.56960  0.73920  0.23314  1.0000
  H   H1759     1.0  0.98069  0.74222  0.23546  1.0000
  H   H1760     1.0  0.92649  0.82107  0.06542  1.0000
  H   H1761     1.0  0.53497  0.69196  0.11281  1.0000
  H   H1762     1.0  0.94082  0.79906  0.05431  1.0000
  C   C1094     1.0  0.95506  0.96929  0.08635  1.0000
  S   S445      1.0  0.89949  0.75600  0.24441  1.0000
  H   H1763     1.0  0.54697  0.78722  0.23290  1.0000
  C   C1095     1.0  0.93051  0.80251  0.06633  1.0000
  S   S446      1.0  0.64366  0.73626  0.24568  1.0000
  H   H1764     1.0  0.70463  0.68376  0.22548  1.0000
  H   H1765     1.0  0.99973  0.00257  0.08426  1.0000
  H   H1766     1.0  0.55527  0.79514  0.21101  1.0000
  S   S447      1.0  0.00282  0.93018  0.06960  1.0000
  H   H1767     1.0  0.85261  0.99310  0.24284  1.0000
  H   H1768     1.0  0.82385  0.70702  0.18422  1.0000
  H   H1769     1.0  0.95039  0.00973  0.09892  1.0000
  C   C1096     1.0  0.98354  0.77445  0.24492  1.0000
  H   H1770     1.0  0.95731  0.99138  0.05533  1.0000
  H   H1771     1.0  0.96447  0.95340  0.08301  1.0000
  H   H1772     1.0  0.60861  0.75944  0.20941  1.0000
  H   H1773     1.0  0.54575  0.76722  0.21768  1.0000
  N   N110      1.0  0.96803  0.98939  0.08042  1.0000
  C   C1097     1.0  0.85679  0.69533  0.21692  1.0000
  S   S448      1.0  0.95728  0.78687  0.23892  1.0000
  C   C1098     1.0  0.66478  0.71449  0.24861  1.0000
  H   H1774     1.0  0.98323  0.97501  0.05804  1.0000
  C   C1099     1.0  0.51710  0.69589  0.11759  1.0000
  C   C1100     1.0  0.79110  0.71742  0.23896  1.0000
  H   H1775     1.0  0.93823  0.01161  0.07916  1.0000
  C   C1101     1.0  0.69466  0.68939  0.23647  1.0000
  C   C1102     1.0  0.97308  0.99038  0.06182  1.0000
  H   H1776     1.0  0.84075  0.99581  0.15640  1.0000
  C   C1103     1.0  0.98936  0.98779  0.08856  1.0000
  H   H1777     1.0  0.98615  0.98704  0.10261  1.0000
  C   C1104     1.0  0.95457  0.01000  0.08495  1.0000
  H   H1778     1.0  0.88333  0.00534  0.08021  1.0000
  C   C1105     1.0  0.80779  0.99052  0.24250  1.0000
  N   N111      1.0  0.77189  0.70279  0.24381  1.0000
  H   H1779     1.0  0.87348  0.83713  0.24559  1.0000
  C   C1106     1.0  0.01228  0.74362  0.24652  1.0000
  C   C1107     1.0  0.85214  0.01009  0.15357  1.0000
  C   C1108     1.0  0.76173  0.69813  0.22843  1.0000
  H   H1780     1.0  0.95748  0.83098  0.00228  1.0000
  C   C1109     1.0  0.82912  0.95550  0.24933  1.0000
  Fe  Fe225     1.0  0.85500  0.95379  0.44384  1.0000
  S   S449      1.0  0.88055  0.97930  0.44475  1.0000
  S   S450      1.0  0.83566  0.94335  0.46892  1.0000
  Fe  Fe226     1.0  0.86039  0.95575  0.40519  1.0000
  S   S451      1.0  0.88591  0.98244  0.40339  1.0000
  S   S452      1.0  0.85740  0.94400  0.37911  1.0000
  Fe  Fe227     1.0  0.90086  0.96137  0.42468  1.0000
  S   S453      1.0  0.93862  0.96095  0.42320  1.0000
  H   H1781     1.0  0.99021  0.94798  0.46104  1.0000
  H   H1782     1.0  0.76689  0.95350  0.32938  1.0000
  S   S454      1.0  0.87705  0.93341  0.42553  1.0000
  S   S455      1.0  0.83637  0.97407  0.42361  1.0000
  C   C1110     1.0  0.90455  0.79608  0.29963  1.0000
  H   H1783     1.0  0.88294  0.93275  0.47373  1.0000
  Fe  Fe228     1.0  0.62526  0.74881  0.26950  1.0000
  S   S456      1.0  0.63823  0.74719  0.29507  1.0000
  Fe  Fe229     1.0  0.57984  0.77121  0.28121  1.0000
  S   S457      1.0  0.58925  0.77166  0.30799  1.0000
  Fe  Fe230     1.0  0.62343  0.78278  0.29616  1.0000
  S   S458      1.0  0.64257  0.80662  0.30984  1.0000
  Fe  Fe231     1.0  0.60368  0.73633  0.30512  1.0000
  S   S459      1.0  0.60168  0.70481  0.32353  1.0000
  S   S460      1.0  0.59184  0.73501  0.27931  1.0000
  Fe  Fe232     1.0  0.77057  0.90886  0.32020  1.0000
  S   S461      1.0  0.79206  0.93186  0.30249  1.0000
  S   S462      1.0  0.77376  0.90651  0.34858  1.0000
  Fe  Fe233     1.0  0.74220  0.89802  0.29208  1.0000
  S   S463      1.0  0.76159  0.92177  0.27255  1.0000
  S   S464      1.0  0.71599  0.87866  0.28088  1.0000
  Fe  Fe234     1.0  0.79219  0.90574  0.28407  1.0000
  S   S465      1.0  0.82456  0.89927  0.26740  1.0000
  Fe  Fe235     1.0  0.75971  0.94606  0.29257  1.0000
  S   S466      1.0  0.75622  0.98446  0.29271  1.0000
  S   S467      1.0  0.77332  0.88100  0.30267  1.0000
  S   S468      1.0  0.73779  0.92398  0.31119  1.0000
  H   H1784     1.0  0.78778  0.68410  0.26435  1.0000
  C   C1111     1.0  0.82127  0.83154  0.26648  1.0000
  H   H1785     1.0  0.76174  0.71814  0.26692  1.0000
  H   H1786     1.0  0.79433  0.96636  0.27152  1.0000
  H   H1787     1.0  0.99179  0.80455  0.25551  1.0000
  C   C1112     1.0  0.59569  0.70500  0.34561  1.0000
  C   C1113     1.0  0.58680  0.72436  0.35305  1.0000
  C   C1114     1.0  0.58214  0.72360  0.37078  1.0000
  H   H1788     1.0  0.73593  0.94030  0.34966  1.0000
  S   S469      1.0  0.54696  0.78689  0.27141  1.0000
  H   H1789     1.0  0.90886  0.76002  0.28148  1.0000
  H   H1790     1.0  0.58330  0.73979  0.34514  1.0000
  H   H1791     1.0  0.57510  0.73855  0.37652  1.0000
  H   H1792     1.0  0.93400  0.76151  0.29198  1.0000
  H   H1793     1.0  0.82019  0.96647  0.28122  1.0000
  C   C1115     1.0  0.66354  0.82597  0.30149  1.0000
  C   C1116     1.0  0.66864  0.83120  0.28407  1.0000
  C   C1117     1.0  0.68482  0.84721  0.27807  1.0000
  C   C1118     1.0  0.69635  0.85801  0.28935  1.0000
  C   C1119     1.0  0.69151  0.85248  0.30679  1.0000
  C   C1120     1.0  0.67512  0.83667  0.31279  1.0000
  H   H1794     1.0  0.68833  0.85138  0.26457  1.0000
  H   H1795     1.0  0.70011  0.86068  0.31563  1.0000
  H   H1796     1.0  0.67127  0.83291  0.32630  1.0000
  C   C1121     1.0  0.59983  0.68499  0.35595  1.0000
  H   H1797     1.0  0.00339  0.87967  0.48151  1.0000
  H   H1798     1.0  0.73610  0.99704  0.36544  1.0000
  H   H1799     1.0  0.53897  0.73908  0.26913  1.0000
  C   C1122     1.0  0.83118  0.87076  0.26380  1.0000
  C   C1123     1.0  0.81585  0.85418  0.26939  1.0000
  C   C1124     1.0  0.75675  0.00459  0.27470  1.0000
  H   H1800     1.0  0.79971  0.85878  0.27589  1.0000
  H   H1801     1.0  0.51615  0.68496  0.38965  1.0000
  Fe  Fe236     1.0  0.86365  0.99843  0.42356  1.0000
  C   C1125     1.0  0.66853  0.70447  0.26479  1.0000
  H   H1802     1.0  0.91348  0.78863  0.31066  1.0000
  H   H1803     1.0  0.91618  0.80261  0.25687  1.0000
  H   H1804     1.0  0.72790  0.96981  0.32651  1.0000
  C   C1126     1.0  0.83350  0.93429  0.37101  1.0000
  C   C1127     1.0  0.81388  0.92878  0.38134  1.0000
  C   C1128     1.0  0.79577  0.92011  0.37434  1.0000
  C   C1129     1.0  0.79699  0.91718  0.35695  1.0000
  C   C1130     1.0  0.81648  0.92304  0.34661  1.0000
  C   C1131     1.0  0.83467  0.93140  0.35363  1.0000
  H   H1805     1.0  0.81282  0.93077  0.39476  1.0000
  H   H1806     1.0  0.78081  0.91550  0.38248  1.0000
  H   H1807     1.0  0.81776  0.92068  0.33326  1.0000
  H   H1808     1.0  0.84980  0.93554  0.34554  1.0000
  C   C1132     1.0  0.95313  0.93452  0.42392  1.0000
  C   C1133     1.0  0.94273  0.91505  0.43135  1.0000
  C   C1134     1.0  0.95534  0.89433  0.43280  1.0000
  C   C1135     1.0  0.97822  0.89315  0.42672  1.0000
  C   C1136     1.0  0.98826  0.91246  0.41869  1.0000
  C   C1137     1.0  0.97579  0.93316  0.41743  1.0000
  H   H1809     1.0  0.92525  0.91610  0.43648  1.0000
  H   H1810     1.0  0.94755  0.87936  0.43900  1.0000
  H   H1811     1.0  0.89996  0.81416  0.30148  1.0000
  H   H1812     1.0  0.98380  0.94820  0.41157  1.0000
  C   C1138     1.0  0.75188  0.99170  0.35787  1.0000
  C   C1139     1.0  0.85049  0.93963  0.48715  1.0000
  H   H1813     1.0  0.87661  0.98967  0.50056  1.0000
  N   N112      1.0  0.92229  0.91250  0.38105  1.0000
  C   C1140     1.0  0.91504  0.90923  0.36428  1.0000
  C   C1141     1.0  0.92159  0.93694  0.38311  1.0000
  C   C1142     1.0  0.94555  0.90279  0.38236  1.0000
  C   C1143     1.0  0.90687  0.90110  0.39447  1.0000
  H   H1814     1.0  0.91535  0.89098  0.36225  1.0000
  H   H1815     1.0  0.92614  0.91782  0.35384  1.0000
  H   H1816     1.0  0.89745  0.91636  0.36306  1.0000
  H   H1817     1.0  0.92610  0.94004  0.39583  1.0000
  H   H1818     1.0  0.93353  0.94605  0.37357  1.0000
  H   H1819     1.0  0.90445  0.94497  0.38174  1.0000
  H   H1820     1.0  0.94674  0.88429  0.38106  1.0000
  H   H1821     1.0  0.95148  0.90519  0.39486  1.0000
  H   H1822     1.0  0.95768  0.91096  0.37243  1.0000
  H   H1823     1.0  0.91188  0.90315  0.40730  1.0000
  H   H1824     1.0  0.90682  0.88264  0.39326  1.0000
  H   H1825     1.0  0.88918  0.90818  0.39392  1.0000
  N   N113      1.0  0.64902  0.75669  0.34885  1.0000
  C   C1144     1.0  0.64664  0.73228  0.34783  1.0000
  C   C1145     1.0  0.66724  0.76484  0.33615  1.0000
  C   C1146     1.0  0.65456  0.76042  0.36600  1.0000
  C   C1147     1.0  0.62758  0.76928  0.34540  1.0000
  H   H1826     1.0  0.64150  0.72897  0.33526  1.0000
  H   H1827     1.0  0.63359  0.72541  0.35765  1.0000
  H   H1828     1.0  0.66272  0.72230  0.34974  1.0000
  H   H1829     1.0  0.66352  0.76240  0.32305  1.0000
  H   H1830     1.0  0.66928  0.78331  0.33640  1.0000
  H   H1831     1.0  0.68374  0.75585  0.33833  1.0000
  H   H1832     1.0  0.65640  0.77871  0.36715  1.0000
  H   H1833     1.0  0.67065  0.75116  0.36906  1.0000
  H   H1834     1.0  0.64108  0.75448  0.37588  1.0000
  H   H1835     1.0  0.62889  0.78785  0.34562  1.0000
  H   H1836     1.0  0.61347  0.76386  0.35484  1.0000
  H   H1837     1.0  0.62282  0.76665  0.33262  1.0000
  C   C1148     1.0  0.99146  0.92975  0.45884  1.0000
  H   H1838     1.0  0.00578  0.91155  0.41365  1.0000
  H   H1839     1.0  0.80925  0.81885  0.27087  1.0000
  H   H1840     1.0  0.65987  0.82324  0.27519  1.0000
  C   C1149     1.0  0.73095  0.98268  0.33516  1.0000
  H   H1841     1.0  0.72350  0.95807  0.36543  1.0000
  S   S470      1.0  0.61285  0.78530  0.26968  1.0000
  H   H1842     1.0  0.85294  0.01502  0.46113  1.0000
  H   H1843     1.0  0.90117  0.82200  0.27036  1.0000
  H   H1844     1.0  0.77546  0.98198  0.32816  1.0000
  N   N114      1.0  0.74783  0.97400  0.34692  1.0000
  H   H1845     1.0  0.98272  0.88612  0.46650  1.0000
  H   H1846     1.0  0.93487  0.76724  0.26945  1.0000
  H   H1847     1.0  0.78262  0.96183  0.34548  1.0000
  C   C1150     1.0  0.52528  0.74939  0.26392  1.0000
  H   H1848     1.0  0.85393  0.98224  0.26463  1.0000
  S   S471      1.0  0.57937  0.70270  0.40323  1.0000
  H   H1849     1.0  0.95057  0.80436  0.27134  1.0000
  C   C1151     1.0  0.68535  0.68706  0.26681  1.0000
  H   H1850     1.0  0.54990  0.69090  0.35867  1.0000
  C   C1152     1.0  0.87376  0.93447  0.48600  1.0000
  C   C1153     1.0  0.73939  0.95391  0.35756  1.0000
  C   C1154     1.0  0.99899  0.89122  0.47033  1.0000
  C   C1155     1.0  0.98042  0.91845  0.48828  1.0000
  N   N115      1.0  0.91863  0.79381  0.28347  1.0000
  C   C1156     1.0  0.90598  0.80380  0.26926  1.0000
  C   C1157     1.0  0.93965  0.80575  0.28342  1.0000
  C   C1158     1.0  0.92430  0.76958  0.28156  1.0000
  C   C1159     1.0  0.76918  0.96762  0.33707  1.0000
  H   H1851     1.0  0.65840  0.71001  0.27578  1.0000
  H   H1852     1.0  0.88849  0.78735  0.29995  1.0000
  C   C1160     1.0  0.85196  0.86454  0.25512  1.0000
  C   C1161     1.0  0.88498  0.93059  0.50082  1.0000
  H   H1853     1.0  0.93607  0.82409  0.28478  1.0000
  H   H1854     1.0  0.96350  0.91400  0.48524  1.0000
  H   H1855     1.0  0.00410  0.92771  0.44777  1.0000
  H   H1856     1.0  0.75849  0.00698  0.35021  1.0000
  H   H1857     1.0  0.97898  0.93636  0.49136  1.0000
  S   S472      1.0  0.99453  0.86799  0.43021  1.0000
  C   C1162     1.0  0.84266  0.99101  0.25543  1.0000
  H   H1858     1.0  0.89017  0.79500  0.26877  1.0000
  C   C1163     1.0  0.58610  0.70346  0.38111  1.0000
  H   H1859     1.0  0.94976  0.79854  0.29388  1.0000
  H   H1860     1.0  0.01199  0.88795  0.45973  1.0000
  H   H1861     1.0  0.97486  0.92553  0.45510  1.0000
  C   C1164     1.0  0.75211  0.99892  0.25883  1.0000
  H   H1862     1.0  0.75201  0.94649  0.36624  1.0000
  H   H1863     1.0  0.83803  0.00824  0.25946  1.0000
  C   C1165     1.0  0.86459  0.99513  0.49093  1.0000
  C   C1166     1.0  0.52483  0.77292  0.26395  1.0000
  H   H1864     1.0  0.74784  0.98186  0.25735  1.0000
  H   H1865     1.0  0.86825  0.98402  0.48046  1.0000
  C   C1167     1.0  0.53354  0.68352  0.35735  1.0000
  H   H1866     1.0  0.71449  0.98740  0.34208  1.0000
  N   N116      1.0  0.99772  0.91519  0.47397  1.0000
  C   C1168     1.0  0.84196  0.82529  0.25782  1.0000
  H   H1867     1.0  0.84732  0.99154  0.49685  1.0000
  N   N117      1.0  0.82237  0.97823  0.25471  1.0000
  H   H1868     1.0  0.90281  0.92585  0.49990  1.0000
  C   C1169     1.0  0.80982  0.97583  0.27167  1.0000
  H   H1869     1.0  0.52015  0.69724  0.35884  1.0000
  H   H1870     1.0  0.76449  0.98553  0.36693  1.0000
  H   H1871     1.0  0.80438  0.99258  0.27625  1.0000
  S   S473      1.0  0.84740  0.79673  0.25400  1.0000
  C   C1170     1.0  0.85740  0.84182  0.25218  1.0000
  H   H1872     1.0  0.73676  0.99786  0.32692  1.0000
  H   H1873     1.0  0.89370  0.01297  0.46570  1.0000
  C   C1171     1.0  0.59514  0.68423  0.37362  1.0000
  H   H1874     1.0  0.84009  0.94572  0.25831  1.0000
  H   H1875     1.0  0.74006  0.70350  0.25910  1.0000
  H   H1876     1.0  0.98461  0.90763  0.49989  1.0000
  C   C1172     1.0  0.99735  0.78744  0.25306  1.0000
  C   C1173     1.0  0.75470  0.71426  0.25517  1.0000
  Fe  Fe237     1.0  0.87435  0.94284  0.55880  1.0000
  S   S474      1.0  0.89978  0.96618  0.56501  1.0000
  S   S475      1.0  0.88745  0.92615  0.53519  1.0000
  Fe  Fe238     1.0  0.84224  0.95272  0.59025  1.0000
  S   S476      1.0  0.86564  0.97651  0.59856  1.0000
  S   S477      1.0  0.80837  0.95264  0.60606  1.0000
  Fe  Fe239     1.0  0.86993  0.98949  0.57113  1.0000
  Fe  Fe240     1.0  0.89297  0.95076  0.59168  1.0000
  S   S478      1.0  0.91990  0.93905  0.60881  1.0000
  S   S479      1.0  0.84477  0.96754  0.56291  1.0000
  S   S480      1.0  0.86946  0.92548  0.58534  1.0000
  H   H1877     1.0  0.79737  0.96830  0.66346  1.0000
  Fe  Fe241     1.0  0.61883  0.77522  0.71943  1.0000
  C   C1174     1.0  0.51496  0.71179  0.55663  1.0000
  S   S481      1.0  0.64783  0.79599  0.72521  1.0000
  Fe  Fe242     1.0  0.58682  0.75286  0.69892  1.0000
  S   S482      1.0  0.57446  0.72895  0.72107  1.0000
  S   S483      1.0  0.56878  0.75118  0.67534  1.0000
  Fe  Fe243     1.0  0.57251  0.75928  0.73588  1.0000
  C   C1175     1.0  0.83321  0.83558  0.73941  1.0000
  Fe  Fe244     1.0  0.61092  0.72452  0.72610  1.0000
  H   H1878     1.0  0.84377  0.83719  0.72752  1.0000
  S   S484      1.0  0.58282  0.78385  0.71352  1.0000
  S   S485      1.0  0.62361  0.74627  0.70283  1.0000
  Fe  Fe245     1.0  0.72602  0.90013  0.71522  1.0000
  S   S486      1.0  0.69192  0.89180  0.70728  1.0000
  Fe  Fe246     1.0  0.77464  0.90116  0.69974  1.0000
  S   S487      1.0  0.78688  0.91171  0.72329  1.0000
  S   S488      1.0  0.80005  0.89429  0.67755  1.0000
  Fe  Fe247     1.0  0.76380  0.88683  0.73743  1.0000
  H   H1879     1.0  0.63022  0.83172  0.74958  1.0000
  Fe  Fe248     1.0  0.75692  0.93665  0.72387  1.0000
  C   C1176     1.0  0.60607  0.70766  0.64601  1.0000
  S   S489      1.0  0.75431  0.87357  0.71391  1.0000
  S   S490      1.0  0.74598  0.92714  0.69930  1.0000
  H   H1880     1.0  0.00208  0.93496  0.60568  1.0000
  S   S491      1.0  0.60804  0.75262  0.74286  1.0000
  H   H1881     1.0  0.73432  0.86998  0.63911  1.0000
  H   H1882     1.0  0.57606  0.80594  0.74585  1.0000
  H   H1883     1.0  0.70191  0.85160  0.68002  1.0000
  H   H1884     1.0  0.73570  0.89897  0.65934  1.0000
  C   C1177     1.0  0.56745  0.70762  0.63926  1.0000
  H   H1885     1.0  0.85362  0.95721  0.67970  1.0000
  C   C1178     1.0  0.57736  0.73164  0.66034  1.0000
  C   C1179     1.0  0.56127  0.72386  0.65085  1.0000
  H   H1886     1.0  0.80850  0.99029  0.70372  1.0000
  C   C1180     1.0  0.81139  0.94889  0.69275  1.0000
  H   H1887     1.0  0.00393  0.01460  0.61405  1.0000
  C   C1181     1.0  0.59983  0.72364  0.65776  1.0000
  H   H1888     1.0  0.54389  0.73019  0.65265  1.0000
  H   H1889     1.0  0.57224  0.69546  0.69094  1.0000
  C   C1182     1.0  0.81554  0.96955  0.66510  1.0000
  H   H1890     1.0  0.61242  0.72990  0.66473  1.0000
  C   C1183     1.0  0.65975  0.82269  0.71955  1.0000
  C   C1184     1.0  0.64966  0.83992  0.70912  1.0000
  C   C1185     1.0  0.65959  0.86104  0.70557  1.0000
  C   C1186     1.0  0.67970  0.86514  0.71237  1.0000
  C   C1187     1.0  0.68979  0.84787  0.72274  1.0000
  C   C1188     1.0  0.67982  0.82685  0.72634  1.0000
  H   H1891     1.0  0.63419  0.83703  0.70383  1.0000
  H   H1892     1.0  0.65164  0.87428  0.69752  1.0000
  H   H1893     1.0  0.70521  0.85074  0.72811  1.0000
  S   S492      1.0  0.73420  0.91215  0.73990  1.0000
  H   H1894     1.0  0.52418  0.70323  0.56715  1.0000
  H   H1895     1.0  0.79323  0.94677  0.69158  1.0000
  C   C1189     1.0  0.75852  0.99376  0.73862  1.0000
  C   C1190     1.0  0.84339  0.97177  0.68482  1.0000
  H   H1896     1.0  0.82099  0.93367  0.68815  1.0000
  H   H1897     1.0  0.80768  0.86027  0.73081  1.0000
  H   H1898     1.0  0.70704  0.86262  0.64909  1.0000
  S   S493      1.0  0.76899  0.97211  0.72554  1.0000
  H   H1899     1.0  0.82830  0.00261  0.58325  1.0000
  H   H1900     1.0  0.82070  0.94564  0.50408  1.0000
  H   H1901     1.0  0.96090  0.94603  0.56015  1.0000
  H   H1902     1.0  0.82146  0.98504  0.65739  1.0000
  H   H1903     1.0  0.61080  0.69909  0.69611  1.0000
  C   C1191     1.0  0.80631  0.93673  0.62607  1.0000
  C   C1192     1.0  0.78647  0.93877  0.63706  1.0000
  C   C1193     1.0  0.78439  0.92615  0.65303  1.0000
  C   C1194     1.0  0.80206  0.91118  0.65798  1.0000
  C   C1195     1.0  0.82186  0.90920  0.64701  1.0000
  C   C1196     1.0  0.82408  0.92208  0.63119  1.0000
  H   H1904     1.0  0.77262  0.95003  0.63314  1.0000
  H   H1905     1.0  0.76903  0.92777  0.66136  1.0000
  H   H1906     1.0  0.83557  0.89759  0.65073  1.0000
  H   H1907     1.0  0.83943  0.92033  0.62284  1.0000
  C   C1197     1.0  0.94650  0.94961  0.60225  1.0000
  C   C1198     1.0  0.94883  0.96894  0.59081  1.0000
  C   C1199     1.0  0.97040  0.97596  0.58464  1.0000
  C   C1200     1.0  0.98963  0.96335  0.58963  1.0000
  C   C1201     1.0  0.98728  0.94448  0.60150  1.0000
  C   C1202     1.0  0.96574  0.93772  0.60789  1.0000
  H   H1908     1.0  0.93404  0.97841  0.58665  1.0000
  H   H1909     1.0  0.97212  0.99060  0.57549  1.0000
  N   N118      1.0  0.81913  0.96997  0.68317  1.0000
  H   H1910     1.0  0.96401  0.92290  0.61687  1.0000
  C   C1203     1.0  0.87315  0.93251  0.51681  1.0000
  C   C1204     1.0  0.85006  0.93852  0.51790  1.0000
  S   S494      1.0  0.86615  0.80498  0.75053  1.0000
  H   H1911     1.0  0.72940  0.84114  0.64694  1.0000
  H   H1912     1.0  0.84076  0.93980  0.53018  1.0000
  C   C1205     1.0  0.77138  0.01279  0.73877  1.0000
  C   C1206     1.0  0.72552  0.85907  0.64959  1.0000
  N   N119      1.0  0.95630  0.91078  0.55857  1.0000
  C   C1207     1.0  0.97034  0.88948  0.55780  1.0000
  C   C1208     1.0  0.94410  0.91514  0.54321  1.0000
  C   C1209     1.0  0.97091  0.92966  0.55958  1.0000
  C   C1210     1.0  0.93980  0.90891  0.57371  1.0000
  H   H1913     1.0  0.95989  0.87487  0.55691  1.0000
  H   H1914     1.0  0.97965  0.88574  0.56930  1.0000
  H   H1915     1.0  0.98322  0.89039  0.54664  1.0000
  H   H1916     1.0  0.93357  0.93128  0.54338  1.0000
  H   H1917     1.0  0.95591  0.91636  0.53149  1.0000
  H   H1918     1.0  0.93239  0.90154  0.54225  1.0000
  H   H1919     1.0  0.98891  0.76408  0.72594  1.0000
  H   H1920     1.0  0.98381  0.93148  0.54850  1.0000
  H   H1921     1.0  0.98015  0.92701  0.57113  1.0000
  H   H1922     1.0  0.92835  0.89493  0.57341  1.0000
  H   H1923     1.0  0.92897  0.92471  0.57466  1.0000
  H   H1924     1.0  0.94829  0.90585  0.58564  1.0000
  N   N120      1.0  0.73256  0.86329  0.66622  1.0000
  C   C1211     1.0  0.75719  0.85856  0.66632  1.0000
  C   C1212     1.0  0.72693  0.88717  0.66923  1.0000
  C   C1213     1.0  0.72055  0.84843  0.67973  1.0000
  H   H1925     1.0  0.76217  0.84077  0.66388  1.0000
  H   H1926     1.0  0.76306  0.86135  0.67874  1.0000
  H   H1927     1.0  0.76682  0.86987  0.65655  1.0000
  H   H1928     1.0  0.70844  0.89133  0.66949  1.0000
  H   H1929     1.0  0.73196  0.89082  0.68169  1.0000
  H   H1930     1.0  0.72518  0.85141  0.69250  1.0000
  H   H1931     1.0  0.72444  0.83022  0.67804  1.0000
  H   H1932     1.0  0.81123  0.00581  0.68312  1.0000
  C   C1214     1.0  0.54393  0.69945  0.53562  1.0000
  H   H1933     1.0  0.62351  0.70154  0.64406  1.0000
  H   H1934     1.0  0.82482  0.95472  0.65963  1.0000
  C   C1215     1.0  0.81873  0.76278  0.75133  1.0000
  H   H1935     1.0  0.84665  0.97190  0.69834  1.0000
  H   H1936     1.0  0.60296  0.81317  0.73503  1.0000
  C   C1216     1.0  0.61573  0.68309  0.69022  1.0000
  C   C1217     1.0  0.83871  0.94172  0.50313  1.0000
  C   C1218     1.0  0.58930  0.81859  0.74458  1.0000
  H   H1937     1.0  0.81335  0.94888  0.70651  1.0000
  H   H1938     1.0  0.68773  0.81369  0.73449  1.0000
  C   C1219     1.0  0.80918  0.01092  0.61402  1.0000
  C   C1220     1.0  0.99366  0.76478  0.73864  1.0000
  C   C1221     1.0  0.58989  0.69934  0.63690  1.0000
  C   C1222     1.0  0.73771  0.99287  0.74841  1.0000
  H   H1939     1.0  0.82311  0.99759  0.61454  1.0000
  H   H1940     1.0  0.55488  0.70139  0.63226  1.0000
  H   H1941     1.0  0.55021  0.71680  0.53331  1.0000
  H   H1942     1.0  0.78766  0.98834  0.68944  1.0000
  C   C1223     1.0  0.80613  0.98952  0.69008  1.0000
  C   C1224     1.0  0.64668  0.68534  0.74702  1.0000
  H   H1943     1.0  0.90241  0.00706  0.58393  1.0000
  H   H1944     1.0  0.72756  0.97844  0.74838  1.0000
  H   H1945     1.0  0.57968  0.68282  0.67152  1.0000
  H   H1946     1.0  0.58168  0.83498  0.73928  1.0000
  H   H1947     1.0  0.51872  0.77025  0.72900  1.0000
  S   S495      1.0  0.62689  0.68935  0.73175  1.0000
  H   H1948     1.0  0.84984  0.98755  0.67781  1.0000
  H   H1949     1.0  0.79340  0.00196  0.61362  1.0000
  H   H1950     1.0  0.81151  0.75982  0.73944  1.0000
  H   H1951     1.0  0.95957  0.76132  0.75040  1.0000
  H   H1952     1.0  0.54787  0.69116  0.52366  1.0000
  H   H1953     1.0  0.62107  0.68761  0.67660  1.0000
  N   N121      1.0  0.51951  0.69981  0.54115  1.0000
  H   H1954     1.0  0.79853  0.00701  0.58255  1.0000
  C   C1225     1.0  0.81277  0.84863  0.74124  1.0000
  H   H1955     1.0  0.52022  0.72954  0.55444  1.0000
  H   H1956     1.0  0.55401  0.68994  0.54533  1.0000
  H   H1957     1.0  0.83726  0.75873  0.74958  1.0000
  H   H1958     1.0  0.78748  0.01371  0.73125  1.0000
  Fe  Fe249     1.0  0.95369  0.90305  0.90327  1.0000
  S   S496      1.0  0.92254  0.88760  0.91648  1.0000
  S   S497      1.0  0.94997  0.93716  0.88858  1.0000
  Fe  Fe250     1.0  0.98467  0.86525  0.91728  1.0000
  S   S498      1.0  0.95605  0.84711  0.93206  1.0000
  H   H1959     1.0  0.62297  0.83916  0.77079  1.0000
  Fe  Fe251     1.0  0.93860  0.85481  0.90813  1.0000
  S   S499      1.0  0.92102  0.82615  0.89899  1.0000
  Fe  Fe252     1.0  0.94288  0.88143  0.93894  1.0000
  S   S500      1.0  0.92829  0.89385  0.96401  1.0000
  S   S501      1.0  0.96817  0.87083  0.89297  1.0000
  S   S502      1.0  0.97316  0.89896  0.92614  1.0000
  H   H1960     1.0  0.86326  0.91554  0.99392  1.0000
  Fe  Fe253     1.0  0.89327  0.79686  0.80908  1.0000
  S   S503      1.0  0.91196  0.80185  0.78322  1.0000
  S   S504      1.0  0.89421  0.82786  0.82353  1.0000
  Fe  Fe254     1.0  0.87737  0.75055  0.80174  1.0000
  S   S505      1.0  0.89606  0.75220  0.77569  1.0000
  S   S506      1.0  0.85201  0.72478  0.81325  1.0000
  Fe  Fe255     1.0  0.92470  0.76578  0.78777  1.0000
  S   S507      1.0  0.96298  0.75901  0.78700  1.0000
  Fe  Fe256     1.0  0.88184  0.78830  0.77369  1.0000
  C   C1226     1.0  0.87299  0.85336  0.78173  1.0000
  S   S508      1.0  0.90696  0.76114  0.81426  1.0000
  S   S509      1.0  0.86216  0.78616  0.79910  1.0000
  C   C1227     1.0  0.84012  0.70352  0.80325  1.0000
  C   C1228     1.0  0.78378  0.75653  0.76883  1.0000
  H   H1961     1.0  0.94793  0.81929  0.81931  1.0000
  C   C1229     1.0  0.81978  0.69453  0.81064  1.0000
  H   H1962     1.0  0.88315  0.95060  0.98727  1.0000
  H   H1963     1.0  0.96453  0.75763  0.82328  1.0000
  C   C1230     1.0  0.97696  0.76324  0.75249  1.0000
  C   C1231     1.0  0.80580  0.83150  0.76997  1.0000
  C   C1232     1.0  0.82630  0.81869  0.76817  1.0000
  C   C1233     1.0  0.99514  0.86849  0.96316  1.0000
  H   H1964     1.0  0.79521  0.82988  0.78184  1.0000
  H   H1965     1.0  0.83126  0.80720  0.77857  1.0000
  H   H1966     1.0  0.87689  0.87357  0.80995  1.0000
  H   H1967     1.0  0.85994  0.91721  0.94763  1.0000
  C   C1234     1.0  0.86671  0.91224  0.98037  1.0000
  C   C1235     1.0  0.64919  0.70194  0.75783  1.0000
  H   H1968     1.0  0.94732  0.76242  0.84249  1.0000
  C   C1236     1.0  0.98294  0.76332  0.76901  1.0000
  C   C1237     1.0  0.51663  0.76704  0.75625  1.0000
  H   H1969     1.0  0.94915  0.79388  0.80873  1.0000
  C   C1238     1.0  0.91405  0.82679  0.87789  1.0000
  C   C1239     1.0  0.90558  0.80747  0.87247  1.0000
  C   C1240     1.0  0.89975  0.80741  0.85578  1.0000
  C   C1241     1.0  0.90198  0.82686  0.84447  1.0000
  C   C1242     1.0  0.91045  0.84616  0.84986  1.0000
  C   C1243     1.0  0.91667  0.84608  0.86646  1.0000
  H   H1970     1.0  0.90341  0.79254  0.88129  1.0000
  H   H1971     1.0  0.89306  0.79250  0.85181  1.0000
  H   H1972     1.0  0.91219  0.86129  0.84121  1.0000
  H   H1973     1.0  0.92310  0.86106  0.87053  1.0000
  C   C1244     1.0  0.93123  0.95395  0.90106  1.0000
  C   C1245     1.0  0.92848  0.94865  0.91859  1.0000
  C   C1246     1.0  0.91324  0.96153  0.92869  1.0000
  C   C1247     1.0  0.90021  0.97952  0.92134  1.0000
  C   C1248     1.0  0.90335  0.98529  0.90382  1.0000
  C   C1249     1.0  0.91898  0.97257  0.89367  1.0000
  H   H1974     1.0  0.93807  0.93455  0.92444  1.0000
  H   H1975     1.0  0.91161  0.95739  0.94221  1.0000
  H   H1976     1.0  0.98955  0.78709  0.80951  1.0000
  H   H1977     1.0  0.92100  0.97666  0.88008  1.0000
  H   H1978     1.0  0.75434  0.98822  0.82748  1.0000
  C   C1250     1.0  0.93474  0.88013  0.98375  1.0000
  C   C1251     1.0  0.94419  0.85799  0.98530  1.0000
  N   N122      1.0  0.96615  0.79081  0.83149  1.0000
  H   H1979     1.0  0.94689  0.84849  0.97431  1.0000
  H   H1980     1.0  0.88952  0.91934  0.94913  1.0000
  H   H1981     1.0  0.78277  0.99335  0.81881  1.0000
  H   H1982     1.0  0.97845  0.79488  0.85550  1.0000
  H   H1983     1.0  0.97847  0.89307  0.98880  1.0000
  C   C1252     1.0  0.81911  0.75254  0.78142  1.0000
  H   H1984     1.0  0.76223  0.98693  0.80518  1.0000
  H   H1985     1.0  0.81640  0.78119  0.75275  1.0000
  C   C1253     1.0  0.98811  0.79503  0.82172  1.0000
  H   H1986     1.0  0.96575  0.82021  0.84534  1.0000
  H   H1987     1.0  0.87244  0.94390  0.94239  1.0000
  C   C1254     1.0  0.85028  0.69543  0.78826  1.0000
  C   C1255     1.0  0.76473  0.99614  0.81632  1.0000
  H   H1988     1.0  0.88344  0.86407  0.77212  1.0000
  H   H1989     1.0  0.87705  0.89431  0.79194  1.0000
  H   H1990     1.0  0.88293  0.90194  0.97911  1.0000
  H   H1991     1.0  0.82690  0.88972  0.78562  1.0000
  H   H1992     1.0  0.84650  0.96297  0.96264  1.0000
  H   H1993     1.0  0.99422  0.85144  0.97026  1.0000
  H   H1994     1.0  0.78157  0.77472  0.77121  1.0000
  C   C1256     1.0  0.95489  0.01287  0.91109  1.0000
  H   H1995     1.0  0.90272  0.93791  0.97185  1.0000
  H   H1996     1.0  0.57182  0.84479  0.76866  1.0000
  H   H1997     1.0  0.86602  0.70205  0.78251  1.0000
  H   H1998     1.0  0.83300  0.83966  0.79660  1.0000
  H   H1999     1.0  0.00857  0.99079  0.90382  1.0000
  H   H2000     1.0  0.85165  0.84190  0.81250  1.0000
  C   C1257     1.0  0.87264  0.92826  0.95131  1.0000
  N   N123      1.0  0.59815  0.82055  0.76101  1.0000
  H   H2001     1.0  0.93113  0.79619  0.82786  1.0000
  H   H2002     1.0  0.97738  0.75817  0.84271  1.0000
  C   C1258     1.0  0.84018  0.82077  0.75295  1.0000
  C   C1259     1.0  0.94785  0.80051  0.82139  1.0000
  C   C1260     1.0  0.66457  0.69812  0.77020  1.0000
  H   H2003     1.0  0.99518  0.86902  0.99670  1.0000
  H   H2004     1.0  0.81182  0.70058  0.82228  1.0000
  N   N124      1.0  0.85533  0.86699  0.79113  1.0000
  C   C1261     1.0  0.79910  0.84671  0.75659  1.0000
  C   C1262     1.0  0.84095  0.87981  0.77901  1.0000
  C   C1263     1.0  0.86609  0.88286  0.80059  1.0000
  C   C1264     1.0  0.84134  0.85192  0.80321  1.0000
  H   H2005     1.0  0.00239  0.78794  0.82892  1.0000
  S   S510      1.0  0.87955  0.99378  0.93426  1.0000
  H   H2006     1.0  0.89317  0.99895  0.89799  1.0000
  H   H2007     1.0  0.83319  0.86831  0.77131  1.0000
  C   C1265     1.0  0.97376  0.00033  0.88514  1.0000
  H   H2008     1.0  0.85082  0.89177  0.76996  1.0000
  H   H2009     1.0  0.85329  0.89352  0.80777  1.0000
  H   H2010     1.0  0.61450  0.79902  0.77999  1.0000
  C   C1266     1.0  0.60779  0.79829  0.76754  1.0000
  H   H2011     1.0  0.00508  0.89700  0.99640  1.0000
  C   C1267     1.0  0.00571  0.76562  0.77146  1.0000
  H   H2012     1.0  0.96201  0.01145  0.87758  1.0000
  C   C1268     1.0  0.96471  0.80151  0.84759  1.0000
  H   H2013     1.0  0.96655  0.98336  0.88754  1.0000
  C   C1269     1.0  0.57952  0.82805  0.77319  1.0000
  H   H2014     1.0  0.83741  0.74736  0.77987  1.0000
  H   H2015     1.0  0.66630  0.71101  0.77858  1.0000
  H   H2016     1.0  0.00352  0.86617  0.95029  1.0000
  H   H2017     1.0  0.56586  0.81579  0.77505  1.0000
  S   S511      1.0  0.77419  0.86373  0.75985  1.0000
  H   H2018     1.0  0.88456  0.84402  0.79040  1.0000
  N   N125      1.0  0.97699  0.00971  0.90119  1.0000
  H   H2019     1.0  0.58548  0.82956  0.78581  1.0000
  S   S512      1.0  0.54621  0.76660  0.75773  1.0000
  H   H2020     1.0  0.73144  0.01537  0.79819  1.0000
  H   H2021     1.0  0.86562  0.84059  0.77493  1.0000
  H   H2022     1.0  0.94843  0.79832  0.85532  1.0000
  C   C1270     1.0  0.99608  0.88585  0.98922  1.0000
  C   C1271     1.0  0.96379  0.76617  0.83518  1.0000
  H   H2023     1.0  0.77513  0.74653  0.77991  1.0000
  C   C1272     1.0  0.88588  0.94699  0.97375  1.0000
  H   H2024     1.0  0.98948  0.91373  0.96130  1.0000
  H   H2025     1.0  0.81766  0.77051  0.78421  1.0000
  N   N126      1.0  0.00729  0.88401  0.97196  1.0000
  H   H2026     1.0  0.99026  0.81347  0.81858  1.0000
  H   H2027     1.0  0.81159  0.74236  0.79286  1.0000
  H   H2028     1.0  0.82787  0.86165  0.81054  1.0000
  N   N127      1.0  0.86781  0.93355  0.96911  1.0000
  H   H2029     1.0  0.88659  0.96361  0.96596  1.0000
  C   C1273     1.0  0.00707  0.90660  0.96236  1.0000
  H   H2030     1.0  0.97758  0.87512  0.96151  1.0000
  N   N128      1.0  0.80791  0.74923  0.76618  1.0000
  H   H2031     1.0  0.99002  0.99823  0.87716  1.0000
  H   H2032     1.0  0.01055  0.76555  0.78419  1.0000
  H   H2033     1.0  0.82803  0.71914  0.76079  1.0000
  H   H2034     1.0  0.80260  0.71424  0.77436  1.0000
  H   H2035     1.0  0.77478  0.75435  0.75755  1.0000
  H   H2036     1.0  0.99518  0.00051  0.92310  1.0000
  C   C1274     1.0  0.61591  0.83715  0.75865  1.0000
  H   H2037     1.0  0.63918  0.71767  0.75678  1.0000
  H   H2038     1.0  0.98434  0.97709  0.91429  1.0000
  C   C1275     1.0  0.81003  0.72504  0.76320  1.0000
  H   H2039     1.0  0.85325  0.90163  0.97727  1.0000
  H   H2040     1.0  0.62202  0.79221  0.75868  1.0000
  C   C1276     1.0  0.99187  0.99384  0.91106  1.0000
  H   H2041     1.0  0.59490  0.78525  0.76920  1.0000
  H   H2042     1.0  0.83197  0.93721  0.96755  1.0000
  C   C1277     1.0  0.95010  0.84808  0.00116  1.0000
  H   H2043     1.0  0.71340  0.01038  0.76516  1.0000
  C   C1278     1.0  0.72972  0.01103  0.75793  1.0000
  H   H2044     1.0  0.94673  0.99650  0.91443  1.0000
  H   H2045     1.0  0.92333  0.90912  0.99713  1.0000
  C   C1279     1.0  0.84603  0.94675  0.97101  1.0000
  C   C1280     1.0  0.93075  0.89205  0.99819  1.0000
  H   H2046     1.0  0.84185  0.95114  0.98427  1.0000
  H   H2047     1.0  0.60937  0.85408  0.75345  1.0000
  H   H2048     1.0  0.80127  0.72169  0.75208  1.0000
