data_image0
_chemical_formula_structural       FeS2FeS2FeSFeS3FeS2FeS2FeSFeS3FeS2FeS2FeSFeS3FeS2FeS2FeSFeS3FeS2FeS2FeSFeS3FeS2FeS2FeSFeS3FeS2FeS2FeSFeS3FeS2FeS2FeSFeS3FeS2FeS2FeSFeS3FeS2FeS2FeSFeS3FeS2FeS2FeSFeS3FeS2FeS2FeSFeS3FeS2FeS2FeSFeS3FeS2FeS2FeSFeS3FeS2FeS2FeSFeS3FeS2FeS2FeSFeS3FeS2FeS2FeSFeS3FeS2FeS2FeSFeS3FeS2FeS2FeSFeS3FeS2FeS2FeSFeS3FeS2FeS2FeSFeS3FeS2FeS2FeSFeS3FeS2FeS2FeSFeS3FeS2FeS2FeSFeS3FeS2FeS2FeSFeS3FeS2FeS2FeSFeS3FeS2FeS2FeSFeS3FeS2FeS2FeSFeS3FeS2FeS2FeSFeS3FeS2FeS2FeSFeS3FeS2FeS2FeSFeS3FeS2FeS2FeSFeS3C6H4C6H4C6H4C6H4C6H4C6H4C6H4C6H4C6H4C6H4C6H4C6H4C6H4C6H4C6H4C6H4C6H4C6H4C6H4C6H4C6H4C6H4C6H4C6H4C6H4C6H4C6H4C6H4C6H4C6H4C6H4C6H4C6H4C6H4C6H4C6H4C6H4C6H4C6H4C6H4C6H4C6H4C6H4C6H4C6H4C6H4C6H4C6H4C6H4C6H4C6H4C6H4C6H4C6H4C6H4C6H4C6H4C6H4C6H4C6H4C6H4C6H4C6H4C6H4NC4H12NC4H12NC4H12NC4H12NC4H12NC4H12NC4H12NC4H12NC4H12NC4H12NC4H12NC4H12NC4H12NC4H12NC4H12NC4H12NC4H12NC4H12NC4H12NC4H12NC4H12NC4H12NC4H12NC4H12NC4H12NC4H12NC4H12NC4H12NC4H12NC4H12NC4H12NC4H12NC4H12NC4H12NC4H12NC4H12NC4H12NC4H12NC4H12NC4H12NC4H12NC4H12NC4H12NC4H12NC4H12NC4H12NC4H12NC4H12NC4H12NC4H12NC4H12NC4H12NC4H12NC4H12NC4H12NC4H12NC4H12NC4H12NC4H12NC4H12NC4H12NC4H12NC4H12NC4H12
_chemical_formula_sum              "Fe128 S256 C640 H1024 N64"
_cell_length_a       49.60670425602122
_cell_length_b       53.2753973548169
_cell_length_c       33.565612013905465
_cell_angle_alpha    88.97581961960901
_cell_angle_beta     88.94926719423702
_cell_angle_gamma    89.45664811023089

_space_group_name_H-M_alt    "P 1"
_space_group_IT_number       1

loop_
  _space_group_symop_operation_xyz
  'x, y, z'

loop_
  _atom_site_type_symbol
  _atom_site_label
  _atom_site_symmetry_multiplicity
  _atom_site_fract_x
  _atom_site_fract_y
  _atom_site_fract_z
  _atom_site_occupancy
  Fe  Fe1       1.0  0.49834393666734617  0.3905350619588926  0.5841845417176912  1.0000
  S   S1        1.0  0.5320893982737442  0.4178541488358094  0.5759927007884406  1.0000
  S   S2        1.0  0.457164414844974  0.40225881459504165  0.6052742099278597  1.0000
  Fe  Fe2       1.0  0.53273950490846  0.34612338662253733  0.5592641213308455  1.0000
  S   S3        1.0  0.5696207623618851  0.36949072201131944  0.5500289916109012  1.0000
  S   S4        1.0  0.535841087026154  0.30441494219069304  0.5522869132989631  1.0000
  Fe  Fe3       1.0  0.5565397212440728  0.3879566499521893  0.6068162599236173  1.0000
  S   S5        1.0  0.5862488307613175  0.39898176629642945  0.6529146848941235  1.0000
  Fe  Fe4       1.0  0.5415433610064677  0.39677737739487534  0.5201783672597884  1.0000
  S   S6        1.0  0.5544741382566593  0.41529609161813763  0.46238673765067223  1.0000
  S   S7        1.0  0.522015408185161  0.36196597462601016  0.6187719399643448  1.0000
  S   S8        1.0  0.5052753797501817  0.3721158945515695  0.5254903982949247  1.0000
  Fe  Fe5       1.0  0.5253266690787265  0.37042747846124635  0.8532338151464806  1.0000
  S   S9        1.0  0.4888599961027403  0.3708563330212248  0.814847597446223  1.0000
  S   S10       1.0  0.5679468498808392  0.36387068574299963  0.8320887831772585  1.0000
  Fe  Fe6       1.0  0.49275542203001055  0.3794361817702864  0.9288472820773986  1.0000
  S   S11       1.0  0.4532091716134521  0.3796476460602789  0.8976254937111033  1.0000
  S   S12       1.0  0.4990021431554387  0.38583966645475876  0.9937913084178114  1.0000
  Fe  Fe7       1.0  0.4705372439474076  0.34715566867301545  0.8637912286624486  1.0000
  S   S13       1.0  0.4474018341699679  0.3123279706255656  0.8507998842631662  1.0000
  Fe  Fe8       1.0  0.4750902031740377  0.40335308662892405  0.8517305293547538  1.0000
  S   S14       1.0  0.456992720309771  0.43762099472327726  0.822272487747454  1.0000
  S   S15       1.0  0.5079908420806567  0.3444450657789838  0.8998773778945711  1.0000
  S   S16       1.0  0.5135030555559877  0.4054422851908954  0.885342101386743  1.0000
  Fe  Fe9       1.0  0.43522974700647304  0.17656152397732236  0.4503073770883725  1.0000
  S   S17       1.0  0.4708232719803946  0.1499948143648389  0.4474866729323155  1.0000
  S   S18       1.0  0.39491868991433815  0.16293988382601038  0.47382840267430576  1.0000
  Fe  Fe10      1.0  0.46780127765067053  0.22117553052973574  0.42173320509677437  1.0000
  S   S19       1.0  0.5053291731628521  0.19828085804434523  0.41484688300728567  1.0000
  S   S20       1.0  0.47062724896949387  0.26248739095183626  0.4093348056811189  1.0000
  Fe  Fe11      1.0  0.4791456800366648  0.1693446029082024  0.38866763352559636  1.0000
  S   S21       1.0  0.4952969698175831  0.14877478506976252  0.33534450844348535  1.0000
  Fe  Fe12      1.0  0.49371509657862805  0.1815497179059372  0.4743086167840502  1.0000
  S   S22       1.0  0.5294582716383082  0.1824750226905283  0.5144539547241194  1.0000
  S   S23       1.0  0.44236205016895563  0.19399765014557932  0.3895206847777592  1.0000
  S   S24       1.0  0.45735902543988843  0.20626833421437576  0.48287896122103613  1.0000
  Fe  Fe13      1.0  0.5093770181286701  0.19633669688912178  0.7617428883926964  1.0000
  S   S25       1.0  0.5428447840913346  0.1681030590061148  0.7660908596994599  1.0000
  S   S26       1.0  0.5192858118103394  0.2369974568347404  0.750449265982558  1.0000
  Fe  Fe14      1.0  0.4664758308040326  0.15720714632272062  0.7691311418704356  1.0000
  S   S27       1.0  0.4953707352428743  0.12483092087046359  0.7746723144399812  1.0000
  S   S28       1.0  0.42172732759122605  0.15419965884331752  0.7660902301123919  1.0000
  Fe  Fe15      1.0  0.5179177822914184  0.1501585010846315  0.8147254921111919  1.0000
  S   S29       1.0  0.5406139014451034  0.13472096428844987  0.8671003521163178  1.0000
  Fe  Fe16      1.0  0.5183907549261474  0.1447289614129406  0.725863533865629  1.0000
  S   S30       1.0  0.540673228912853  0.12380236430874651  0.678357096593589  1.0000
  S   S31       1.0  0.48642904295666717  0.1806671062369075  0.8147024416261749  1.0000
  S   S32       1.0  0.4874704732854682  0.1747266210513165  0.7160469086275066  1.0000
  Fe  Fe17      1.0  0.263030845412619  0.17632568384301275  0.3773498401705645  1.0000
  S   S33       1.0  0.2283414147952335  0.15700021832251523  0.4080654025469763  1.0000
  S   S34       1.0  0.2999494978297291  0.15769181984855193  0.3516752079717787  1.0000
  Fe  Fe18      1.0  0.23864647696592545  0.2284176822608838  0.3878327243914272  1.0000
  S   S35       1.0  0.20183992804980194  0.21390303394304083  0.42007047980852613  1.0000
  S   S36       1.0  0.24265284645514415  0.26900932051559756  0.36921333542370055  1.0000
  Fe  Fe19      1.0  0.23097532324187336  0.1883687615369881  0.45164009462553695  1.0000
  S   S37       1.0  0.2295332660109317  0.18012583706947258  0.5173628824503433  1.0000
  Fe  Fe20      1.0  0.20237173820596432  0.1841534661375664  0.3735970232440051  1.0000
  S   S38       1.0  0.16622266479314937  0.1736849724125894  0.33816711620872103  1.0000
  S   S39       1.0  0.26795516440586636  0.2055284821165128  0.4235630910115485  1.0000
  S   S40       1.0  0.23696334088374202  0.20060483756237493  0.33881814861174664  1.0000
  Fe  Fe21      1.0  0.33386738352456174  0.2546288603810332  0.7062890669737462  1.0000
  S   S41       1.0  0.306983808056991  0.2294598316996816  0.6725704864043806  1.0000
  S   S42       1.0  0.37845294301171933  0.2572994353991708  0.6970673887546308  1.0000
  Fe  Fe22      1.0  0.2886780990605446  0.27334500257209193  0.7599535277577104  1.0000
  S   S43       1.0  0.25720332914949756  0.2502980551881312  0.730875316260878  1.0000
  S   S44       1.0  0.28285518111683233  0.2982358112001836  0.8124750138376603  1.0000
  Fe  Fe23      1.0  0.2888226032486982  0.2198280904152834  0.7326100557360814  1.0000
  S   S45       1.0  0.2815283931755424  0.18029773119361647  0.7540115657968227  1.0000
  Fe  Fe24      1.0  0.278213242158306  0.26213438097327135  0.6737508943052037  1.0000
  S   S46       1.0  0.2588053306805033  0.2748740761989383  0.6169178057840491  1.0000
  S   S47       1.0  0.3185969740249515  0.24201326251602456  0.7662667573717358  1.0000
  S   S48       1.0  0.306798573862268  0.2882662750625509  0.7027729562402326  1.0000
  Fe  Fe25      1.0  0.3575099959358043  0.41992203402403466  0.4467197395204802  1.0000
  S   S49       1.0  0.31997257080497865  0.44308170492006776  0.4393542295706356  1.0000
  S   S50       1.0  0.3984322924501918  0.4370236886708169  0.44922384458536463  1.0000
  Fe  Fe26      1.0  0.328328731497  0.37048702759861546  0.4422269347782687  1.0000
  S   S51       1.0  0.28827397338819116  0.3891973545177011  0.4327691103763362  1.0000
  S   S52       1.0  0.33314272147556573  0.32925907108753716  0.45524342677276497  1.0000
  Fe  Fe27      1.0  0.31088472396296873  0.41554096787685646  0.39166929914436377  1.0000
  S   S53       1.0  0.29247670371286016  0.4283459214539523  0.33394623879569907  1.0000
  Fe  Fe28      1.0  0.3010021874876365  0.4147506258777075  0.48072692253613825  1.0000
  S   S54       1.0  0.27116818289552563  0.42228172094210903  0.5296616220886872  1.0000
  S   S55       1.0  0.34990588226379993  0.3941635431572155  0.39608041447827125  1.0000
  S   S56       1.0  0.33946211435579143  0.3942977277580671  0.4933397837769774  1.0000
  Fe  Fe29      1.0  0.3078468280644966  0.44723539454706096  0.8170511403329231  1.0000
  S   S57       1.0  0.31104998458630495  0.48495263975339065  0.7870778266198756  1.0000
  S   S58       1.0  0.3333214207213829  0.4375103350078378  0.8694748938169915  1.0000
  Fe  Fe30      1.0  0.26185625673410257  0.43096297679060264  0.7664580769604477  1.0000
  S   S59       1.0  0.2603485297015613  0.46721726791336005  0.7322280460459982  1.0000
  S   S60       1.0  0.23316253083670707  0.40071767503273537  0.7513919169230191  1.0000
  Fe  Fe31      1.0  0.30536709767251324  0.4636893926372281  0.7307342717595184  1.0000
  S   S61       1.0  0.32771298103906127  0.4732667817380374  0.673885423551469  1.0000
  Fe  Fe32      1.0  0.2660405640934876  0.48501417457044077  0.7909512386034038  1.0000
  S   S62       1.0  0.2423334100176461  0.5188014947764292  0.8090759951483022  1.0000
  S   S63       1.0  0.3066123712364067  0.4256760406624537  0.7603103426044266  1.0000
  S   S64       1.0  0.2629880269974344  0.44903945777857496  0.825973696776661  1.0000
  Fe  Fe33      1.0  0.9262074889280132  0.7830868833652137  0.39676182427936996  1.0000
  S   S65       1.0  0.9223565354668942  0.7454426571218654  0.42742354919553627  1.0000
  S   S66       1.0  0.891323872487887  0.7998710661185586  0.36405193551115816  1.0000
  Fe  Fe34      1.0  0.9819129339012436  0.791713774088755  0.42879566137054725  1.0000
  S   S67       1.0  0.9829101069061749  0.7551515137136557  0.46238992672466744  1.0000
  S   S68       1.0  0.016160465925539658  0.81827182298035  0.4328053979728598  1.0000
  Fe  Fe35      1.0  0.9652392086356871  0.7398916680440654  0.40674905302620873  1.0000
  S   S69       1.0  0.9825253231643994  0.7052337553041733  0.37866025636263645  1.0000
  Fe  Fe36      1.0  0.9401579691941258  0.7646630749489445  0.4793378349043851  1.0000
  S   S70       1.0  0.9227140571718655  0.7648752123176418  0.5413165739452133  1.0000
  S   S71       1.0  0.9676222945573103  0.776115683010756  0.37170790508400336  1.0000
  S   S72       1.0  0.9406873470331515  0.802740502721966  0.4503117682796367  1.0000
  Fe  Fe37      1.0  0.920542077674346  0.6631406168455343  0.6992122307924269  1.0000
  S   S73       1.0  0.8932368995717023  0.6936754368237679  0.7219129280551588  1.0000
  S   S74       1.0  0.935033645382167  0.6619743135140553  0.6353134561389067  1.0000
  Fe  Fe38      1.0  0.9195500261316363  0.6347464744337423  0.7783694057391631  1.0000
  S   S75       1.0  0.8920736720949174  0.6628458054411915  0.8075185974417719  1.0000
  S   S76       1.0  0.9365234229357439  0.6031757895826103  0.8155833305648341  1.0000
  Fe  Fe39      1.0  0.8698630611196098  0.6622439628363623  0.7501391453358178  1.0000
  S   S77       1.0  0.8249847363289294  0.6638590589863784  0.7460397243859367  1.0000
  Fe  Fe40      1.0  0.9180913775258351  0.691289945728566  0.7765797984151717  1.0000
  S   S78       1.0  0.9306898828087727  0.7254150051033935  0.8089147984122955  1.0000
  S   S79       1.0  0.8949821763142859  0.6315566249219151  0.7232837778914765  1.0000
  S   S80       1.0  0.9477394191257632  0.6633845225386399  0.7518650896911913  1.0000
  Fe  Fe41      1.0  0.7870141531513212  0.7077135495626742  0.3888320825437248  1.0000
  S   S81       1.0  0.7838319456223184  0.6779999714758519  0.43659647879646485  1.0000
  S   S82       1.0  0.8205888624088681  0.7041465867570306  0.3437130081796678  1.0000
  Fe  Fe42      1.0  0.73818096629992  0.7359142925113235  0.4200349940501126  1.0000
  S   S83       1.0  0.7301802064586591  0.7082372237625909  0.46978319036837546  1.0000
  S   S84       1.0  0.7148245177035045  0.7719484682188105  0.4172098202130185  1.0000
  Fe  Fe43      1.0  0.7747917202003723  0.7096322618402723  0.4778886021657698  1.0000
  S   S85       1.0  0.7923472022735619  0.713336545797359  0.5387063384788012  1.0000
  Fe  Fe44      1.0  0.7396988733490084  0.6793978384582833  0.4235862429924965  1.0000
  S   S86       1.0  0.7196131549426777  0.6420005489881261  0.41966528434360484  1.0000
  S   S87       1.0  0.7823250328285235  0.7393459809694949  0.4313863907079333  1.0000
  S   S88       1.0  0.7434917392390982  0.7070691269916941  0.3725542135173373  1.0000
  Fe  Fe45      1.0  0.7535122930269674  0.7828579153603616  0.7661639247292572  1.0000
  S   S89       1.0  0.7441886110170217  0.7624146315378897  0.7103395224897772  1.0000
  S   S90       1.0  0.7891135983351223  0.7713107726717754  0.8025853128781423  1.0000
  Fe  Fe46      1.0  0.7050545400829449  0.8170394123007508  0.7589907017477251  1.0000
  S   S91       1.0  0.6915776022117105  0.7994421974692469  0.7026813231169075  1.0000
  S   S92       1.0  0.6769600820460029  0.8460396950755014  0.7841678701685332  1.0000
  Fe  Fe47      1.0  0.701739735398379  0.7632644203002542  0.7336171451641565  1.0000
  S   S93       1.0  0.6770250819506836  0.7286949691116268  0.7281432963828922  1.0000
  Fe  Fe48      1.0  0.7352730778613711  0.8004676060028718  0.6849747505342266  1.0000
  S   S94       1.0  0.7467857615194269  0.81060510639209  0.6218811282832774  1.0000
  S   S95       1.0  0.7116693944067407  0.7805460438578836  0.7917118946017189  1.0000
  S   S96       1.0  0.7481516749307071  0.8213292649555625  0.7387738521562653  1.0000
  Fe  Fe49      1.0  0.7785411991069223  0.8937700508745929  0.3867902226209552  1.0000
  S   S97       1.0  0.735904237548184  0.9011751921901815  0.4074334534674613  1.0000
  S   S98       1.0  0.7959177942271087  0.8571663748279108  0.36679681933257624  1.0000
  Fe  Fe50      1.0  0.7966405487547884  0.9465235666091756  0.4013966719852973  1.0000
  S   S99       1.0  0.7558614086186412  0.9590621542139737  0.4228165225048997  1.0000
  S   S100      1.0  0.830402849754869  0.9741584390283546  0.39636989823181445  1.0000
  Fe  Fe51      1.0  0.7551214336047956  0.9224290980988978  0.45642746680699425  1.0000
  S   S101      1.0  0.7398520583084344  0.9226112245585709  0.5197940891430579  1.0000
  Fe  Fe52      1.0  0.7403070468239221  0.9369980916752387  0.37209037362874453  1.0000
  S   S102      1.0  0.7062121929405537  0.952947438283331  0.336499301456411  1.0000
  S   S103      1.0  0.7972799707630697  0.911427386275399  0.43892102724980925  1.0000
  S   S104      1.0  0.7813438907718362  0.9279269003538069  0.34702599948471924  1.0000
  Fe  Fe53      1.0  0.7606117908228133  0.9613093153053454  0.754598725613371  1.0000
  S   S105      1.0  0.7783094041631811  0.995318449610185  0.7242734594981213  1.0000
  S   S106      1.0  0.7158718634779879  0.9576754456588578  0.7612323542084056  1.0000
  Fe  Fe54      1.0  0.8146646800468953  0.938939341295231  0.7743038613767708  1.0000
  S   S107      1.0  0.837659190097248  0.9710494273254383  0.7468424544137552  1.0000
  S   S108      1.0  0.8374044323974763  0.9067547412986348  0.8015274889880333  1.0000
  Fe  Fe55      1.0  0.8061645149350545  0.9951593371284573  0.7760282535941454  1.0000
  S   S109      1.0  0.814201204959914  0.03174345830972247  0.8050190913197822  1.0000
  Fe  Fe56      1.0  0.80806157180941  0.968307604395274  0.6976874474528347  1.0000
  S   S110      1.0  0.8238695153713341  0.9697181789510693  0.6348131977160689  1.0000
  S   S111      1.0  0.7859597748582521  0.9633277277115125  0.8088287012432059  1.0000
  S   S112      1.0  0.7875060324553542  0.9340343442630847  0.7224895405493527  1.0000
  Fe  Fe57      1.0  0.9802288171477157  0.948384943533357  0.4248133800127766  1.0000
  S   S113      1.0  0.018872392742353084  0.9690759043363886  0.42982027695340724  1.0000
  S   S114      1.0  0.9704689636717942  0.9229126036180642  0.37501022081934215  1.0000
  Fe  Fe58      1.0  0.9554328072846958  0.9719704141213117  0.49744816868900826  1.0000
  S   S115      1.0  0.9915342919911416  0.9953477861926407  0.509688889025559  1.0000
  S   S116      1.0  0.9164814203000725  0.9713323807795117  0.5320761803667629  1.0000
  Fe  Fe59      1.0  0.9928582693149209  0.002394417722471509  0.44369175544061074  1.0000
  S   S117      1.0  0.9995070213222709  0.041375566872826175  0.4191309167571617  1.0000
  Fe  Fe60      1.0  0.014990065471309766  0.9603919404925595  0.49518215637358326  1.0000
  S   S118      1.0  0.054748783607659  0.9528758868317185  0.5237589779051223  1.0000
  S   S119      1.0  0.9544000543509966  0.9824025824908981  0.43261250830295833  1.0000
  S   S120      1.0  0.9786524974017744  0.9360723793483073  0.48904181860393253  1.0000
  Fe  Fe61      1.0  0.003916255118209255  0.8259081743755287  0.7147325259010509  1.0000
  S   S121      1.0  0.0297566673241334  0.8478929119129869  0.7550688632527135  1.0000
  S   S122      1.0  0.010738159909815304  0.7861210640743214  0.6969525749363783  1.0000
  Fe  Fe62      1.0  0.9634688933861225  0.8676133947705444  0.7039478614362  1.0000
  S   S123      1.0  0.9849505504949616  0.8938484104557448  0.7437928063247641  1.0000
  S   S124      1.0  0.9247926546549173  0.8758776716538375  0.6731055190213808  1.0000
  Fe  Fe63      1.0  0.022122516119902347  0.8798116116998238  0.7122768395980236  1.0000
  S   S125      1.0  0.056219627134241446  0.9056645234727689  0.6974044816443478  1.0000
  Fe  Fe64      1.0  0.9906621776122709  0.8599232741729846  0.7834909951865322  1.0000
  S   S126      1.0  0.98498443648023  0.8629100255558487  0.8497657663256544  1.0000
  S   S127      1.0  0.00019985871793148924  0.8565469932143711  0.6686177604025231  1.0000
  S   S128      1.0  0.9651887972796029  0.8351379662021189  0.7467006303673266  1.0000
  Fe  Fe65      1.0  0.9674746333599025  0.5665188826986733  0.03958160209560657  1.0000
  S   S129      1.0  0.9629669763551836  0.5619110651438898  0.10605900808684732  1.0000
  S   S130      1.0  0.0006960013634547124  0.5533052794159409  0.9982096843845162  1.0000
  Fe  Fe66      1.0  0.9156667903753196  0.5969488354270511  0.03182039880024434  1.0000
  S   S131      1.0  0.9066912512700218  0.595845602900385  0.09727601154882959  1.0000
  S   S132      1.0  0.8864434941251708  0.613302183551108  0.9882053644220775  1.0000
  Fe  Fe67      1.0  0.9508598985802296  0.6026570383129227  0.10355932591549943  1.0000
  S   S133      1.0  0.9654496581713152  0.6315860052667892  0.14526545413288283  1.0000
  Fe  Fe68      1.0  0.9191404926316468  0.5554424822536016  0.09382104340782771  1.0000
  S   S134      1.0  0.8917280136828848  0.5257137686394733  0.11906665279796536  1.0000
  S   S135      1.0  0.9587711437492832  0.6079125763837168  0.038113476003495794  1.0000
  S   S136      1.0  0.924837049588329  0.5560146574548356  0.027478300352907103  1.0000
  Fe  Fe69      1.0  0.07225990837540985  0.7282266790364488  0.19614454830251393  1.0000
  S   S137      1.0  0.07977880509867674  0.7241131849817565  0.13050564551640312  1.0000
  S   S138      1.0  0.03225938100697201  0.7444161206445497  0.21551303189792248  1.0000
  Fe  Fe70      1.0  0.1276528216199296  0.7079469702736216  0.21736773560392983  1.0000
  S   S139      1.0  0.13989060107005633  0.7022746742357524  0.153418822601678  1.0000
  S   S140      1.0  0.15195111882874074  0.6944436041276597  0.26949974643227065  1.0000
  Fe  Fe71      1.0  0.12028970716184187  0.7399753213987621  0.14318279884482346  1.0000
  S   S141      1.0  0.13879377068740836  0.769133461621611  0.10231699938982944  1.0000
  Fe  Fe72      1.0  0.09832585301556174  0.6869430961341477  0.14727538327172277  1.0000
  S   S142      1.0  0.08984208664651594  0.6504547761723937  0.11715131399732438  1.0000
  S   S143      1.0  0.11149539627758952  0.7470444491369097  0.20794239393009745  1.0000
  S   S144      1.0  0.08741960310595287  0.689749717845535  0.21205883414794843  1.0000
  Fe  Fe73      1.0  0.9756587135121845  0.07189514810196163  0.18688197444465646  1.0000
  S   S145      1.0  0.9955503816794626  0.08890717704145092  0.23923923758449814  1.0000
  S   S146      1.0  0.9379751077851857  0.0492018724762473  0.19538069078645537  1.0000
  Fe  Fe74      1.0  0.02251865644370188  0.08368175653204601  0.13077719744729935  1.0000
  S   S147      1.0  0.04673652027176001  0.10111838636439363  0.17814170408900434  1.0000
  S   S148      1.0  0.042126440312175495  0.07979799933199261  0.07074820484168143  1.0000
  Fe  Fe75      1.0  0.03284938812240279  0.069308936575315  0.2168801067787272  1.0000
  S   S149      1.0  0.061295305095577124  0.04692134057741559  0.254670626880127  1.0000
  Fe  Fe76      1.0  0.007491205532532685  0.11932855768674926  0.1955843289413335  1.0000
  S   S150      1.0  0.011268506304989545  0.15966444478201455  0.2115191513896579  1.0000
  S   S151      1.0  0.012158406671236577  0.049777498575681145  0.1680121462829704  1.0000
  S   S152      1.0  0.9840321458021563  0.10429643164837507  0.14465158107975615  1.0000
  Fe  Fe77      1.0  0.08856632381975849  0.902516858224942  0.068480427882327  1.0000
  S   S153      1.0  0.12458285643989493  0.9054246674810988  0.027410189633282123  1.0000
  S   S154      1.0  0.08105269143364001  0.8746260618936291  0.11852068107255742  1.0000
  Fe  Fe78      1.0  0.05966658800457325  0.9460900507087967  0.02720980728157163  1.0000
  S   S155      1.0  0.09318787481747814  0.953029058412395  0.9827190555461253  1.0000
  S   S156      1.0  0.02068894899410667  0.9674069204014636  0.029691142144966154  1.0000
  Fe  Fe79      1.0  0.09427443241029265  0.911019751865719  0.9790230800818635  1.0000
  S   S157      1.0  0.09735500918955897  0.8905316432049803  0.9210738768679358  1.0000
  Fe  Fe80      1.0  0.1201285679687729  0.9471375342504659  0.03529669798608914  1.0000
  S   S158      1.0  0.15588902111205488  0.9701934988424297  0.0526508764001703  1.0000
  S   S159      1.0  0.058609358276135115  0.9045942259595536  0.019557045366031645  1.0000
  S   S160      1.0  0.08626166844590964  0.9436994007236206  0.08017977188819936  1.0000
  Fe  Fe81      1.0  0.6308255204478946  0.7556561855718628  0.9742386161627247  1.0000
  S   S161      1.0  0.607406035394612  0.723690397541464  0.949674337968424  1.0000
  S   S162      1.0  0.6283832761894954  0.7963030367547548  0.9560860135447578  1.0000
  Fe  Fe82      1.0  0.6643517750006894  0.7225892312574539  0.02743274135688112  1.0000
  S   S163      1.0  0.6447085825382587  0.6873935624095832  0.00827434629940016  1.0000
  S   S164      1.0  0.6953095567163708  0.722135556024462  0.07474966177600639  1.0000
  Fe  Fe83      1.0  0.6477497201819388  0.704284674450236  0.9468786171361362  1.0000
  S   S165      1.0  0.6613850130996732  0.678726123135753  0.8981670732074365  1.0000
  Fe  Fe84      1.0  0.6061193487118574  0.7092042916387236  0.01307205114133514  1.0000
  S   S166      1.0  0.5701560406111699  0.6927474599703543  0.04567802960412659  1.0000
  S   S167      1.0  0.671437367189  0.7374873467752298  0.9656169014042942  1.0000
  S   S168      1.0  0.6256533278876485  0.7432617813793693  0.03794441668159365  1.0000
  Fe  Fe85      1.0  0.714635447116918  0.5469043688921252  0.17443772693653092  1.0000
  S   S169      1.0  0.7553560318756288  0.5560512681122257  0.147926141248035  1.0000
  S   S170      1.0  0.6938487984892315  0.511735412147453  0.15567208386988687  1.0000
  Fe  Fe86      1.0  0.7084446938435366  0.5973809613947781  0.21337736448972106  1.0000
  S   S171      1.0  0.7485941830041761  0.6107386698128561  0.19093162239431968  1.0000
  S   S172      1.0  0.6816037331936214  0.6253695153259053  0.24400979135412829  1.0000
  Fe  Fe87      1.0  0.737319239238978  0.5936705554770577  0.13339806769570803  1.0000
  S   S173      1.0  0.7437859769132312  0.6123679078173337  0.07357206941718197  1.0000
  Fe  Fe88      1.0  0.7632778030173676  0.5722751982558119  0.20766906933894258  1.0000
  S   S174      1.0  0.8038880120247953  0.5718235591473544  0.23593858682212843  1.0000
  S   S175      1.0  0.6958419409750062  0.5832642107028843  0.15423230899650045  1.0000
  S   S176      1.0  0.7239465713048024  0.560134610438373  0.23601409350994448  1.0000
  Fe  Fe89      1.0  0.6369110632327726  0.9053010356421014  0.15801865041836177  1.0000
  S   S177      1.0  0.6351654328154054  0.8970751765673926  0.09278768356711531  1.0000
  S   S178      1.0  0.6706508257994646  0.8870906918860301  0.1924311065525625  1.0000
  Fe  Fe90      1.0  0.585575862848712  0.9374433505936651  0.1562463634104959  1.0000
  S   S179      1.0  0.5796706662221295  0.9316143066957834  0.09119277666565573  1.0000
  S   S180      1.0  0.5575958310365784  0.9611794300207979  0.19356489958270912  1.0000
  Fe  Fe91      1.0  0.5909570247436425  0.891657778211157  0.10484631288357987  1.0000
  S   S181      1.0  0.5659210372921571  0.8592907632889734  0.08569008519807088  1.0000
  Fe  Fe92      1.0  0.6241889299141646  0.9379169357306885  0.08613209283401857  1.0000
  S   S182      1.0  0.6414620822639193  0.9657815533597363  0.04217804660776992  1.0000
  S   S183      1.0  0.5934786944502954  0.8967968613911647  0.17076593009881827  1.0000
  S   S184      1.0  0.6293979950396029  0.9467104798158681  0.15050974620677507  1.0000
  Fe  Fe93      1.0  0.8196052089494713  0.03469688796385029  0.019337830711373405  1.0000
  S   S185      1.0  0.8189167220015657  0.030443764147368713  0.0856613527843042  1.0000
  S   S186      1.0  0.8502575216586966  0.014170188272576212  0.9822858667108507  1.0000
  Fe  Fe94      1.0  0.7710650379164931  0.06942678405354807  0.018493009327927412  1.0000
  S   S187      1.0  0.7660674149834611  0.0688270596386571  0.08513312182127208  1.0000
  S   S188      1.0  0.7449855555259418  0.0918816548482171  0.976793798034475  1.0000
  Fe  Fe95      1.0  0.8111622651974023  0.07193793635537249  0.08531301463044527  1.0000
  S   S189      1.0  0.8335689445710226  0.09916155515985865  0.12244212359241757  1.0000
  Fe  Fe96      1.0  0.7741910257359351  0.027501910313224798  0.07940636400016943  1.0000
  S   S190      1.0  0.7524198915891908  0.9974464617229412  0.11415939931940966  1.0000
  S   S191      1.0  0.8155064037890842  0.07649705728217958  0.019088112931837653  1.0000
  S   S192      1.0  0.7755076187991413  0.027782070354891886  0.012778533557276317  1.0000
  Fe  Fe97      1.0  0.6032330076113216  0.35101133143581337  0.2831362784196453  1.0000
  S   S193      1.0  0.6067536095170698  0.3354099947201997  0.2214064367205395  1.0000
  S   S194      1.0  0.5790817991004883  0.3333664146952544  0.33306782918396166  1.0000
  Fe  Fe98      1.0  0.6342443044910848  0.3984750248663152  0.26157225909519605  1.0000
  S   S195      1.0  0.640795469350407  0.38667074926866185  0.1984762099734785  1.0000
  S   S196      1.0  0.648832495897205  0.43500587196679535  0.2860816637878445  1.0000
  Fe  Fe99      1.0  0.5977216902836584  0.375098718325788  0.20185467993123912  1.0000
  S   S197      1.0  0.5694329949172946  0.3881274349263986  0.15451849731634806  1.0000
  Fe  Fe100     1.0  0.6496287010964527  0.348556260364768  0.22417570678484183  1.0000
  S   S198      1.0  0.6885300574777912  0.3309248723165988  0.2031039257984952  1.0000
  S   S199      1.0  0.5903616230674731  0.3894171974902718  0.2632592623544172  1.0000
  S   S200      1.0  0.6467648381954825  0.36121646378205163  0.28763608196624224  1.0000
  Fe  Fe101     1.0  0.4806010281151786  0.5178983107728796  0.07233549819806417  1.0000
  S   S201      1.0  0.4731019800615394  0.5197431628586174  0.13836875229769352  1.0000
  S   S202      1.0  0.4546874393157138  0.4939795483556362  0.0340986255209248  1.0000
  Fe  Fe102     1.0  0.5249740173582108  0.5571690564478655  0.07275370724250485  1.0000
  S   S203      1.0  0.520536250692755  0.5627319559407362  0.13836254903791767  1.0000
  S   S204      1.0  0.5597012855978934  0.5744661698520379  0.03827008255940045  1.0000
  Fe  Fe103     1.0  0.5181301079808398  0.5208673076533806  0.14222366862045543  1.0000
  S   S205      1.0  0.5442927727644642  0.5021031855642102  0.1879485280328499  1.0000
  Fe  Fe104     1.0  0.47607795057142555  0.56132022252273  0.1280845550674845  1.0000
  S   S206      1.0  0.4474381894994788  0.5872042721882839  0.16006956079893375  1.0000
  S   S207      1.0  0.5255197875736638  0.5151172608745067  0.07700055961731245  1.0000
  S   S208      1.0  0.4805016595860122  0.5596836969454654  0.061507557457642026  1.0000
  Fe  Fe105     1.0  0.6070466449325865  0.2115057987930779  0.016517420411335415  1.0000
  S   S209      1.0  0.6088875589751018  0.23636293671963912  0.06980074727380647  1.0000
  S   S210      1.0  0.59033325406391  0.22524838443061598  0.958250604022765  1.0000
  Fe  Fe106     1.0  0.6290701311910586  0.16571977073698163  0.060860133491258406  1.0000
  S   S211      1.0  0.6339280902071545  0.18684463392805545  0.11733503493756414  1.0000
  S   S212      1.0  0.636922246452175  0.12407623509499886  0.06379795585165815  1.0000
  Fe  Fe107     1.0  0.5930488989584448  0.20275702519778777  0.1040711749208274  1.0000
  S   S213      1.0  0.5590026457032682  0.19946271340866975  0.14900863759936356  1.0000
  Fe  Fe108     1.0  0.6494484687382185  0.2179946145833074  0.07809732689466942  1.0000
  S   S214      1.0  0.6887439824324408  0.23604574142474224  0.09221745163177664  1.0000
  S   S215      1.0  0.5872416033913461  0.1797943411125244  0.049745328511134446  1.0000
  S   S216      1.0  0.6487285519653638  0.19533376315248296  0.0223009649285566  1.0000
  Fe  Fe109     1.0  0.4312928859199277  0.08629605257416191  0.16660230172850432  1.0000
  S   S217      1.0  0.45295122551719474  0.11092403711878798  0.12222115610171116  1.0000
  S   S218      1.0  0.41038449643972535  0.10686400506647767  0.21643238114409533  1.0000
  Fe  Fe110     1.0  0.44520473688365525  0.039056679233718805  0.12126530651001387  1.0000
  S   S219      1.0  0.46746384568843946  0.06008032430053789  0.07275968437140201  1.0000
  S   S220      1.0  0.44734974715101755  0.9971025584489667  0.11910880552654943  1.0000
  Fe  Fe111     1.0  0.48483410474844213  0.08100373069914182  0.12319837706146357  1.0000
  S   S221      1.0  0.5293549248013596  0.08688093907270418  0.12251311608720601  1.0000
  Fe  Fe112     1.0  0.43320843987397056  0.0876257915241756  0.07669482632427016  1.0000
  S   S222      1.0  0.4156806017263249  0.10982742529611045  0.025835031870014902  1.0000
  S   S223      1.0  0.46509734073365167  0.05812719608764793  0.1716335101797805  1.0000
  S   S224      1.0  0.40892556596005064  0.06476053460880493  0.1209186308904918  1.0000
  Fe  Fe113     1.0  0.1244743279544285  0.2860336819857235  0.09382027717105257  1.0000
  S   S225      1.0  0.09798701916244923  0.2625520357457424  0.1339601593670286  1.0000
  S   S226      1.0  0.105941971316597  0.3167273006226907  0.05662881383043561  1.0000
  Fe  Fe114     1.0  0.17477345019805804  0.256388549485793  0.11325672989816798  1.0000
  S   S227      1.0  0.1530892986072608  0.22972600306191127  0.15428375336541877  1.0000
  S   S228      1.0  0.21956691966676434  0.25293748241504493  0.10575469110522416  1.0000
  Fe  Fe115     1.0  0.12118368214213748  0.23027294191557537  0.10803551567803348  1.0000
  S   S229      1.0  0.10094374671141138  0.1952885313455047  0.08867079004569756  1.0000
  Fe  Fe116     1.0  0.13195735264959144  0.2640586225716207  0.1769113345297058  1.0000
  S   S230      1.0  0.12746751916493643  0.2701180538790756  0.24268643571354012  1.0000
  S   S231      1.0  0.1450824105351538  0.2535985709943962  0.06414344110896164  1.0000
  S   S232      1.0  0.15635490303443503  0.29106545865194305  0.13942106779624291  1.0000
  Fe  Fe117     1.0  0.21044583662398417  0.09926223213174157  0.9963477039602868  1.0000
  S   S233      1.0  0.24235000512604868  0.0850966047665529  0.037771535954355784  1.0000
  S   S234      1.0  0.17050845622441071  0.08085993006831327  0.9858143502177186  1.0000
  Fe  Fe118     1.0  0.2436613199037708  0.14391783827852203  0.9677068349821012  1.0000
  S   S235      1.0  0.2785329474613678  0.13343763890615654  0.006208929759270454  1.0000
  S   S236      1.0  0.2442468951623832  0.18103507736376356  0.9348182963174879  1.0000
  Fe  Fe119     1.0  0.27091241436511754  0.09417209558527806  0.9872271049941751  1.0000
  S   S237      1.0  0.30370802454008355  0.06577822387043053  0.9761395057949521  1.0000
  Fe  Fe120     1.0  0.2471490605920071  0.12549028873626972  0.05309671797311388  1.0000
  S   S238      1.0  0.25663663127760056  0.13947306524302625  0.11350568253434479  1.0000
  S   S239      1.0  0.23868358076328627  0.10511981692593242  0.9440117275015941  1.0000
  S   S240      1.0  0.2125598915884656  0.13914974536812294  0.016427566971066954  1.0000
  Fe  Fe121     1.0  0.26745616795892146  0.6122663288843373  0.22126694199479457  1.0000
  S   S241      1.0  0.26021565112568473  0.5932484322081215  0.16368150942643003  1.0000
  S   S242      1.0  0.2668403708860133  0.6542727197807793  0.21617744515795398  1.0000
  Fe  Fe122     1.0  0.2778578484733471  0.5631365147592108  0.2653446085110959  1.0000
  S   S243      1.0  0.2716271217423067  0.5399131973637996  0.21140718899811597  1.0000
  S   S244      1.0  0.2928852991141023  0.5463434736398993  0.32249689128793163  1.0000
  Fe  Fe123     1.0  0.29596047273398896  0.5693687789709554  0.17930117260142736  1.0000
  S   S245      1.0  0.3263385597232616  0.5576135478415416  0.1325704004675299  1.0000
  Fe  Fe124     1.0  0.2364735934306826  0.5657520880328059  0.2009916231938634  1.0000
  S   S246      1.0  0.19625203769697327  0.5513840496237082  0.18232842357366275  1.0000
  S   S247      1.0  0.30522361135985426  0.5905896207105499  0.23420881422563578  1.0000
  S   S248      1.0  0.24055794223932853  0.5868617565248955  0.2578908204448451  1.0000
  Fe  Fe125     1.0  0.13632135501884882  0.469411265104904  0.9258364340237616  1.0000
  S   S249      1.0  0.17918737746038457  0.4624031040276885  0.9422657739043178  1.0000
  S   S250      1.0  0.13024267234794545  0.47337311653617814  0.8604206236277863  1.0000
  Fe  Fe126     1.0  0.11636951612585089  0.46661451819820626  0.010877101736662675  1.0000
  S   S251      1.0  0.15767531163774295  0.459361343494865  0.03499227455035481  1.0000
  S   S252      1.0  0.08133641989842544  0.46827703640913876  0.05424390894048581  1.0000
  Fe  Fe127     1.0  0.17048389154726992  0.4892427188403311  0.9911465113760999  1.0000
  S   S253      1.0  0.20138765363129277  0.5181479137090497  0.0031757751882470764  1.0000
  Fe  Fe128     1.0  0.16262110764002213  0.43317075598661064  0.9839020601316577  1.0000
  S   S254      1.0  0.1864407232945693  0.39735301239243637  0.9901645537628102  1.0000
  S   S255      1.0  0.12892173578924288  0.4991099136229843  0.9712830871130878  1.0000
  S   S256      1.0  0.12002483562554667  0.43765559300987067  0.9633080607231022  1.0000
  C   C1        1.0  0.19794549440847187  0.5413301656978293  0.13293931424645186  1.0000
  C   C2        1.0  0.2212232687133945  0.5453705704836733  0.10970900935057623  1.0000
  C   C3        1.0  0.22208536457494943  0.5384555916265443  0.0696843143593413  1.0000
  C   C4        1.0  0.19997844361565578  0.5267049037742323  0.05316700551323983  1.0000
  C   C5        1.0  0.17691557164869195  0.5219430343178759  0.0765954962386628  1.0000
  C   C6        1.0  0.1757439904093885  0.5295883758485886  0.1163913222203683  1.0000
  H   H1        1.0  0.23869237058926462  0.553697573314151  0.1224649637227025  1.0000
  H   H2        1.0  0.24006442832969996  0.5418880560603201  0.051744200498989645  1.0000
  H   H3        1.0  0.15997505556178254  0.5125686311602029  0.0638817974257595  1.0000
  H   H4        1.0  0.15790135222306825  0.5260545906797263  0.13454820536104029  1.0000
  C   C7        1.0  0.12978084017533176  0.3354835475540828  0.03175070853955808  1.0000
  C   C8        1.0  0.12082064540407944  0.35412740201094733  0.0052249850326469005  1.0000
  C   C9        1.0  0.13862618188706066  0.3724670018590255  0.9908068042458728  1.0000
  C   C10       1.0  0.16545464430727153  0.372115530539831  0.0026659716474595196  1.0000
  C   C11       1.0  0.17497062534028296  0.35235956598207413  0.026790407787702364  1.0000
  C   C12       1.0  0.1570741426287412  0.334002566679411  0.041459601022270975  1.0000
  H   H5        1.0  0.09982554944685185  0.3549312678335558  0.9970050688913232  1.0000
  H   H6        1.0  0.13144352612033228  0.386990787296776  0.9708870810223484  1.0000
  H   H7        1.0  0.19582127163171315  0.3519486252686271  0.03575429460902524  1.0000
  H   H8        1.0  0.16411914552940576  0.31949615906370465  0.06175422450174772  1.0000
  C   C13       1.0  0.2294149504865029  0.22132961488814887  0.11014844697949451  1.0000
  C   C14       1.0  0.21090912862214528  0.20226899166727835  0.10347485351718051  1.0000
  C   C15       1.0  0.21921867467563996  0.1770678440131458  0.1050470289941185  1.0000
  C   C16       1.0  0.24582258110483735  0.17084428476113886  0.11450474069134471  1.0000
  C   C17       1.0  0.26416054606210365  0.18985638174295472  0.12236268694354924  1.0000
  C   C18       1.0  0.25604350597375275  0.21512521029366363  0.11962207288050197  1.0000
  H   H9        1.0  0.19029428873034837  0.2068611062160325  0.09622179931080789  1.0000
  H   H10       1.0  0.20496632015504765  0.16239869396870737  0.09922784935981811  1.0000
  H   H11       1.0  0.284770761765764  0.18509600616783634  0.12950409383374106  1.0000
  H   H12       1.0  0.2703879351952294  0.2298276940477073  0.12482773844057449  1.0000
  C   C19       1.0  0.3351481083410537  0.07786079250344646  0.9887388971019836  1.0000
  C   C20       1.0  0.34133795053917393  0.10299475408128256  0.9803298165251387  1.0000
  C   C21       1.0  0.36636828690829903  0.11260119961749981  0.9910467836956963  1.0000
  C   C22       1.0  0.385022110932959  0.0972308047911774  0.010909427529822935  1.0000
  C   C23       1.0  0.37881473417585015  0.07212789089639005  0.01943591345082485  1.0000
  C   C24       1.0  0.3540214381801156  0.062369753395557836  0.007904360896389129  1.0000
  H   H13       1.0  0.3270700841219573  0.11487528103382383  0.964765937690709  1.0000
  H   H14       1.0  0.37119535165399903  0.131985823245943  0.9842539258523509  1.0000
  H   H15       1.0  0.3933032232142933  0.06008595869989719  0.03429878884731763  1.0000
  H   H16       1.0  0.34936995926349546  0.04289408417537043  0.014300493612017018  1.0000
  C   C25       1.0  0.5512556933162104  0.1673599405647374  0.14885074277835142  1.0000
  C   C26       1.0  0.5254185382710899  0.1588034794830301  0.15926988983344184  1.0000
  C   C27       1.0  0.5189485882636345  0.13345408673642006  0.1540707302951991  1.0000
  C   C28       1.0  0.53806058901874  0.11699427301823095  0.13733787212853799  1.0000
  C   C29       1.0  0.5641197891880831  0.1253038975376891  0.1290149996358969  1.0000
  C   C30       1.0  0.5707208928878444  0.15027967788005608  0.13525772439307926  1.0000
  H   H17       1.0  0.5101949773790182  0.1717796968758676  0.17001820171358298  1.0000
  H   H18       1.0  0.4990297890562757  0.12687619759807106  0.16197953651463753  1.0000
  H   H19       1.0  0.579117754682377  0.11274989566956684  0.11637365008964062  1.0000
  H   H20       1.0  0.5908849864245518  0.15628714031823726  0.12838347514809723  1.0000
  C   C31       1.0  0.4138779715963632  0.5792112246885645  0.15183602678692676  1.0000
  C   C32       1.0  0.4074563863931362  0.5620814201535547  0.12244939669074095  1.0000
  C   C33       1.0  0.3804511433419561  0.5558987181346464  0.11619893169944362  1.0000
  C   C34       1.0  0.3598901784341976  0.5664113664768122  0.1398531243571799  1.0000
  C   C35       1.0  0.3663771775167634  0.5834744693282021  0.16925569793682732  1.0000
  C   C36       1.0  0.39329198218163675  0.5900080626219868  0.17506703379598584  1.0000
  H   H21       1.0  0.42328458599821045  0.5537194420259024  0.10431648658895454  1.0000
  H   H22       1.0  0.3755845127211428  0.5427026016775095  0.09331106287961766  1.0000
  H   H23       1.0  0.3507665845178695  0.5918664712156606  0.18729950802305573  1.0000
  H   H24       1.0  0.39827155339274095  0.603248082908433  0.19782891423499363  1.0000
  C   C37       1.0  0.6872179164754877  0.30456448857984914  0.17236681557049796  1.0000
  C   C38       1.0  0.7115251676149532  0.29464282043782525  0.157563174911478  1.0000
  C   C39       1.0  0.7115924986885346  0.2737020972621004  0.1329789103033141  1.0000
  C   C40       1.0  0.6873586845299557  0.2623910507085371  0.12307041185185441  1.0000
  C   C41       1.0  0.6628906414486883  0.27218571246585727  0.13787253197413385  1.0000
  C   C42       1.0  0.662814282774483  0.2933715631991081  0.16247658988063945  1.0000
  H   H25       1.0  0.7304170604323289  0.3031633452083912  0.16513686267986413  1.0000
  H   H26       1.0  0.7305224726380259  0.26623426042393883  0.12164058621722185  1.0000
  H   H27       1.0  0.6441063836955757  0.2634411048358066  0.13047416683439605  1.0000
  H   H28       1.0  0.6439740387048077  0.3008850980200203  0.17392755367499735  1.0000
  C   C43       1.0  0.5634944513396823  0.42036612251292227  0.1607476885937695  1.0000
  C   C44       1.0  0.579865224351676  0.43393738301721674  0.18595437525610128  1.0000
  C   C45       1.0  0.5741095945676248  0.45915904888098513  0.19357303540207935  1.0000
  C   C46       1.0  0.5520617321581479  0.4710289231563344  0.17571727896719347  1.0000
  C   C47       1.0  0.5362320128154298  0.45785937252415226  0.14920623136325073  1.0000
  C   C48       1.0  0.54192648041604  0.432457447996541  0.14177707953811058  1.0000
  H   H29       1.0  0.5970077316693577  0.42503292792718045  0.19970607673763402  1.0000
  H   H30       1.0  0.5867157270307781  0.46940240284034507  0.21349151967854807  1.0000
  H   H31       1.0  0.5191221294506753  0.4669845863703827  0.1353776896056711  1.0000
  H   H32       1.0  0.529207327994206  0.4220738476361346  0.12220135363220064  1.0000
  C   C49       1.0  0.713580469518238  0.09923974423127416  0.9984031044230557  1.0000
  C   C50       1.0  0.7036197908129717  0.08523545757630882  0.030977073991123927  1.0000
  C   C51       1.0  0.6795299258740443  0.09253620376239469  0.05013620605796798  1.0000
  C   C52       1.0  0.6656315381281133  0.11408139622051301  0.03718896187785892  1.0000
  C   C53       1.0  0.6752725314881607  0.12778994260169785  0.004093761123236339  1.0000
  C   C54       1.0  0.6991173747582676  0.12020926185150696  0.9844451570642038  1.0000
  H   H33       1.0  0.7145000101582906  0.06882214990879376  0.04149787800996241  1.0000
  H   H34       1.0  0.6720143191761611  0.08181771021899949  0.07560491841456907  1.0000
  H   H35       1.0  0.6643210244840346  0.14416847498903407  0.9935724421662951  1.0000
  H   H36       1.0  0.706749041850882  0.13098704141356635  0.95910503178626  1.0000
  C   C55       1.0  0.5275903239104625  0.972266449372285  0.17197964205640004  1.0000
  C   C56       1.0  0.506904280294226  0.9815753761032436  0.19664172921512157  1.0000
  C   C57       1.0  0.48236434732699895  0.9895710847573516  0.1803458980502519  1.0000
  C   C58       1.0  0.4784108855633242  0.988221367362474  0.13930464998695716  1.0000
  C   C59       1.0  0.49932101318909633  0.9795628555354768  0.1144498339835669  1.0000
  C   C60       1.0  0.5239150446859802  0.9717300387843509  0.1307780035819266  1.0000
  H   H37       1.0  0.5097209160506267  0.9823798733666111  0.22849391634141564  1.0000
  H   H38       1.0  0.4663447302886609  0.9965477654325474  0.1996023882992458  1.0000
  H   H39       1.0  0.4964617092950909  0.9789933978444081  0.08259121315133466  1.0000
  H   H40       1.0  0.5399282218169139  0.9653999981520198  0.11136647439026229  1.0000
  C   C61       1.0  0.7225921243861856  0.9882699875274308  0.09147742076362597  1.0000
  C   C62       1.0  0.7102881376520601  0.0035015665793600714  0.06248506950565513  1.0000
  C   C63       1.0  0.6856143774242474  0.9963377903121472  0.04636379352758535  1.0000
  C   C64       1.0  0.6733008305817458  0.9740111081595536  0.05937956564491854  1.0000
  C   C65       1.0  0.6859995220412998  0.9585878908333121  0.08759978793546375  1.0000
  C   C66       1.0  0.7105637602645216  0.965688347804995  0.10358657950016081  1.0000
  H   H41       1.0  0.7194425009033734  0.02103051275632306  0.05316889207033593  1.0000
  H   H42       1.0  0.6758070645192158  0.008338600487349579  0.02458269177192096  1.0000
  H   H43       1.0  0.6769859253024639  0.941033669716389  0.09704075241229917  1.0000
  H   H44       1.0  0.7202695764822753  0.9535135141285298  0.12517927997613393  1.0000
  C   C67       1.0  0.6822552491885022  0.49059575018537716  0.19274805727024813  1.0000
  C   C68       1.0  0.6855475778571061  0.4949963431309616  0.23332197022672535  1.0000
  C   C69       1.0  0.6750952817725201  0.47795214274599634  0.26200121343699034  1.0000
  C   C70       1.0  0.6610649252242794  0.45670462986133764  0.25014374720254445  1.0000
  C   C71       1.0  0.6574912646889057  0.45266386451166896  0.2096124793637441  1.0000
  C   C72       1.0  0.6685414950231721  0.46920082589509265  0.18102833523218487  1.0000
  H   H45       1.0  0.6960704463058099  0.5114762173833832  0.242670791154542  1.0000
  H   H46       1.0  0.6778587001935235  0.48127082030681745  0.2933767833119503  1.0000
  H   H47       1.0  0.6457995855969405  0.437088460381406  0.20010237500995648  1.0000
  H   H48       1.0  0.6657784213563886  0.4657600837567742  0.14968606432554618  1.0000
  C   C73       1.0  0.5668326433410136  0.6599520669541985  0.04261342038449678  1.0000
  C   C74       1.0  0.5468973799399873  0.64763932520507  0.0655639243051711  1.0000
  C   C75       1.0  0.5444498774415399  0.6213866745230346  0.06434268638485907  1.0000
  C   C76       1.0  0.5620211348143396  0.607358188187007  0.040226675385782285  1.0000
  C   C77       1.0  0.5820364364556864  0.6196523798025341  0.017489533585711703  1.0000
  C   C78       1.0  0.5843247893304914  0.6458798143139844  0.018461618127820767  1.0000
  H   H49       1.0  0.533245580976641  0.658426664442376  0.08422822681466013  1.0000
  H   H50       1.0  0.5288713353076064  0.6120584869790989  0.08187894080670488  1.0000
  H   H51       1.0  0.595509334594508  0.6089123094267512  0.998488623705157  1.0000
  H   H52       1.0  0.5993039015537099  0.6551820465634108  0.9999027084175549  1.0000
  C   C79       1.0  0.6090664440300871  0.814152016752767  0.989511836264747  1.0000
  C   C80       1.0  0.6142640118328978  0.8397997281876154  0.9928952211590908  1.0000
  C   C81       1.0  0.6007607774306245  0.8538760029077134  0.022110796859818205  1.0000
  C   C82       1.0  0.5814886654819464  0.8424539315038805  0.04716431543106503  1.0000
  C   C83       1.0  0.5754339012378336  0.8170644464701236  0.042580538239037846  1.0000
  C   C84       1.0  0.5894175317360841  0.8028351577714081  0.014005555642893741  1.0000
  H   H53       1.0  0.6293545484849581  0.8486369446116112  0.9737927922763059  1.0000
  H   H54       1.0  0.6052092422813287  0.873578225614826  0.025152437207634826  1.0000
  H   H55       1.0  0.560457388296501  0.8081975020274689  0.06185226986448611  1.0000
  H   H56       1.0  0.5850422207031705  0.7830990731903417  0.011086916825588933  1.0000
  C   C85       1.0  0.7111967207576064  0.692683128609478  0.07356449747638916  1.0000
  C   C86       1.0  0.7127054624562023  0.679317982216333  0.03804518498994014  1.0000
  C   C87       1.0  0.7235120952506193  0.6548843671372329  0.03790472311849946  1.0000
  C   C88       1.0  0.7322120910526464  0.6435952698083092  0.07345040447177986  1.0000
  C   C89       1.0  0.7309665306865617  0.6571378216438128  0.1087683107976774  1.0000
  C   C90       1.0  0.7208094753208519  0.6817691987286874  0.10874280563794712  1.0000
  H   H57       1.0  0.7053878868761199  0.6877358945037226  0.010716407991329557  1.0000
  H   H58       1.0  0.7243565485072303  0.6444663286545834  0.01051865686247666  1.0000
  H   H59       1.0  0.7379867126506527  0.6487961652661589  0.1361432933617728  1.0000
  H   H60       1.0  0.7197174595825028  0.692077511724613  0.13623217386996347  1.0000
  C   C91       1.0  0.15794922436175246  0.0015378952265663326  0.036030086717998344  1.0000
  C   C92       1.0  0.14091750286611793  0.01123760657603845  0.006706366914885686  1.0000
  C   C93       1.0  0.14447677950930127  0.03588942635327386  0.9921123481687475  1.0000
  C   C94       1.0  0.1650475198917486  0.050840641901132244  0.006784200005478969  1.0000
  C   C95       1.0  0.18118007481772427  0.0415182321092864  0.037424821231866634  1.0000
  C   C96       1.0  0.1777054131229386  0.016884416062203034  0.05191450577744372  1.0000
  H   H61       1.0  0.12546176971380618  0.9995963295616378  0.994564259217974  1.0000
  H   H62       1.0  0.13169901728990746  0.04313873869058504  0.9686903057797094  1.0000
  H   H63       1.0  0.19642053563117565  0.05321817245232574  0.04987062640224571  1.0000
  H   H64       1.0  0.19060267866338432  0.009561021047922447  0.07514057694103027  1.0000
  C   C97       1.0  0.033342643768119906  0.17251237553544807  0.17538820277492567  1.0000
  C   C98       1.0  0.050157464224905635  0.19246067486908178  0.1846487648627819  1.0000
  C   C99       1.0  0.07092919164541822  0.19968370165787586  0.15799846315978724  1.0000
  C   C100      1.0  0.07411698721167692  0.18769909965861578  0.12138789160470057  1.0000
  C   C101      1.0  0.05627143331259443  0.16877376204720315  0.11133936362214654  1.0000
  C   C102      1.0  0.03618597013684943  0.16097428945450876  0.13846306685679075  1.0000
  H   H65       1.0  0.04793631954946265  0.20160446924304276  0.2130229515862994  1.0000
  H   H66       1.0  0.08478792490957376  0.21411326322810342  0.16624200575335513  1.0000
  H   H67       1.0  0.05802122472878235  0.15993173804097272  0.08275010589315791  1.0000
  H   H68       1.0  0.022929783954739102  0.145921700987369  0.13074632804894407  1.0000
  C   C103      1.0  0.9086017314913774  0.06384863359062765  0.17770240663307527  1.0000
  C   C104      1.0  0.9085083781852346  0.08916646894927527  0.1659686576662458  1.0000
  C   C105      1.0  0.8851998731523879  0.1000886544616828  0.14973237595672817  1.0000
  C   C106      1.0  0.8621224542255107  0.08562304562224346  0.144637628316713  1.0000
  C   C107      1.0  0.8621680005147982  0.06039644711036928  0.15687151094875107  1.0000
  C   C108      1.0  0.8853101933326  0.04956489739737235  0.17358663856564835  1.0000
  H   H69       1.0  0.9263050228335348  0.10039351751554726  0.16949970335481357  1.0000
  H   H70       1.0  0.8851625674470253  0.11967939340966138  0.14061435418792523  1.0000
  H   H71       1.0  0.8441813111493105  0.04935980648484683  0.15422918679803976  1.0000
  H   H72       1.0  0.8852512975124219  0.030005216084617148  0.18281609562963108  1.0000
  C   C109      1.0  0.035258887485035695  0.049519755769169116  0.0550925017345838  1.0000
  C   C110      1.0  0.05517180777528674  0.03558017282436232  0.035096094018032487  1.0000
  C   C111      1.0  0.05074543212643423  0.010255449291224794  0.026933984319760906  1.0000
  C   C112      1.0  0.026125105199949816  0.9992068186960902  0.037698299852078954  1.0000
  C   C113      1.0  0.005936458279270473  0.013423321996466786  0.05646648726140646  1.0000
  C   C114      1.0  0.010628949435282253  0.03850575368443265  0.06564899822695858  1.0000
  H   H73       1.0  0.07430024457524187  0.044035746002406784  0.027083939340012186  1.0000
  H   H74       1.0  0.06633815157248657  0.9993023144419386  0.012324048268289145  1.0000
  H   H75       1.0  0.9870591826541798  0.00470013408376424  0.06502927185711327  1.0000
  H   H76       1.0  0.995288968166895  0.04931019196849262  0.08117006144605377  1.0000
  C   C115      1.0  0.18477697992558884  0.6848710630817401  0.2561697985457273  1.0000
  C   C116      1.0  0.1974505488905457  0.6944571584552247  0.22166419058562523  1.0000
  C   C117      1.0  0.22311420584391187  0.6855918169509104  0.21020184503262582  1.0000
  C   C118      1.0  0.23583439514551957  0.6666836672401425  0.2326774707062927  1.0000
  C   C119      1.0  0.2232332522898161  0.6571663077063625  0.2672958540382826  1.0000
  C   C120      1.0  0.19787554386921583  0.6665152722398948  0.27931762920330194  1.0000
  H   H77       1.0  0.18764583658788167  0.7089725601497019  0.2041027010825671  1.0000
  H   H78       1.0  0.2328583611448783  0.6930980638854086  0.18352777586746657  1.0000
  H   H79       1.0  0.23313143208447284  0.6427569523684734  0.28498291226489336  1.0000
  H   H80       1.0  0.18816882800342177  0.6591715818644766  0.3061449112940791  1.0000
  C   C121      1.0  0.12401640196828995  0.7988161069510669  0.10927139017999075  1.0000
  C   C122      1.0  0.1011833105740787  0.801571317577588  0.13393250567920578  1.0000
  C   C123      1.0  0.08880302287726849  0.8251962383175494  0.13789181110570503  1.0000
  C   C124      1.0  0.09893376513637353  0.8460517726910313  0.1167163318315465  1.0000
  C   C125      1.0  0.12213178288098599  0.8434242316193209  0.09278163182660593  1.0000
  C   C126      1.0  0.1345849363106782  0.819797990895476  0.08892001367040803  1.0000
  H   H81       1.0  0.09271807321726966  0.7854267456606441  0.14937045179817732  1.0000
  H   H82       1.0  0.0708523547701363  0.8271439015042503  0.15642793172340652  1.0000
  H   H83       1.0  0.13036444477097547  0.8595230576689623  0.0769814118193819  1.0000
  H   H84       1.0  0.15237100026288058  0.8177429318574895  0.07006842043947392  1.0000
  C   C127      1.0  0.020922437629524282  0.5279584098599144  0.013719442203522059  1.0000
  C   C128      1.0  0.019446182557862457  0.518305144938454  0.052704918207178375  1.0000
  C   C129      1.0  0.03732120625434776  0.4991206300722831  0.06474565177152547  1.0000
  C   C130      1.0  0.056637503404560086  0.489667633289554  0.03781059828617783  1.0000
  C   C131      1.0  0.05741754223979956  0.4987832913856048  0.9985200481414933  1.0000
  C   C132      1.0  0.03967983961326316  0.5179498901416069  0.986554236371908  1.0000
  H   H85       1.0  0.004906513690743131  0.5258793291724813  0.07376073082021883  1.0000
  H   H86       1.0  0.036601983100562174  0.49206273435566017  0.09517441218783285  1.0000
  H   H87       1.0  0.07179479674108169  0.491151419624995  0.977316600972367  1.0000
  H   H88       1.0  0.04082440440121626  0.5252821756101809  0.9563071666608384  1.0000
  C   C133      1.0  0.8677880248211715  0.5380414628301997  0.15274805566106853  1.0000
  C   C134      1.0  0.8422807412384868  0.5270881900010759  0.15637017591825697  1.0000
  C   C135      1.0  0.8225390299833466  0.5374511137291518  0.1818355543354393  1.0000
  C   C136      1.0  0.8284925101979564  0.558428613461231  0.20445617864875248  1.0000
  C   C137      1.0  0.8541588639070121  0.5690928409466447  0.20140387674831475  1.0000
  C   C138      1.0  0.8736768062900233  0.5591099795259789  0.17518838998023356  1.0000
  H   H89       1.0  0.837721323129627  0.5107097012179388  0.13921400677848061  1.0000
  H   H90       1.0  0.8028945147941393  0.5289017115638472  0.1845903026076936  1.0000
  H   H91       1.0  0.858851075723949  0.5852720385597238  0.21891688565183434  1.0000
  H   H92       1.0  0.8934604557944135  0.5674184012459771  0.17291871759129981  1.0000
  C   C139      1.0  0.9997440907201234  0.6370463387421699  0.1355222832244587  1.0000
  C   C140      1.0  0.015399757476445286  0.6199216360950427  0.11369104305032152  1.0000
  C   C141      1.0  0.04307150471198429  0.6241475608225742  0.10742096271870638  1.0000
  C   C142      1.0  0.05503949146760467  0.6454904336095059  0.12291456985288958  1.0000
  C   C143      1.0  0.03914852210168607  0.6628231816972971  0.1437683937750523  1.0000
  C   C144      1.0  0.011639508753980676  0.6585841381596748  0.15018194897894682  1.0000
  H   H93       1.0  0.006251193717855319  0.6033380529561604  0.10195313543625972  1.0000
  H   H94       1.0  0.055038608855610294  0.610985981449481  0.09051205527469186  1.0000
  H   H95       1.0  0.04787673264460546  0.6797148895035697  0.15481355475188094  1.0000
  H   H96       1.0  0.9996198972206564  0.6723146345353296  0.16591690552922586  1.0000
  C   C145      1.0  0.015718894263561323  0.8682822759910549  0.8729977198979528  1.0000
  C   C146      1.0  0.039307396523825755  0.8560803058861844  0.8600742963366709  1.0000
  C   C147      1.0  0.06426634468730441  0.8624943610323771  0.8757802518470834  1.0000
  C   C148      1.0  0.06572929670265282  0.8811703016930512  0.9044094672541474  1.0000
  C   C149      1.0  0.04206981200323723  0.8929465490734647  0.9180731565803691  1.0000
  C   C150      1.0  0.017059510628117502  0.8862825587180477  0.902746714223043  1.0000
  H   H97       1.0  0.03831644058573502  0.8416760796385744  0.8379388471973742  1.0000
  H   H98       1.0  0.08249140390846899  0.8532628388750165  0.8651861583879953  1.0000
  H   H99       1.0  0.04301650981313632  0.9079261475885102  0.9392339844508897  1.0000
  H   H100      1.0  0.9988805385559317  0.8959142455996604  0.9126190795323715  1.0000
  C   C151      1.0  0.053911323818705004  0.9399778422864556  0.5721504261164848  1.0000
  C   C152      1.0  0.030333435362494887  0.9297586360569465  0.5890571152624277  1.0000
  C   C153      1.0  0.03078753431898451  0.9189892838476528  0.6276459096710204  1.0000
  C   C154      1.0  0.05470243537791397  0.9188755916008546  0.6492937215062001  1.0000
  C   C155      1.0  0.07799025779595725  0.929551035659889  0.6325385891866295  1.0000
  C   C156      1.0  0.07766594802702054  0.9398417577686466  0.5939340780431959  1.0000
  H   H101      1.0  0.01194908490887947  0.9298112072555182  0.5722266970068188  1.0000
  H   H102      1.0  0.012684789343980096  0.9109154035915669  0.6406618437013603  1.0000
  H   H103      1.0  0.09647642596743777  0.9294417276230728  0.6491545136102266  1.0000
  H   H104      1.0  0.0959139791182726  0.9476529552000482  0.5809070864288474  1.0000
  C   C157      1.0  0.020281655560262957  0.04377251700963125  0.37648033881737586  1.0000
  C   C158      1.0  0.02074268574437199  0.06634673574804628  0.35461544639236064  1.0000
  C   C159      1.0  0.03451165490125452  0.06769536678364396  0.3178639472979727  1.0000
  C   C160      1.0  0.048103376957518984  0.04659372569063125  0.30323184018397265  1.0000
  C   C161      1.0  0.04912637601919312  0.024519256646835297  0.32622325588099177  1.0000
  C   C162      1.0  0.03508557681208102  0.023100447619775144  0.36273296994309173  1.0000
  H   H105      1.0  0.009522002863834311  0.08248979209469609  0.36528217965088  1.0000
  H   H106      1.0  0.03426369978665522  0.08495421376089429  0.3005545764193503  1.0000
  H   H107      1.0  0.05966184843942557  0.008167532398163146  0.3149274767905027  1.0000
  H   H108      1.0  0.03505676443419836  0.005747301201669774  0.3793394020786817  1.0000
  C   C163      1.0  0.8611613884806022  0.8966716045648645  0.7661600405102515  1.0000
  C   C164      1.0  0.8870995135623992  0.8897786633731138  0.7779879102373727  1.0000
  C   C165      1.0  0.9066089254208443  0.8829552150823089  0.7494147114863625  1.0000
  C   C166      1.0  0.9000174221984862  0.8826184103503131  0.7090844107051061  1.0000
  C   C167      1.0  0.873864158575247  0.8888350682949897  0.697360574413479  1.0000
  C   C168      1.0  0.8545405986301079  0.8961911918210991  0.7258501567598055  1.0000
  H   H109      1.0  0.8923323424605711  0.8904864996955058  0.8091284186035423  1.0000
  H   H110      1.0  0.9268360931769025  0.8784221688342249  0.7586902086502648  1.0000
  H   H111      1.0  0.8686188691765396  0.888350013674605  0.66624782582173  1.0000
  H   H112      1.0  0.8344634242598108  0.9013262309272874  0.7166509245147173  1.0000
  C   C169      1.0  0.8266569102748952  0.02721393305303743  0.8530837008160358  1.0000
  C   C170      1.0  0.8369746414302115  0.0038379940623991526  0.8653053670504177  1.0000
  C   C171      1.0  0.8453727471244291  0.00012379980397358992  0.9047104266314838  1.0000
  C   C172      1.0  0.8427739801760963  0.019577059196866475  0.9320547531180958  1.0000
  C   C173      1.0  0.8326383773410679  0.042966117264295  0.9196620231887885  1.0000
  C   C174      1.0  0.8249326694312604  0.04687578298742712  0.8800889332991266  1.0000
  H   H113      1.0  0.8384290698014336  0.9885995828647722  0.8444711780238069  1.0000
  H   H114      1.0  0.85308629961309  0.98196684826602  0.9142697951603337  1.0000
  H   H115      1.0  0.8307036157386772  0.05809523886215029  0.9405220371622706  1.0000
  H   H116      1.0  0.8169894351722488  0.06497643764461558  0.870671108321338  1.0000
  C   C175      1.0  0.7632350533829504  0.9359658264229446  0.5514813937912504  1.0000
  C   C176      1.0  0.7908542113859824  0.934733340099163  0.542585095976461  1.0000
  C   C177      1.0  0.8094084926190854  0.945255825941328  0.568229967238285  1.0000
  C   C178      1.0  0.8004335338332088  0.9566130996269071  0.6032727441761835  1.0000
  C   C179      1.0  0.7728525057808592  0.9578186142624386  0.6124520164288623  1.0000
  C   C180      1.0  0.7542360733979535  0.9476517249973192  0.5863539855162112  1.0000
  H   H117      1.0  0.7980635766223149  0.9253007312912178  0.5164205644998948  1.0000
  H   H118      1.0  0.8307536304944114  0.9442005412076919  0.5613084919188405  1.0000
  H   H119      1.0  0.7658579976952916  0.9668802555253186  0.6393919671580495  1.0000
  H   H120      1.0  0.7328565065177308  0.9489356516534643  0.593072411963642  1.0000
  C   C181      1.0  0.6967458143192585  0.9345891976526659  0.29637651442145435  1.0000
  C   C182      1.0  0.672442378131034  0.9399052273259609  0.27733147840559375  1.0000
  C   C183      1.0  0.6645065156510646  0.925517094579783  0.24509095272745007  1.0000
  C   C184      1.0  0.6809774668947034  0.9058972536044275  0.2315785527215727  1.0000
  C   C185      1.0  0.7055169064250172  0.9007869640866116  0.25025826501623355  1.0000
  C   C186      1.0  0.7134083509541495  0.9151315046052859  0.28267183640405935  1.0000
  H   H121      1.0  0.6595187721677722  0.9549759803064707  0.28784600228284907  1.0000
  H   H122      1.0  0.6453806894333343  0.929352619261398  0.2311932964317699  1.0000
  H   H123      1.0  0.7184267856813525  0.8857686244345233  0.2395761383253707  1.0000
  H   H124      1.0  0.7324386048652235  0.911252938177963  0.2968421318684787  1.0000
  C   C187      1.0  0.8535812004902743  0.9733189645635631  0.4351816392712962  1.0000
  C   C188      1.0  0.852437072334264  0.954859483617976  0.46533645901118453  1.0000
  C   C189      1.0  0.8714388069803829  0.9545165816651442  0.49575861985357966  1.0000
  C   C190      1.0  0.8913346336790928  0.9728935372884217  0.49635085714803034  1.0000
  C   C191      1.0  0.8919772106894774  0.9917882209163777  0.4669301593386526  1.0000
  C   C192      1.0  0.8733178843056232  0.9918479814757478  0.4361523559301584  1.0000
  H   H125      1.0  0.837144034473816  0.9407600376463636  0.46532663026755605  1.0000
  H   H126      1.0  0.8710182173327522  0.9398125378978837  0.5184117144343429  1.0000
  H   H127      1.0  0.9070160662753333  0.006335365451303643  0.4678190890070119  1.0000
  H   H128      1.0  0.8741506207933298  0.006327093055840338  0.41314347167680127  1.0000
  C   C193      1.0  0.6885054633312173  0.8769706493791544  0.7805685074454349  1.0000
  C   C194      1.0  0.6696169507937751  0.8965334865986679  0.7777650669877859  1.0000
  C   C195      1.0  0.6782213102363736  0.9213560974502867  0.7727825564157481  1.0000
  C   C196      1.0  0.7057406207358732  0.9267566175296267  0.7712881944458833  1.0000
  C   C197      1.0  0.7247092644149727  0.907278940761344  0.7755382089177096  1.0000
  C   C198      1.0  0.7160783735176387  0.8823146530729323  0.7797540113645526  1.0000
  H   H129      1.0  0.6482871664802341  0.892474241868999  0.7785400341707436  1.0000
  H   H130      1.0  0.6635364041225092  0.9363722800077612  0.7695558026379106  1.0000
  H   H131      1.0  0.7459969656178426  0.9114037289069015  0.7752743176350398  1.0000
  H   H132      1.0  0.7307272643787976  0.8673066833268378  0.7830172023730182  1.0000
  C   C199      1.0  0.6703083930666105  0.715128496715547  0.7751593808353032  1.0000
  C   C200      1.0  0.6659613314985575  0.7301778627099195  0.8084702684212662  1.0000
  C   C201      1.0  0.6618034622624571  0.7191113261564169  0.8463222949725396  1.0000
  C   C202      1.0  0.6626068498028344  0.692962962867839  0.8508262832404518  1.0000
  C   C203      1.0  0.6665285507427162  0.6779396533132613  0.817411764191503  1.0000
  C   C204      1.0  0.6700710269319728  0.6890044843741596  0.7795455219099219  1.0000
  H   H133      1.0  0.6655944922547585  0.7503106615900466  0.8049135479521333  1.0000
  H   H134      1.0  0.6586519472315396  0.7307592657286455  0.8720930620959846  1.0000
  H   H135      1.0  0.6671195558345323  0.6577037818115694  0.8209046913991521  1.0000
  H   H136      1.0  0.673321518966303  0.6772979824112058  0.7538630888174153  1.0000
  C   C205      1.0  0.7806319528869535  0.7409774469333046  0.5610551651587937  1.0000
  C   C206      1.0  0.7633686021198879  0.7574388067448677  0.5405769516785477  1.0000
  C   C207      1.0  0.7538940588889573  0.7793797229049808  0.558786198209618  1.0000
  C   C208      1.0  0.7609570164086836  0.7845128565702056  0.5979559590884724  1.0000
  C   C209      1.0  0.7782796805933542  0.7681042598066011  0.6183633246261079  1.0000
  C   C210      1.0  0.7882155569985939  0.746420079180936  0.5998702278462614  1.0000
  H   H137      1.0  0.7572364212247191  0.7533457397029878  0.5106559756236186  1.0000
  H   H138      1.0  0.7404316983261253  0.7919823836175861  0.5428944796937626  1.0000
  H   H139      1.0  0.7842932093108831  0.7722864248376033  0.6483069821278494  1.0000
  H   H140      1.0  0.8015341226438787  0.7337939968374158  0.6158948952525573  1.0000
  C   C211      1.0  0.690380007595655  0.6295451831093877  0.29376732440960884  1.0000
  C   C212      1.0  0.688823717708572  0.6535323076256712  0.31004371820925564  1.0000
  C   C213      1.0  0.6970876070930562  0.6573661869659766  0.3491851288950666  1.0000
  C   C214      1.0  0.7062613284491805  0.6371012554060215  0.37243743694635134  1.0000
  C   C215      1.0  0.7066171495864623  0.6129238625415568  0.35675609220274507  1.0000
  C   C216      1.0  0.6992217425426782  0.6092129190679407  0.31715744527486806  1.0000
  H   H141      1.0  0.6817453886431871  0.6692530181981317  0.2921296445444558  1.0000
  H   H142      1.0  0.6961491025923394  0.675970268824576  0.361462860231523  1.0000
  H   H143      1.0  0.7134103794146648  0.597168072987395  0.37485237555767786  1.0000
  H   H144      1.0  0.6999863790525491  0.5905760534108804  0.30494173844872763  1.0000
  C   C217      1.0  0.7385142002831462  0.7950038146233717  0.40511005851843596  1.0000
  C   C218      1.0  0.7387862281246862  0.8173662321263961  0.42623876281864453  1.0000
  C   C219      1.0  0.757269329476352  0.836153360188059  0.415566238182343  1.0000
  C   C220      1.0  0.7751975934519293  0.8326656157578467  0.3834377530927388  1.0000
  C   C221      1.0  0.7753845555403951  0.8100212865508867  0.3630212320035862  1.0000
  C   C222      1.0  0.7571480151461003  0.7911106867473615  0.37403302853180664  1.0000
  H   H145      1.0  0.7248161914137605  0.8200927418023074  0.4509707611001844  1.0000
  H   H146      1.0  0.7575971467116283  0.8533159070870965  0.43219247535258865  1.0000
  H   H147      1.0  0.7890132155124825  0.807384802297115  0.33787075698448416  1.0000
  H   H148      1.0  0.7570016124021044  0.7737579047202506  0.3577428734863091  1.0000
  C   C223      1.0  0.814435061055275  0.6928419328397144  0.7647555401679427  1.0000
  C   C224      1.0  0.8329665145719456  0.7085785935300767  0.7825941167641961  1.0000
  C   C225      1.0  0.8249490536793569  0.7324201446460815  0.795375551206354  1.0000
  C   C226      1.0  0.7984344433117672  0.7406654600985515  0.7899697729446888  1.0000
  C   C227      1.0  0.7795744788918693  0.724461158050829  0.7739559211635663  1.0000
  C   C228      1.0  0.7875875915231003  0.7005911696034053  0.7611716417351307  1.0000
  H   H149      1.0  0.8535998340386747  0.7025604929104983  0.7862353902748712  1.0000
  H   H150      1.0  0.8394852365775147  0.7445787956347577  0.8086128280602071  1.0000
  H   H151      1.0  0.7587389660558955  0.7301794271826156  0.7716474568861279  1.0000
  H   H152      1.0  0.7731098540683801  0.6882938738803356  0.7480081548102114  1.0000
  C   C229      1.0  0.8996674176139663  0.6090868308661165  0.9401268109779083  1.0000
  C   C230      1.0  0.8835667439072233  0.6135091852164549  0.9069123838076755  1.0000
  C   C231      1.0  0.8945612918287763  0.6108789093762358  0.8683905176039909  1.0000
  C   C232      1.0  0.9217677406577807  0.6044008649777323  0.8631741255058002  1.0000
  C   C233      1.0  0.9377541681125754  0.599907192299068  0.8963533643098551  1.0000
  C   C234      1.0  0.9266254434300452  0.6018031316228779  0.9348033789677056  1.0000
  H   H153      1.0  0.862629619937273  0.6189443604391491  0.9109110752501375  1.0000
  H   H154      1.0  0.8819572841325102  0.6138293902322377  0.8427400804889538  1.0000
  H   H155      1.0  0.95896795365863  0.5958237495359313  0.8922439404022974  1.0000
  H   H156      1.0  0.9391650165349382  0.5983246777000221  0.9602673680287276  1.0000
  C   C235      1.0  0.9542862848594714  0.7412750106663455  0.778625208981242  1.0000
  C   C236      1.0  0.9598109970755273  0.7331827420450443  0.7398621510137684  1.0000
  C   C237      1.0  0.9780282874551723  0.7464015173288009  0.7151584616114923  1.0000
  C   C238      1.0  0.9905190030221257  0.7678575833183455  0.7291385023364675  1.0000
  C   C239      1.0  0.985370739163856  0.7756665997463649  0.7681678090496801  1.0000
  C   C240      1.0  0.967246661096282  0.762387487024328  0.792921995892878  1.0000
  H   H157      1.0  0.9498016392440445  0.7169633271319535  0.7285474629653165  1.0000
  H   H158      1.0  0.9818613369134599  0.7403544705938926  0.6849509799055774  1.0000
  H   H159      1.0  0.9954148876553967  0.7919815388361172  0.7793124423772394  1.0000
  H   H160      1.0  0.9631403628489229  0.768640682031707  0.8229318869952886  1.0000
  C   C241      1.0  0.005109744755234624  0.8473060373855135  0.41397848740555926  1.0000
  C   C242      1.0  0.9846086749843237  0.8484505666646925  0.38587520514159984  1.0000
  C   C243      1.0  0.9749427236246904  0.8717809181653718  0.37212960329503114  1.0000
  C   C244      1.0  0.9851092396578776  0.8939048843670313  0.38758922006624663  1.0000
  C   C245      1.0  0.005902356138322462  0.892729603152146  0.4151829801856109  1.0000
  C   C246      1.0  0.016161553356972558  0.8694254043548721  0.4279705044501841  1.0000
  H   H161      1.0  0.9761433494007972  0.8313897015776549  0.37475716369584894  1.0000
  H   H162      1.0  0.9592273699443752  0.8726191469886364  0.3502816466724377  1.0000
  H   H163      1.0  0.014047953377279931  0.9097722789533743  0.42692160011232916  1.0000
  H   H164      1.0  0.032028570307495174  0.8685783483873539  0.44968127866195184  1.0000
  C   C247      1.0  0.9277527981024453  0.7364740491363119  0.5672202761113657  1.0000
  C   C248      1.0  0.92443197589424  0.7357510707094315  0.6086798633783469  1.0000
  C   C249      1.0  0.9278380302830931  0.7131047377627782  0.6298976537653801  1.0000
  C   C250      1.0  0.9339113454849725  0.690987768341883  0.609689391285722  1.0000
  C   C251      1.0  0.9377299997813879  0.6918186354238428  0.5682129807327279  1.0000
  C   C252      1.0  0.9348262173241928  0.7145995853194422  0.5469664536233887  1.0000
  H   H165      1.0  0.9194632831083044  0.7527460221887647  0.6245146924631633  1.0000
  H   H166      1.0  0.9260197507708812  0.7128836095329711  0.6618984339160862  1.0000
  H   H167      1.0  0.9427103202055452  0.6747883700270125  0.5524703704415509  1.0000
  H   H168      1.0  0.9376546630699067  0.7151195159390262  0.5149159184465298  1.0000
  C   C253      1.0  0.9957406767139468  0.7141900321392936  0.33189489108139325  1.0000
  C   C254      1.0  0.02145933581434578  0.7060148804197953  0.3197253547049603  1.0000
  C   C255      1.0  0.032746889152277525  0.7148015021808767  0.28348714046075046  1.0000
  C   C256      1.0  0.018102788349977583  0.7314296970802183  0.2592411147569243  1.0000
  C   C257      1.0  0.9920135628026499  0.7387836327325837  0.2708066234543333  1.0000
  C   C258      1.0  0.9808318498129314  0.7301349730991316  0.30702066781207354  1.0000
  H   H169      1.0  0.03303576887092552  0.6936573809904031  0.33897297669078735  1.0000
  H   H170      1.0  0.05301664836567066  0.7092874694135538  0.2749733417446245  1.0000
  H   H171      1.0  0.9805441158629433  0.7514762882303191  0.25194173037486994  1.0000
  H   H172      1.0  0.9606150679564871  0.7358592749676927  0.31571861659556133  1.0000
  C   C259      1.0  0.8716739456951054  0.7743849508544823  0.35026222601845725  1.0000
  C   C260      1.0  0.8435599181509703  0.7765354800211498  0.3507032352894796  1.0000
  C   C261      1.0  0.8276892460792658  0.7549911757363397  0.3480108332576394  1.0000
  C   C262      1.0  0.8399877846486207  0.7314555798994907  0.343240391584741  1.0000
  C   C263      1.0  0.8680790583846997  0.7295725940072441  0.34008673720948257  1.0000
  C   C264      1.0  0.8839203158357866  0.7509877865272877  0.3440796778000431  1.0000
  H   H173      1.0  0.834098573544156  0.794683802114205  0.354680210706653  1.0000
  H   H174      1.0  0.8059548431242121  0.7565594830699011  0.3496570849835041  1.0000
  H   H175      1.0  0.8776382008400629  0.711420903548482  0.3362607977847323  1.0000
  H   H176      1.0  0.9056661198772856  0.7493005933705517  0.34306509697747284  1.0000
  C   C265      1.0  0.20964252992923732  0.5083870050412665  0.820290168310241  1.0000
  C   C266      1.0  0.19557710190485783  0.5178381675017572  0.8533189885276725  1.0000
  C   C267      1.0  0.17071069562469138  0.5075203647065785  0.864975094288628  1.0000
  C   C268      1.0  0.15938111321544782  0.4884710379317085  0.842682596808496  1.0000
  C   C269      1.0  0.17289769388408172  0.479760127363655  0.8086595316527896  1.0000
  C   C270      1.0  0.19830076796267893  0.48934076107605384  0.7979548537983568  1.0000
  H   H177      1.0  0.20435539673140304  0.5324348232906451  0.8708021607105252  1.0000
  H   H178      1.0  0.16038368153243027  0.5142041945031112  0.8914498901883446  1.0000
  H   H179      1.0  0.16426273357185273  0.46492517718745147  0.791526539018744  1.0000
  H   H180      1.0  0.20908222347497385  0.48194322595134487  0.7724368546475994  1.0000
  C   C271      1.0  0.28760730331600465  0.43583951740540816  0.5695307261071093  1.0000
  C   C272      1.0  0.27696167676745115  0.4328221058166675  0.6081132940728072  1.0000
  C   C273      1.0  0.29002918985886805  0.44334923149070476  0.6403357583067912  1.0000
  C   C274      1.0  0.31313108940323614  0.4578292582858179  0.6339601144904736  1.0000
  C   C275      1.0  0.32388609278648417  0.46076747844980337  0.5953110427394543  1.0000
  C   C276      1.0  0.3113406362541024  0.4494540850002986  0.5631272540516689  1.0000
  H   H181      1.0  0.2588633668794036  0.42196001986724163  0.6132802535651015  1.0000
  H   H182      1.0  0.28221372347193885  0.440038601496735  0.6700909103903132  1.0000
  H   H183      1.0  0.3419804821407191  0.4716595227176357  0.5902777611884605  1.0000
  H   H184      1.0  0.3198568997301823  0.4515965735162783  0.533377779166547  1.0000
  C   C277      1.0  0.2947112330137677  0.460916707198091  0.3267724225167875  1.0000
  C   C278      1.0  0.3140688166181124  0.47457527940022665  0.34669638324970564  1.0000
  C   C279      1.0  0.31362841141665926  0.5008643615375356  0.34479080728364014  1.0000
  C   C280      1.0  0.2942483372188729  0.5135385933421636  0.32211112916926726  1.0000
  C   C281      1.0  0.27569557095250036  0.49988472102414605  0.30051351627871076  1.0000
  C   C282      1.0  0.27591626066884534  0.473553827396325  0.30289909565061773  1.0000
  H   H185      1.0  0.3293502609834116  0.4649010330314444  0.3637547495346731  1.0000
  H   H186      1.0  0.3281957236595593  0.511382459032302  0.36118938338992373  1.0000
  H   H187      1.0  0.2604570400477341  0.509580812417999  0.28333445920110945  1.0000
  H   H188      1.0  0.2609983608741956  0.46301426822350966  0.28723832815509226  1.0000
  C   C283      1.0  0.2695473712579911  0.18023645826049658  0.803454602040437  1.0000
  C   C284      1.0  0.264879805705655  0.20292931129532274  0.8227946370035741  1.0000
  C   C285      1.0  0.25694453075369983  0.20293143584565707  0.8630454032853611  1.0000
  C   C286      1.0  0.2534597143603316  0.18024523520075325  0.884128764317708  1.0000
  C   C287      1.0  0.2579499972513066  0.1574967628548003  0.8647717567748987  1.0000
  C   C288      1.0  0.2659553353362993  0.15749886662470908  0.8244020038884943  1.0000
  H   H189      1.0  0.26761696165001286  0.22055114202263718  0.8068711168574543  1.0000
  H   H190      1.0  0.25384105576997973  0.22060637769670838  0.8778160922671748  1.0000
  H   H191      1.0  0.2553520591845997  0.13993040323938466  0.880807674175089  1.0000
  H   H192      1.0  0.26953412651593905  0.13991373013279895  0.8094620074718123  1.0000
  C   C289      1.0  0.2683970189875759  0.32654467398104225  0.7961165843172494  1.0000
  C   C290      1.0  0.2739384059449747  0.34877635096712706  0.8158378683936393  1.0000
  C   C291      1.0  0.26344404875819766  0.3716856981631204  0.8016546329435421  1.0000
  C   C292      1.0  0.24671001261059491  0.3722088032898224  0.7685447230630921  1.0000
  C   C293      1.0  0.24059016264283595  0.3499061771017168  0.7494595999391965  1.0000
  C   C294      1.0  0.25185520716632126  0.3271071865029405  0.7627998230715867  1.0000
  H   H193      1.0  0.28682330918644716  0.3483615162244497  0.8415124917992531  1.0000
  H   H194      1.0  0.26818110564965003  0.3888977519556184  0.8165207928897814  1.0000
  H   H195      1.0  0.22765223336366558  0.3503109580661208  0.7238444373461048  1.0000
  H   H196      1.0  0.2475473130103983  0.30992800591087094  0.7475107349131241  1.0000
  C   C295      1.0  0.30779672131586433  0.31256308261350535  0.43186236561444963  1.0000
  C   C296      1.0  0.2941504799343301  0.3233524254678253  0.39967359110105716  1.0000
  C   C297      1.0  0.27397233590583464  0.30990691069220455  0.3809110091779746  1.0000
  C   C298      1.0  0.26730733171199383  0.28568814206342646  0.3943579139139622  1.0000
  C   C299      1.0  0.2805419057541896  0.2751321870575415  0.4272069381164424  1.0000
  C   C300      1.0  0.30093496494362226  0.2884895045231069  0.4457780233548516  1.0000
  H   H197      1.0  0.29953962532975525  0.34183438744973516  0.3885477306622622  1.0000
  H   H198      1.0  0.2637348530441199  0.3181763390166299  0.3556254298235922  1.0000
  H   H199      1.0  0.2749529359193727  0.2567996336701364  0.43841966288527495  1.0000
  H   H200      1.0  0.31125178546245735  0.28025426117199803  0.4709817667181077  1.0000
  C   C301      1.0  0.2348097337664106  0.20696248697122857  0.545543181090395  1.0000
  C   C302      1.0  0.24026008278157404  0.20425929710761814  0.5861531028095788  1.0000
  C   C303      1.0  0.24703855404009367  0.2252244085995007  0.6083797617408869  1.0000
  C   C304      1.0  0.24807755648656693  0.24899211159792178  0.5901279566931079  1.0000
  C   C305      1.0  0.24195843792162372  0.251852137034157  0.5497113422865203  1.0000
  C   C306      1.0  0.2355931814378126  0.2307920466562225  0.5273038766593852  1.0000
  H   H201      1.0  0.23971519811571762  0.1858461784303263  0.6002984087966481  1.0000
  H   H202      1.0  0.251390485249023  0.22293815099880623  0.6396949285455633  1.0000
  H   H203      1.0  0.2426884132091574  0.2702070788647199  0.5354669161672121  1.0000
  H   H204      1.0  0.23146458754285487  0.23296133587339923  0.49589087819180605  1.0000
  C   C307      1.0  0.1358973894190108  0.24300306752963485  0.2703614781024856  1.0000
  C   C308      1.0  0.14593499107529198  0.24528547490150493  0.30878642319911426  1.0000
  C   C309      1.0  0.155582907323692  0.22405712081108206  0.32951023458700957  1.0000
  C   C310      1.0  0.15465549153160962  0.2004025128426718  0.3122302394811821  1.0000
  C   C311      1.0  0.14386718379080343  0.19799718480387363  0.27429861179066417  1.0000
  C   C312      1.0  0.1342646809262678  0.21924174672148386  0.2535396190938706  1.0000
  H   H205      1.0  0.14692366527458653  0.2635777875119456  0.32218070913647656  1.0000
  H   H206      1.0  0.16347059183780577  0.22602210469339026  0.359042710764998  1.0000
  H   H207      1.0  0.14329277463465634  0.17973773658158737  0.2607887598724551  1.0000
  H   H208      1.0  0.1255310096291373  0.21721322733421894  0.22458307277226167  1.0000
  C   C313      1.0  0.5562560048828137  0.15967188497412113  0.8905095861962069  1.0000
  C   C314      1.0  0.5740631499489592  0.15501619705491046  0.9217182913807834  1.0000
  C   C315      1.0  0.5851764096735462  0.17514752296138622  0.942045490486593  1.0000
  C   C316      1.0  0.578292137425927  0.19988949837429737  0.9313651720853883  1.0000
  C   C317      1.0  0.5609986545213187  0.20442592734705947  0.8995604766923339  1.0000
  C   C318      1.0  0.5501216457500454  0.18437851343760908  0.879044479345595  1.0000
  H   H209      1.0  0.5790832165954565  0.13591394269566462  0.9304377365305494  1.0000
  H   H210      1.0  0.5990888936635171  0.17149857174453725  0.9659066262870445  1.0000
  H   H211      1.0  0.555371695015541  0.2233799168344941  0.8913645256593556  1.0000
  H   H212      1.0  0.5365028521830429  0.18814281680848638  0.8549194914358821  1.0000
  C   C319      1.0  0.41046358806719074  0.18243458638429091  0.7443401137693175  1.0000
  C   C320      1.0  0.42680161400570826  0.20372264271917495  0.7443637894791322  1.0000
  C   C321      1.0  0.4173949821300887  0.22664015336329027  0.7285942806538169  1.0000
  C   C322      1.0  0.39135618993462123  0.22835789128440398  0.713559538895431  1.0000
  C   C323      1.0  0.37503486351362036  0.2070807935524036  0.7135668897082633  1.0000
  C   C324      1.0  0.38470860010230185  0.18407134307426354  0.7284086394981351  1.0000
  H   H213      1.0  0.44648351273142756  0.20269040774825572  0.7573132480908784  1.0000
  H   H214      1.0  0.42996420551183195  0.24312106356883553  0.7292225399720265  1.0000
  H   H215      1.0  0.35500049864212435  0.2081819304500826  0.7017662171133165  1.0000
  H   H216      1.0  0.3722358720955352  0.16756784632082014  0.7273484902530207  1.0000
  C   C325      1.0  0.368545607967653  0.16191967413056688  0.43968119899154584  1.0000
  C   C326      1.0  0.37206373006220755  0.1705773788485063  0.40041810477458384  1.0000
  C   C327      1.0  0.351054024830748  0.16895784487764406  0.3733069630785318  1.0000
  C   C328      1.0  0.3260411020580202  0.1595411443543784  0.3857952842664263  1.0000
  C   C329      1.0  0.322178020459866  0.15138857964777394  0.4253227615946826  1.0000
  C   C330      1.0  0.34359275645008597  0.15213680989674774  0.45203036510831246  1.0000
  H   H217      1.0  0.390893733413547  0.17849653193395107  0.39066461400700786  1.0000
  H   H218      1.0  0.35398881293866885  0.1754762485887677  0.34281638050667684  1.0000
  H   H219      1.0  0.3028192780816944  0.14402687453215324  0.434999750385411  1.0000
  H   H220      1.0  0.3407918817784351  0.14513926188975007  0.4822650182062735  1.0000
  C   C331      1.0  0.531410826021285  0.16478271115472712  0.558851789951698  1.0000
  C   C332      1.0  0.5085455646998419  0.15487694068549765  0.5782555905274684  1.0000
  C   C333      1.0  0.5111557687568623  0.14232925137423652  0.6153212413195992  1.0000
  C   C334      1.0  0.5366766828380335  0.13918392641724217  0.6321795353088596  1.0000
  C   C335      1.0  0.5594168184243637  0.14878251314555538  0.6123485811558501  1.0000
  C   C336      1.0  0.5567293226649774  0.16183253900333605  0.5761117256119498  1.0000
  H   H221      1.0  0.4889325649164399  0.15715176627274788  0.5650209344062507  1.0000
  H   H222      1.0  0.49352104470164443  0.13485334486178976  0.6306493763303126  1.0000
  H   H223      1.0  0.5791164620295999  0.14644288941165173  0.6252698586212478  1.0000
  H   H224      1.0  0.5744053119527138  0.16954646788469535  0.5612051012218358  1.0000
  C   C337      1.0  0.4719551765698586  0.13943061255856629  0.2999957463418675  1.0000
  C   C338      1.0  0.4800468915845064  0.12204944909003734  0.27133942686198526  1.0000
  C   C339      1.0  0.46137934768562894  0.11284970655228731  0.24455102528535752  1.0000
  C   C340      1.0  0.43446412076740193  0.12079644605263457  0.24651241829254977  1.0000
  C   C341      1.0  0.4266343296460238  0.13915727534534353  0.27387340970099067  1.0000
  C   C342      1.0  0.4454562667772838  0.14862980685578833  0.3003743518706267  1.0000
  H   H225      1.0  0.5006593505446882  0.11518330445573684  0.27041388115062953  1.0000
  H   H226      1.0  0.467776323262091  0.0990786663984189  0.22315531014016038  1.0000
  H   H227      1.0  0.4059505805056868  0.1458038705041975  0.27492069483070153  1.0000
  H   H228      1.0  0.43931228457828797  0.16271374771220626  0.32143276925200115  1.0000
  C   C343      1.0  0.36768410891365455  0.438880458344021  0.8565453762562427  1.0000
  C   C344      1.0  0.3869527777139454  0.4327804097216227  0.885138671129353  1.0000
  C   C345      1.0  0.41444946393502835  0.4329773385807348  0.8748316488445453  1.0000
  C   C346      1.0  0.4227491990334995  0.4393049501927027  0.8359301473857487  1.0000
  C   C347      1.0  0.40356799775531954  0.4462555834437312  0.807633496241806  1.0000
  C   C348      1.0  0.37600398202309293  0.4458501333948956  0.8178534703903119  1.0000
  H   H229      1.0  0.38059706544692967  0.427586768974538  0.9151591764342023  1.0000
  H   H230      1.0  0.4291804740242421  0.4283623521980961  0.8971663018442092  1.0000
  H   H231      1.0  0.409887980056328  0.45122799638518696  0.7775257066073209  1.0000
  H   H232      1.0  0.3612118800954071  0.450594278335074  0.7956284559002811  1.0000
  C   C349      1.0  0.48556413637556645  0.4149760734314224  0.0079587199935518  1.0000
  C   C350      1.0  0.46111614382256416  0.42354059179527664  0.9924684460663322  1.0000
  C   C351      1.0  0.45095834568967014  0.4472517362009063  0.002739389456148267  1.0000
  C   C352      1.0  0.46575683762971015  0.4629094889656949  0.027174363920553724  1.0000
  C   C353      1.0  0.4899397814867051  0.45412449216260387  0.043347804038168736  1.0000
  C   C354      1.0  0.49967487327932697  0.43003406669597777  0.034119954060019664  1.0000
  H   H233      1.0  0.44989370147882063  0.41179940085646555  0.9728505634811763  1.0000
  H   H234      1.0  0.4318934326669655  0.4536522794698826  0.99094288923907  1.0000
  H   H235      1.0  0.5012741047422502  0.46592337440658027  0.06265062716339176  1.0000
  H   H236      1.0  0.5185312603472868  0.4234063108317416  0.04633383925536605  1.0000
  C   C355      1.0  0.46665155828292365  0.2916267254698782  0.8214505066832627  1.0000
  C   C356      1.0  0.4889208550188154  0.30022528183464936  0.7991844476876369  1.0000
  C   C357      1.0  0.5044022310062624  0.2834892868052634  0.7762835062970868  1.0000
  C   C358      1.0  0.49811780941637035  0.2579499457499183  0.7764051968931204  1.0000
  C   C359      1.0  0.4755661352333191  0.24943457572194966  0.7980826076498887  1.0000
  C   C360      1.0  0.4597197379642103  0.26626317732857546  0.820316746738081  1.0000
  H   H237      1.0  0.494246326273261  0.3197617415759591  0.7994018459410996  1.0000
  H   H238      1.0  0.5214690142953602  0.2903304821539743  0.7588865305693822  1.0000
  H   H239      1.0  0.4702662271712665  0.22992179508969432  0.7978664384586935  1.0000
  H   H240      1.0  0.4424357429685665  0.2594913569013334  0.8372848739161803  1.0000
  C   C361      1.0  0.5196051755626022  0.29328994807986963  0.5103837383956987  1.0000
  C   C362      1.0  0.5086387589238488  0.3096951414591227  0.4818502624261604  1.0000
  C   C363      1.0  0.4946033986203828  0.30023064827227963  0.4495709969426273  1.0000
  C   C364      1.0  0.4911635723067874  0.27435841347736695  0.4463018325054949  1.0000
  C   C365      1.0  0.5034813349380935  0.25799630402732243  0.47362987489988595  1.0000
  C   C366      1.0  0.5178296506709408  0.2674443274720928  0.5054095403731145  1.0000
  H   H241      1.0  0.5114887907126138  0.32955121556687766  0.48403309818546203  1.0000
  H   H242      1.0  0.48610662428739015  0.3128602538859602  0.4274596236556716  1.0000
  H   H243      1.0  0.5020076382448764  0.23799265540956924  0.4705683904318687  1.0000
  H   H244      1.0  0.5274316171107057  0.2546653019077772  0.52620806070109  1.0000
  C   C367      1.0  0.5810455343164928  0.3879206323726066  0.7020797440872337  1.0000
  C   C368      1.0  0.6009138084783396  0.3920645665016215  0.7302222885366058  1.0000
  C   C369      1.0  0.5970223875405227  0.3841497930416071  0.7699473432675684  1.0000
  C   C370      1.0  0.5729814054271472  0.37253428909770414  0.7818994869251555  1.0000
  C   C371      1.0  0.5532206001124663  0.3680289989277497  0.7537792424024753  1.0000
  C   C372      1.0  0.5573143420626803  0.3756341516802821  0.7138604605481871  1.0000
  H   H245      1.0  0.6193463703066246  0.40148673908385757  0.7212792657425496  1.0000
  H   H246      1.0  0.6124271043811852  0.3875466100520384  0.7915654609422527  1.0000
  H   H247      1.0  0.5349523111725353  0.35839283372818753  0.7626340769252208  1.0000
  H   H248      1.0  0.5419660456297113  0.3722507239000442  0.6924791650172331  1.0000
  C   C373      1.0  0.560736798778666  0.39272613648926424  0.4259902906103938  1.0000
  C   C374      1.0  0.5442493884130197  0.37167060910272565  0.4234986541075826  1.0000
  C   C375      1.0  0.5493737009836736  0.35380044041539027  0.3940570717444427  1.0000
  C   C376      1.0  0.571306939410343  0.35671324429505974  0.3676314938825603  1.0000
  C   C377      1.0  0.5877170760395418  0.3778238383648699  0.3700333784892977  1.0000
  C   C378      1.0  0.5823786257563927  0.39584491425618323  0.3990992253282996  1.0000
  H   H249      1.0  0.5272813741820406  0.36938371145692117  0.4437943876416255  1.0000
  H   H250      1.0  0.5363692328393829  0.33770510651552876  0.391795939575386  1.0000
  H   H251      1.0  0.6049427793206541  0.3800147824908641  0.35012371237969575  1.0000
  H   H252      1.0  0.5954410695266987  0.4118944847590745  0.40137806709952173  1.0000
  C   C379      1.0  0.4407248032824348  0.41518190830767693  0.563957794868696  1.0000
  C   C380      1.0  0.4556965905395263  0.42191040772364824  0.5297703885864382  1.0000
  C   C381      1.0  0.44253823715295487  0.429634164406965  0.4950599896443005  1.0000
  C   C382      1.0  0.4143831688316855  0.4304256346810138  0.49434179990619775  1.0000
  C   C383      1.0  0.3993869094894806  0.42461942804761293  0.5289595909401805  1.0000
  C   C384      1.0  0.41257417200759666  0.41707965498215344  0.5638770924410771  1.0000
  H   H253      1.0  0.4774620274838259  0.4210620677956204  0.5299001070584929  1.0000
  H   H254      1.0  0.45419540922980545  0.43442235483924546  0.4684755681056824  1.0000
  H   H255      1.0  0.3776702590005238  0.42612356644988064  0.52898620456627  1.0000
  H   H256      1.0  0.40094633230557863  0.4121543585940176  0.5904261833934248  1.0000
  N   N1        1.0  0.5123267341673359  0.13825322030024112  0.014202274151098981  1.0000
  C   C385      1.0  0.5368309383828842  0.12224740524415623  0.01545725699038325  1.0000
  C   C386      1.0  0.5166606337636448  0.15933636796632178  0.9856537107611345  1.0000
  C   C387      1.0  0.506587886515215  0.14819167417533952  0.054301513633570275  1.0000
  C   C388      1.0  0.4892108777786001  0.12318506572760768  0.0014936942547421062  1.0000
  H   H257      1.0  0.5342106530103997  0.10614152949133882  0.03678623818483384  1.0000
  H   H258      1.0  0.5546231219475348  0.1329564093353659  0.025360639691102804  1.0000
  H   H259      1.0  0.5419245783875462  0.11456703499499166  0.9855903134220578  1.0000
  H   H260      1.0  0.4988754294065624  0.17219505836559934  0.9847542101643026  1.0000
  H   H261      1.0  0.5344988083586878  0.17066293123001253  0.9935828984306936  1.0000
  H   H262      1.0  0.5201503731188133  0.15244089373272285  0.9548630965073654  1.0000
  H   H263      1.0  0.488557183244792  0.16076367912714473  0.0545115158437941  1.0000
  H   H264      1.0  0.5239403808637266  0.15900753102014087  0.06550126173037785  1.0000
  H   H265      1.0  0.5025123972956064  0.13267365857705005  0.07609455884901961  1.0000
  H   H266      1.0  0.4702690732605712  0.1345731825453187  0.0005922286010353606  1.0000
  H   H267      1.0  0.4853660391949688  0.10706645495099498  0.02234044477818431  1.0000
  H   H268      1.0  0.4927496420401726  0.11543291075923356  0.9712309389524584  1.0000
  N   N2        1.0  0.9636409592990809  0.6534749095100475  0.26590201287858845  1.0000
  C   C389      1.0  0.967193290511648  0.6777658621818213  0.24455888808491136  1.0000
  C   C390      1.0  0.9375575801687461  0.6425531329490504  0.25499225906802114  1.0000
  C   C391      1.0  0.9640123414747851  0.6573997591802412  0.3093829331880251  1.0000
  C   C392      1.0  0.9858550211009119  0.6361717040271211  0.25458742588372807  1.0000
  H   H269      1.0  0.9875337455714699  0.6856408618640262  0.2494606416390516  1.0000
  H   H270      1.0  0.9520608292474969  0.6919856466139681  0.25455942689810573  1.0000
  H   H271      1.0  0.9648919808333788  0.6757193358458602  0.21185336437723634  1.0000
  H   H272      1.0  0.9367417026686807  0.639280049359488  0.22229778652490037  1.0000
  H   H273      1.0  0.9341584129741464  0.6241408896090794  0.27033633503434035  1.0000
  H   H274      1.0  0.9204189171223682  0.6552562617789688  0.2629573620197786  1.0000
  H   H275      1.0  0.9599539792744669  0.6397261223740139  0.32648418767261345  1.0000
  H   H276      1.0  0.9487075385772424  0.6716174954998961  0.31894870752144117  1.0000
  H   H277      1.0  0.9839752551279716  0.6642425099858273  0.318848480553955  1.0000
  H   H278      1.0  0.9838693295698737  0.6176487680029944  0.2701178296654588  1.0000
  H   H279      1.0  0.005859147063599801  0.6440288775492536  0.26190989616791827  1.0000
  H   H280      1.0  0.9861711832469595  0.6327015371086898  0.22203663617730487  1.0000
  N   N3        1.0  0.1549736335990155  0.6195083911363958  0.1956813255170601  1.0000
  C   C393      1.0  0.1817839396132772  0.6184965987190821  0.21407458133344678  1.0000
  C   C394      1.0  0.14052138632901467  0.6423732540003686  0.20860302433766284  1.0000
  C   C395      1.0  0.1392536467056149  0.5972220352221881  0.20821594992383796  1.0000
  C   C396      1.0  0.15835281363242126  0.6201125768402644  0.1518294985023741  1.0000
  H   H281      1.0  0.1941465004583114  0.634966045492961  0.2047207335541511  1.0000
  H   H282      1.0  0.19325881057576044  0.6014460277422919  0.20521829386144452  1.0000
  H   H283      1.0  0.18017690360060934  0.6183785583997818  0.24719603618538824  1.0000
  H   H284      1.0  0.1204760145795134  0.6442154961552379  0.194430132531319  1.0000
  H   H285      1.0  0.1373152972877829  0.6425423551130923  0.2415370241144284  1.0000
  H   H286      1.0  0.1522057427523591  0.6594520692456222  0.2005980329148642  1.0000
  H   H287      1.0  0.11870913157799445  0.5978239417307325  0.19542075352325036  1.0000
  H   H288      1.0  0.13693479453206114  0.5960081222980556  0.241244809696258  1.0000
  H   H289      1.0  0.14932868314329295  0.5795783231830864  0.19844535920863482  1.0000
  H   H290      1.0  0.16942577656521562  0.6031287671366212  0.14117970711492284  1.0000
  H   H291      1.0  0.1699558187684922  0.6369066852835095  0.14156740048532848  1.0000
  H   H292      1.0  0.1385180995077977  0.6211150707947444  0.13690482461559947  1.0000
  N   N4        1.0  0.8882621250715471  0.8918848153101471  0.38479928450785467  1.0000
  C   C397      1.0  0.8928179816326465  0.8645168875460641  0.3814361806831721  1.0000
  C   C398      1.0  0.8590523495007659  0.8970282285814243  0.38950593964823627  1.0000
  C   C399      1.0  0.8985642955146264  0.9047943546017361  0.34836008678833336  1.0000
  C   C400      1.0  0.9025659484603122  0.9012445549311229  0.4197804350027856  1.0000
  H   H293      1.0  0.9146252035847023  0.8597884440809447  0.3779116597091244  1.0000
  H   H294      1.0  0.8823610679136945  0.856799460814765  0.35526155947852844  1.0000
  H   H295      1.0  0.8851429678676896  0.8540813257501658  0.4082309457599513  1.0000
  H   H296      1.0  0.8547909113735519  0.9175256454099668  0.39208055469100583  1.0000
  H   H297      1.0  0.8476036165646272  0.8901331629439782  0.3636558005829088  1.0000
  H   H298      1.0  0.8505650120578274  0.8874570204311999  0.4165938059376554  1.0000
  H   H299      1.0  0.8954223326045434  0.925478478043097  0.34996625727276076  1.0000
  H   H300      1.0  0.8883064867678651  0.8981266713932046  0.32133954829548683  1.0000
  H   H301      1.0  0.9205956253616437  0.9014306999260379  0.34398061413202335  1.0000
  H   H302      1.0  0.8951580349884999  0.8921578615614969  0.4479386935435575  1.0000
  H   H303      1.0  0.8998443301311547  0.9219182396149198  0.42288439042215886  1.0000
  H   H304      1.0  0.9246738706863338  0.8974905431005136  0.4172622207592457  1.0000
  N   N5        1.0  0.11047610987583822  0.12355921722470233  0.03785523117356716  1.0000
  C   C401      1.0  0.10359747075078651  0.12261923574375977  0.08089517150248637  1.0000
  C   C402      1.0  0.13832292757272957  0.1327817247746629  0.03221986979190716  1.0000
  C   C403      1.0  0.09160037885730676  0.1406686253429693  0.016965835384467276  1.0000
  C   C404      1.0  0.10837396459722282  0.09815544328414622  0.021292655336951016  1.0000
  H   H305      1.0  0.08236182126898361  0.11672036203981952  0.08631517319387984  1.0000
  H   H306      1.0  0.10590995838390271  0.14133021885543887  0.09458476999158118  1.0000
  H   H307      1.0  0.11687920889966952  0.10922959383651289  0.09726114302973471  1.0000
  H   H308      1.0  0.14050198413555992  0.1520016811038797  0.044321468194725266  1.0000
  H   H309      1.0  0.15308936472955303  0.12023549691478932  0.047527517313511236  1.0000
  H   H310      1.0  0.14436159397586246  0.13354141996994756  0.00010349900386597  1.0000
  H   H311      1.0  0.0960472449603278  0.14148554219070716  0.9843680330556825  1.0000
  H   H312      1.0  0.09290311676055207  0.16014686239423234  0.028151356822773144  1.0000
  H   H313      1.0  0.07033040726048267  0.1344884999589063  0.0213032909787656  1.0000
  H   H314      1.0  0.11444029420097479  0.09799111890067752  0.9892013912777431  1.0000
  H   H315      1.0  0.08740422187519936  0.09109032821857828  0.023606975120411988  1.0000
  H   H316      1.0  0.12159654159201994  0.08446988845143502  0.037186969281282956  1.0000
  N   N6        1.0  0.6380776267860536  0.651303170572722  0.12206743789544117  1.0000
  C   C405      1.0  0.6127745560060719  0.6379307481031569  0.13192627798975542  1.0000
  C   C406      1.0  0.6564408388542265  0.6493646713382353  0.15616602306280147  1.0000
  C   C407      1.0  0.6319748798558618  0.6780327165550194  0.11344317292373196  1.0000
  C   C408      1.0  0.6511427425457271  0.6398960174447493  0.08673473370598872  1.0000
  H   H317      1.0  0.5985140128760311  0.6389752603074359  0.10668355658908757  1.0000
  H   H318      1.0  0.6022523978513771  0.6461909382771523  0.15825108000882726  1.0000
  H   H319      1.0  0.61665006585729  0.6177377449667133  0.13880235623027537  1.0000
  H   H320      1.0  0.6757701416586961  0.6592070314345502  0.14981419041056698  1.0000
  H   H321      1.0  0.6473346622323938  0.6576586227358211  0.18355598095565928  1.0000
  H   H322      1.0  0.6615162697248124  0.6294805135194482  0.16356563273010494  1.0000
  H   H323      1.0  0.6505893747307889  0.6886509233233403  0.10537065298173265  1.0000
  H   H324      1.0  0.6222869530009594  0.6872939847165259  0.13953959937546268  1.0000
  H   H325      1.0  0.6178693986910937  0.6801579444183163  0.08820722565982764  1.0000
  H   H326      1.0  0.6699309308419172  0.6499623201082544  0.0778637051320974  1.0000
  H   H327      1.0  0.6375740903073497  0.6404815294455256  0.06064852502999174  1.0000
  H   H328      1.0  0.656812641166353  0.6199281312509123  0.09255570581040762  1.0000
  N   N7        1.0  0.6848806365370064  0.8462194085053971  0.33709787372348693  1.0000
  C   C409      1.0  0.666722512150357  0.8610968786576393  0.3111686458890491  1.0000
  C   C410      1.0  0.6798345233102496  0.8191374936495226  0.3322615824695852  1.0000
  C   C411      1.0  0.6798325144378959  0.8530007917335531  0.37911606776196655  1.0000
  C   C412      1.0  0.7132150117153689  0.851647093115188  0.32595280968572266  1.0000
  H   H329      1.0  0.6697925291942974  0.8816303218329249  0.3146669752227672  1.0000
  H   H330      1.0  0.6451531940416403  0.857235389928944  0.3182988385921741  1.0000
  H   H331      1.0  0.6702929649688946  0.8569168366449169  0.2790694711753492  1.0000
  H   H332      1.0  0.6837537627195877  0.8133018947751374  0.3009996588326761  1.0000
  H   H333      1.0  0.6931271213867854  0.8074188433842533  0.35174308000276105  1.0000
  H   H334      1.0  0.6586477617556213  0.8142601720851129  0.3403562926897725  1.0000
  H   H335      1.0  0.6586819743904703  0.8490113152070112  0.3886556292201226  1.0000
  H   H336      1.0  0.6834735745100218  0.8733244486851016  0.38387989499749153  1.0000
  H   H337      1.0  0.6932705038205905  0.8422108335462083  0.39948189728566397  1.0000
  H   H338      1.0  0.7273723666789683  0.8397730107198433  0.3434646604980578  1.0000
  H   H339      1.0  0.7183045923263237  0.8715364777155502  0.33152942607564156  1.0000
  H   H340      1.0  0.7174730504670758  0.8479947498280422  0.29389895433462926  1.0000
  N   N8        1.0  0.6110186651788226  0.5327272395057464  0.12687358728433695  1.0000
  C   C413      1.0  0.594947250341063  0.517329587147277  0.10006658909030253  1.0000
  C   C414      1.0  0.6349393074690637  0.5424131669954163  0.10489824761251954  1.0000
  C   C415      1.0  0.6197610543201162  0.5171011027324462  0.16114646942023692  1.0000
  C   C416      1.0  0.5943830879178832  0.5539389048891448  0.14140399126522363  1.0000
  H   H341      1.0  0.5773204842253803  0.5089824180654908  0.1162000857741563  1.0000
  H   H342      1.0  0.6070525363394796  0.5015068386602546  0.08768704803954352  1.0000
  H   H343      1.0  0.5871465638741962  0.5287272668404672  0.0745240410216832  1.0000
  H   H344      1.0  0.6475485250274877  0.5540949443798118  0.1242529933063512  1.0000
  H   H345      1.0  0.6481410114132836  0.5267917823925283  0.09419304111848814  1.0000
  H   H346      1.0  0.6290119475130418  0.5540499690408401  0.07851432867435904  1.0000
  H   H347      1.0  0.6333616924060864  0.5275413091592851  0.18088612727365794  1.0000
  H   H348      1.0  0.6308848699418564  0.5001722725408525  0.1509331551521509  1.0000
  H   H349      1.0  0.6022701252839834  0.510501850957103  0.17959374974784903  1.0000
  H   H350      1.0  0.5869689481531859  0.5659108479787539  0.11624844793267042  1.0000
  H   H351      1.0  0.6059085583056512  0.5659766748104226  0.16164200132516893  1.0000
  H   H352      1.0  0.5763409716550287  0.5470767513839294  0.15843184333088622  1.0000
  N   N9        1.0  0.5994805104467589  0.30373798887263964  0.4549754742798796  1.0000
  C   C417      1.0  0.5972591491502096  0.30392735284815603  0.4989410293114283  1.0000
  C   C418      1.0  0.5725173136515117  0.29995139997251935  0.4382598090171069  1.0000
  C   C419      1.0  0.6176381115385406  0.2831057528705825  0.4423671437250367  1.0000
  C   C420      1.0  0.610367041333937  0.3280086261032991  0.4402985366450141  1.0000
  H   H353      1.0  0.5841334212030507  0.31968843568533817  0.5092449043639088  1.0000
  H   H354      1.0  0.6172450480062514  0.30618595085430045  0.5128476318584918  1.0000
  H   H355      1.0  0.5881182262910297  0.2862984863746903  0.5110961793773635  1.0000
  H   H356      1.0  0.5583217219924898  0.3150010198114775  0.4478103127567497  1.0000
  H   H357      1.0  0.5731953565378624  0.30023773446965235  0.4050560304713822  1.0000
  H   H358      1.0  0.5636611975451743  0.2817382334665591  0.44835030723008434  1.0000
  H   H359      1.0  0.6382500891869156  0.28539607344297946  0.45423724990714137  1.0000
  H   H360      1.0  0.619474745523683  0.2824635799974774  0.40924835626977096  1.0000
  H   H361      1.0  0.6099478548330446  0.2645563428100501  0.45309648199327235  1.0000
  H   H362      1.0  0.6305034244636203  0.3317567782046081  0.45282578256371814  1.0000
  H   H363      1.0  0.5968048577196373  0.34395005675406626  0.44864688320197443  1.0000
  H   H364      1.0  0.6125759481024604  0.3284385803273138  0.4072006470818489  1.0000
  N   N10       1.0  0.851156839801113  0.6719571866041154  0.5982568184440166  1.0000
  C   C421      1.0  0.8680515276210456  0.651903530799871  0.580511147891048  1.0000
  C   C422      1.0  0.8223888674830429  0.6654397534796396  0.5952661155308421  1.0000
  C   C423      1.0  0.8563390010941299  0.695948451313244  0.5767557871155212  1.0000
  C   C424      1.0  0.8579473451350532  0.6745437635338205  0.6406214855055761  1.0000
  H   H365      1.0  0.8898942591165696  0.6564185933708334  0.5819660643051716  1.0000
  H   H366      1.0  0.8632944811842036  0.6492294718118248  0.5486115698361743  1.0000
  H   H367      1.0  0.8651755913839789  0.6336452247181927  0.5966003082493893  1.0000
  H   H368      1.0  0.8178150650340329  0.6474817357943918  0.611339753055121  1.0000
  H   H369      1.0  0.8091683596799755  0.6802846014130135  0.6083485966592032  1.0000
  H   H370      1.0  0.8164780093292964  0.663467972461406  0.5636249136959798  1.0000
  H   H371      1.0  0.8779005954936561  0.7013855017986181  0.5784393293054  1.0000
  H   H372      1.0  0.8440105766091088  0.7115315445849678  0.5894317338901587  1.0000
  H   H373      1.0  0.8512630964145131  0.6947368273221848  0.5446765643829001  1.0000
  H   H374      1.0  0.8457289417675623  0.689566582852709  0.6551752935644909  1.0000
  H   H375      1.0  0.8795502849211166  0.6793013600954316  0.6436925758666486  1.0000
  H   H376      1.0  0.8543420384162094  0.656829949991914  0.6579653803981617  1.0000
  N   N11       1.0  0.6668939882917962  0.8145727905994821  0.08888709076320667  1.0000
  C   C425      1.0  0.6812220849946515  0.7900876096486765  0.08855490244104436  1.0000
  C   C426      1.0  0.6378088647651957  0.8104470183477547  0.09641713635309704  1.0000
  C   C427      1.0  0.6707753585835354  0.8274173485164076  0.04982606648896493  1.0000
  C   C428      1.0  0.6776772657429818  0.8303533595858361  0.12061446998247191  1.0000
  H   H377      1.0  0.6785019041304874  0.7795843980719428  0.1172973658724977  1.0000
  H   H378      1.0  0.7032718461849643  0.7923843734337596  0.08316214682729761  1.0000
  H   H379      1.0  0.6737019899173577  0.7778162545794425  0.06469009119617543  1.0000
  H   H380      1.0  0.6263197700967184  0.8285224387717188  0.0967326310466681  1.0000
  H   H381      1.0  0.6290311948557371  0.7986549924023223  0.07298216506936252  1.0000
  H   H382      1.0  0.6340352833724593  0.8007532766780535  0.1255834567920762  1.0000
  H   H383      1.0  0.6598573623668236  0.8457826470030506  0.04875452272459757  1.0000
  H   H384      1.0  0.6631140440477349  0.8158833534207178  0.025143855851751606  1.0000
  H   H385      1.0  0.692457999830772  0.8311304801897681  0.04327994815155134  1.0000
  H   H386      1.0  0.6672305321303766  0.8489604524905361  0.12171819552094243  1.0000
  H   H387      1.0  0.6995634045541128  0.8340201036487277  0.11586687942300784  1.0000
  H   H388      1.0  0.6750539510164759  0.821308544970097  0.15055448442933536  1.0000
  N   N12       1.0  0.9944880856224716  0.7994671355174272  0.5788499206984876  1.0000
  C   C429      1.0  0.9977980700331118  0.772050207549648  0.5848849172701626  1.0000
  C   C430      1.0  0.019411520825071582  0.8122665798684546  0.59034804078261  1.0000
  C   C431      1.0  0.9715249855788344  0.808441648536415  0.603629582736258  1.0000
  C   C432      1.0  0.9891791777023573  0.8050714843410973  0.5364275286549348  1.0000
  H   H389      1.0  0.9793348713747191  0.7618304617615613  0.5764542047618152  1.0000
  H   H390      1.0  0.0017463448081842525  0.7671779330273769  0.6166930163484952  1.0000
  H   H391      1.0  0.014905048403645926  0.764532955771323  0.5666798398912558  1.0000
  H   H392      1.0  0.017545720448472135  0.8329992338262756  0.5863916292448217  1.0000
  H   H393      1.0  0.024184717767938624  0.8083765726584019  0.6221434398487108  1.0000
  H   H394      1.0  0.037067393405592286  0.8059356303346509  0.5720980851833977  1.0000
  H   H395      1.0  0.9748566245767041  0.8044344158698779  0.6358457718746193  1.0000
  H   H396      1.0  0.9524489304304612  0.7990399356640443  0.5956661257446143  1.0000
  H   H397      1.0  0.9683438269328165  0.8290563261649653  0.5999743311572479  1.0000
  H   H398      1.0  0.9867916556321183  0.8256050828372233  0.5306134881291157  1.0000
  H   H399      1.0  0.9704225285548223  0.7958642091332617  0.5268927551765525  1.0000
  H   H400      1.0  0.005973209149670922  0.7983493752436593  0.5167629607417477  1.0000
  N   N13       1.0  0.549072280168765  0.34459427283007404  0.06328121512757101  1.0000
  C   C433      1.0  0.5630264344228844  0.3673056701305603  0.04797859005152772  1.0000
  C   C434      1.0  0.5673790042113123  0.3299646387798627  0.08933156579225177  1.0000
  C   C435      1.0  0.5411994096134194  0.32904838634313693  0.029418963497833017  1.0000
  C   C436      1.0  0.5246760999309784  0.3520351419104752  0.08633606081818647  1.0000
  H   H401      1.0  0.5690737508603787  0.37959639868979794  0.07264122963874087  1.0000
  H   H402      1.0  0.549804595971523  0.37881984898111265  0.028288540455967404  1.0000
  H   H403      1.0  0.5815497540389076  0.36243717326871133  0.030530558549933143  1.0000
  H   H404      1.0  0.5736745536607244  0.3411596340202158  0.11522524814017192  1.0000
  H   H405      1.0  0.5575267524613391  0.3127063970587187  0.10147795550581268  1.0000
  H   H406      1.0  0.5860680600416669  0.3241128341017555  0.07300870541883932  1.0000
  H   H407      1.0  0.5590841252910769  0.32314976315016464  0.011291472081353726  1.0000
  H   H408      1.0  0.5273658542277102  0.3395693611459471  0.009202391509224306  1.0000
  H   H409      1.0  0.5305347185622071  0.3117898564357562  0.039816211512421214  1.0000
  H   H410      1.0  0.5135993878007586  0.33541100939637053  0.09827404168644573  1.0000
  H   H411      1.0  0.5104842638184374  0.3632508924779088  0.06773313386550207  1.0000
  H   H412      1.0  0.5297899222278923  0.3638633673736725  0.11203721342068595  1.0000
  N   N14       1.0  0.1765578744531755  0.39789757094743017  0.8471082504722706  1.0000
  C   C437      1.0  0.14937416508620016  0.4054316420245118  0.833816217745309  1.0000
  C   C438      1.0  0.17553646848251914  0.3916469205735535  0.8901717359840189  1.0000
  C   C439      1.0  0.19540293374024253  0.4188713204248931  0.839756565674291  1.0000
  C   C440      1.0  0.1859134274085643  0.3757051289093345  0.8247400131173016  1.0000
  H   H413      1.0  0.14957325171859948  0.4109173086018606  0.8016359598877311  1.0000
  H   H414      1.0  0.14155408168166406  0.4218610976321464  0.8506308830658692  1.0000
  H   H415      1.0  0.13467171490327434  0.3899584813538931  0.8383104375523335  1.0000
  H   H416      1.0  0.19579595031711405  0.3861980232479808  0.9014273939407421  1.0000
  H   H417      1.0  0.1683304049476606  0.4079347801374871  0.9078806558562401  1.0000
  H   H418      1.0  0.16168665285799033  0.3757793323845499  0.8970431392234429  1.0000
  H   H419      1.0  0.1891835306058598  0.435813639669699  0.8567078597616679  1.0000
  H   H420      1.0  0.19629926798426633  0.4244316411678017  0.8076148932501392  1.0000
  H   H421      1.0  0.21627285868705703  0.41359985823647455  0.8484461761753964  1.0000
  H   H422      1.0  0.20659725626120728  0.3697823268761252  0.8335190542742844  1.0000
  H   H423      1.0  0.18667523029076194  0.37972638841005435  0.7920558038187132  1.0000
  H   H424      1.0  0.17240452005728812  0.35938740984576695  0.8299433923324303  1.0000
  N   N15       1.0  0.06817297180026838  0.9338828313624135  0.8087489371334029  1.0000
  C   C441      1.0  0.07211010828813169  0.9448530006192796  0.848361117913288  1.0000
  C   C442      1.0  0.0886601751809919  0.914023350509356  0.8017703925171079  1.0000
  C   C443      1.0  0.07092324204105194  0.9537119265759152  0.7776087666052609  1.0000
  C   C444      1.0  0.04097251709493066  0.9229010069461321  0.8072003710931301  1.0000
  H   H425      1.0  0.09252391010030835  0.9531024693172526  0.8507644245856018  1.0000
  H   H426      1.0  0.07016237758752909  0.9304040845587728  0.8725271645032932  1.0000
  H   H427      1.0  0.05690926368030968  0.9598074890117433  0.8547751232321786  1.0000
  H   H428      1.0  0.08589413444408556  0.9049712360815025  0.7724527359671952  1.0000
  H   H429      1.0  0.10945340508918289  0.9216176669389606  0.8020927595101394  1.0000
  H   H430      1.0  0.08743175966754689  0.8989741718425006  0.8251261442484005  1.0000
  H   H431      1.0  0.06819394228262099  0.9460110175528793  0.747329646494138  1.0000
  H   H432      1.0  0.09121148333606399  0.9624176746066215  0.777874166056007  1.0000
  H   H433      1.0  0.055567645581181095  0.9688485537166496  0.7817079223948211  1.0000
  H   H434      1.0  0.024866111105982917  0.937169839954578  0.8125741916315895  1.0000
  H   H435      1.0  0.038319067661445105  0.9077442782042531  0.8299904455499358  1.0000
  H   H436      1.0  0.037355591804427046  0.9144337783041622  0.7777393908179063  1.0000
  N   N16       1.0  0.5228979353787273  0.20748148623622903  0.264193417793067  1.0000
  C   C445      1.0  0.5077147116770943  0.210167917970404  0.30222141626117766  1.0000
  C   C446      1.0  0.5305217428090403  0.18084225371290769  0.25873899742668527  1.0000
  C   C447      1.0  0.5475641392590014  0.222816541189276  0.2648368144359799  1.0000
  C   C448      1.0  0.5058187882779102  0.21607543265184442  0.23091379396972575  1.0000
  H   H437      1.0  0.4887140264955898  0.1991930281102689  0.30233366303258624  1.0000
  H   H438      1.0  0.502192682794715  0.23009659928456044  0.30801401773135  1.0000
  H   H439      1.0  0.5196910752009969  0.20309681353517423  0.3278685680195191  1.0000
  H   H440      1.0  0.5437176508984113  0.17839525703164702  0.23191915242391745  1.0000
  H   H441      1.0  0.5416237381152745  0.17310965441005033  0.28482232789508755  1.0000
  H   H442      1.0  0.5124835709419668  0.16888773619896744  0.25515308581717544  1.0000
  H   H443      1.0  0.5593324728736982  0.22130295028141836  0.2363028822286422  1.0000
  H   H444      1.0  0.5610047524266201  0.21660766782359847  0.28938557992773634  1.0000
  H   H445      1.0  0.5426741360755668  0.24303499455409544  0.26915160503688057  1.0000
  H   H446      1.0  0.5167588718347307  0.21457434457995056  0.20179867474793475  1.0000
  H   H447      1.0  0.4995088859445467  0.2360312211948026  0.2342991296247233  1.0000
  H   H448      1.0  0.48724576274452874  0.20458995806840352  0.22920027520804231  1.0000
  N   N17       1.0  0.5543503839214039  0.4527545374751123  0.3218723412942414  1.0000
  C   C449      1.0  0.5833025567669999  0.4497619371848013  0.3116659900559201  1.0000
  C   C450      1.0  0.5402983643951084  0.4289285547143651  0.3148310687575225  1.0000
  C   C451      1.0  0.5425582492755975  0.4729077852684754  0.29660911597827067  1.0000
  C   C452      1.0  0.5512533393808556  0.4593964000677123  0.3643171754928378  1.0000
  H   H449      1.0  0.5928451120122868  0.4344369833876052  0.32966497796700905  1.0000
  H   H450      1.0  0.5947635514378341  0.46720499138084537  0.31700986032391354  1.0000
  H   H451      1.0  0.5864858471357857  0.4450717781698519  0.2797419408647267  1.0000
  H   H452      1.0  0.5488663861452153  0.4132218619407034  0.33309053640235037  1.0000
  H   H453      1.0  0.5184518765738146  0.43039277121895103  0.3226289065139709  1.0000
  H   H454      1.0  0.5420666559568786  0.42348300426479535  0.28297890713643153  1.0000
  H   H455      1.0  0.520869279764831  0.47612646869521347  0.3040688768282771  1.0000
  H   H456      1.0  0.5438718871903565  0.46818496549037725  0.2644494838426469  1.0000
  H   H457      1.0  0.5532169674028391  0.49101304387092304  0.30005353965194087  1.0000
  H   H458      1.0  0.5296575779800718  0.46154430435674404  0.3733116994207607  1.0000
  H   H459      1.0  0.5615886124453439  0.4772890270911239  0.37072488262609515  1.0000
  H   H460      1.0  0.5600202445420105  0.44464347772732016  0.3842372026657679  1.0000
  N   N18       1.0  0.40283241820837623  0.09827059530223621  0.37700036465277237  1.0000
  C   C453      1.0  0.40462726499916724  0.09055973409446683  0.3349089218380095  1.0000
  C   C454      1.0  0.41572129400311514  0.0789656863146237  0.40264534781685973  1.0000
  C   C455      1.0  0.3741830384302604  0.10132477854492332  0.3890796370059141  1.0000
  C   C456      1.0  0.41686292196471747  0.12235279772823364  0.38147231722777747  1.0000
  H   H461      1.0  0.39408318621976596  0.10423506130439995  0.3149562891274263  1.0000
  H   H462      1.0  0.39521100773033674  0.07196466258251143  0.3305975516538725  1.0000
  H   H463      1.0  0.425969456525901  0.08931636524385865  0.32407270932615867  1.0000
  H   H464      1.0  0.4148890508524955  0.08443699771970146  0.43455040793986327  1.0000
  H   H465      1.0  0.40559978766838173  0.060511264654550256  0.40034636602725737  1.0000
  H   H466      1.0  0.43736592898857524  0.07626563248384154  0.39416079371924156  1.0000
  H   H467      1.0  0.37208695267247566  0.10740074958393661  0.4205831672980189  1.0000
  H   H468      1.0  0.36287505503561557  0.08354133536027124  0.3862090496537241  1.0000
  H   H469      1.0  0.36388082860924575  0.11582827775361014  0.37030018793281455  1.0000
  H   H470      1.0  0.4077444021297173  0.13730876668994668  0.3623936743991195  1.0000
  H   H471      1.0  0.43863201236612775  0.12078582317729815  0.3730056372676543  1.0000
  H   H472      1.0  0.41569122592419816  0.12886304702352844  0.4127907988537976  1.0000
  N   N19       1.0  0.08857771236239609  0.01372972211429313  0.4667144095068178  1.0000
  C   C457      1.0  0.10457755436882099  0.008384322011302237  0.5026761231516274  1.0000
  C   C458      1.0  0.09975344705430288  0.03572753539161444  0.44484185082796  1.0000
  C   C459      1.0  0.06034384044740615  0.01913929090186084  0.4787194489510972  1.0000
  C   C460      1.0  0.08953101019106957  0.9916571481274618  0.44060809760218295  1.0000
  H   H473      1.0  0.09656820111519826  0.9917735567079113  0.5196428602514556  1.0000
  H   H474      1.0  0.10409892398188503  0.02452879763415483  0.5232802931442849  1.0000
  H   H475      1.0  0.12603796102798143  0.004235128263692101  0.4948707198939046  1.0000
  H   H476      1.0  0.09944201549043874  0.052718287720021184  0.46370539110316683  1.0000
  H   H477      1.0  0.12101209557519073  0.03231135570452359  0.43502823314690026  1.0000
  H   H478      1.0  0.08784682949244926  0.04030102349190412  0.41774843436538944  1.0000
  H   H479      1.0  0.04754123278962741  0.022647572770550184  0.45237250988582617  1.0000
  H   H480      1.0  0.05869698957748847  0.03598310444921049  0.4977678959996348  1.0000
  H   H481      1.0  0.051393323091290855  0.003171159669260515  0.49595080927828455  1.0000
  H   H482      1.0  0.07775661488060104  0.9950188718370422  0.4131067056555252  1.0000
  H   H483      1.0  0.08095741583232606  0.9747613782298026  0.45600746865288155  1.0000
  H   H484      1.0  0.11057518057251636  0.9868472950572877  0.4313635363827798  1.0000
  N   N20       1.0  0.6125437281299316  0.8131957569773304  0.8411228006874722  1.0000
  C   C461      1.0  0.6352434470977288  0.7950341847303681  0.8424063068638834  1.0000
  C   C462      1.0  0.5885894401611824  0.8020461528051839  0.8611621381482826  1.0000
  C   C463      1.0  0.6062454288168078  0.8192825008845904  0.7991474490175347  1.0000
  C   C464      1.0  0.6200825644348523  0.8363703925575446  0.8616582284150912  1.0000
  H   H485      1.0  0.6408293052492511  0.7902444105219961  0.8736011075281088  1.0000
  H   H486      1.0  0.6535829560473456  0.8027428655788512  0.827165099078067  1.0000
  H   H487      1.0  0.6300752053502962  0.7772143155017506  0.8277090760643733  1.0000
  H   H488      1.0  0.582442817197506  0.7844530665088623  0.8465619654218709  1.0000
  H   H489      1.0  0.5926253242493974  0.7971456181001274  0.8928690353677619  1.0000
  H   H490      1.0  0.5711005891781659  0.8152656843279299  0.8609540960198617  1.0000
  H   H491      1.0  0.6007353693401615  0.8021768899514691  0.782681903972736  1.0000
  H   H492      1.0  0.6238734120455168  0.8277797712921199  0.7831602605417286  1.0000
  H   H493      1.0  0.58923065983981  0.8329591446558026  0.7969774614934183  1.0000
  H   H494      1.0  0.6035111786827176  0.8505610926811863  0.86120012097079  1.0000
  H   H495      1.0  0.6382123191013186  0.8451676748777354  0.8474832206359579  1.0000
  H   H496      1.0  0.6249972953502577  0.8324582055056147  0.8933817073780312  1.0000
  N   N21       1.0  0.42591443113585664  0.34928772046283585  0.46814810721226263  1.0000
  C   C465      1.0  0.4263686215858768  0.35298070605270293  0.5116740716747333  1.0000
  C   C466      1.0  0.40186473731408556  0.3619226618484953  0.4515770290893701  1.0000
  C   C467      1.0  0.4248879298839359  0.32212872645718366  0.45990819315529263  1.0000
  C   C468      1.0  0.45042891160380627  0.3602565017713648  0.4494939394995614  1.0000
  H   H497      1.0  0.4444852208576682  0.3440349866264196  0.5252177562662079  1.0000
  H   H498      1.0  0.40818073097817237  0.3449408316686612  0.5268098806622094  1.0000
  H   H499      1.0  0.4268488247199758  0.37326775873806234  0.5188085559825155  1.0000
  H   H500      1.0  0.4004859059316611  0.35909125035663825  0.41890589660097477  1.0000
  H   H501      1.0  0.3830056130943756  0.3545845194325382  0.4656685754221013  1.0000
  H   H502      1.0  0.40218639438603176  0.38251056497347624  0.45659503713382893  1.0000
  H   H503      1.0  0.4259744987877281  0.31850584491702943  0.4273244335214924  1.0000
  H   H504      1.0  0.40582203548809725  0.3136636437614363  0.47165048271269927  1.0000
  H   H505      1.0  0.4419217787500814  0.3116987749515053  0.4738541670257615  1.0000
  H   H506      1.0  0.45163551994339174  0.38077213552711986  0.4551645294203243  1.0000
  H   H507      1.0  0.4508228070845753  0.3578013399409834  0.41662705831180247  1.0000
  H   H508      1.0  0.4689815545309437  0.35133400494867384  0.46150035135760265  1.0000
  N   N22       1.0  0.06586092071206995  0.8246893087677172  0.003936276679466166  1.0000
  C   C469      1.0  0.04013997954827753  0.838797589760151  0.0009831350090072632  1.0000
  C   C470      1.0  0.06477707511613695  0.8076165144675538  0.03913932338116832  1.0000
  C   C471      1.0  0.08819726891472301  0.8424977410120796  0.008204042051767058  1.0000
  C   C472      1.0  0.07044740481388101  0.8100069540815722  0.967454557320859  1.0000
  H   H509      1.0  0.04040194210545467  0.8520431848536608  0.9749324474467098  1.0000
  H   H510      1.0  0.03614371506653247  0.8501316964299707  0.028100905399307097  1.0000
  H   H511      1.0  0.022771545653319958  0.8260139939665673  0.9975328979062823  1.0000
  H   H512      1.0  0.08418683991093356  0.7972087193022888  0.0430704977819818  1.0000
  H   H513      1.0  0.060871602592039054  0.8182200332846621  0.06698698875679332  1.0000
  H   H514      1.0  0.04851162296842837  0.793528723844609  0.036797760252402334  1.0000
  H   H515      1.0  0.08499450058579439  0.85438376734188  0.03478237408622431  1.0000
  H   H516      1.0  0.09002400110369835  0.8553370887608736  0.9819274647017592  1.0000
  H   H517      1.0  0.10790593709471197  0.8325836555340485  0.011469502785821817  1.0000
  H   H518      1.0  0.07154301402250884  0.8225042058579444  0.9404733345063514  1.0000
  H   H519      1.0  0.053901644905918866  0.7964369867939441  0.963058049338229  1.0000
  H   H520      1.0  0.08974247176534944  0.7991851736759151  0.968829350624601  1.0000
  N   N23       1.0  0.5738028711670845  0.2839889769201302  0.8461599148907433  1.0000
  C   C473      1.0  0.5504461650966798  0.30117036857086626  0.850479501287217  1.0000
  C   C474      1.0  0.5818032211494117  0.2746152137996762  0.8860034120694031  1.0000
  C   C475      1.0  0.5964971942179667  0.2977469970926323  0.8270807012561914  1.0000
  C   C476      1.0  0.5664116042631991  0.2626331348352781  0.8211504888278801  1.0000
  H   H521      1.0  0.544975189472941  0.31000265411887984  0.8213902229036422  1.0000
  H   H522      1.0  0.5550261414995041  0.3167221966504682  0.8708761506481875  1.0000
  H   H523      1.0  0.5323078663209646  0.2912862248240897  0.8626224623996724  1.0000
  H   H524      1.0  0.5646417021948382  0.26556850728919523  0.9023198722885062  1.0000
  H   H525      1.0  0.5983877293093934  0.2604162625683221  0.8840654899012753  1.0000
  H   H526      1.0  0.5888973944067908  0.29008344087774895  0.9049091639744662  1.0000
  H   H527      1.0  0.6146705448577973  0.2855230599848059  0.8237297956709978  1.0000
  H   H528      1.0  0.6021210567501627  0.3143507123783082  0.8447965252559204  1.0000
  H   H529      1.0  0.591091669173211  0.30511372316431645  0.7969471944122208  1.0000
  H   H530      1.0  0.5831584989528373  0.24869040284455263  0.8185608467395531  1.0000
  H   H531      1.0  0.5612614834490826  0.268987247151207  0.790424109537165  1.0000
  H   H532      1.0  0.5484710953119829  0.25257045563437125  0.8335876188900134  1.0000
  N   N24       1.0  0.5871501817410801  0.028483870331394545  0.12148846673064728  1.0000
  C   C477      1.0  0.564024109793736  0.031105001966108103  0.14961309071223083  1.0000
  C   C478      1.0  0.5843641094201141  0.005162031470440143  0.09879856649319008  1.0000
  C   C479      1.0  0.6125035870578099  0.027302846936472225  0.14393043500105263  1.0000
  C   C480      1.0  0.5877520628049433  0.050310745017461134  0.09365740854933868  1.0000
  H   H533      1.0  0.5649529619065826  0.048956890318884616  0.16628770629413148  1.0000
  H   H534      1.0  0.5633530935518639  0.015377391329171708  0.17187224186411587  1.0000
  H   H535      1.0  0.544454867222101  0.03132755265142584  0.13380498615895942  1.0000
  H   H536      1.0  0.5654130025413915  0.0053222302631146245  0.08155551715709097  1.0000
  H   H537      1.0  0.6015200642991682  0.0025069818008160993  0.07731401435502994  1.0000
  H   H538      1.0  0.5839369811684225  0.9883985296725085  0.11907300720517355  1.0000
  H   H539      1.0  0.6303274034485427  0.025089022093432778  0.12353624768081595  1.0000
  H   H540      1.0  0.6125877444076715  0.011060570484487497  0.1653264375686634  1.0000
  H   H541      1.0  0.6153461307879764  0.04468137656740723  0.16124616089800226  1.0000
  H   H542      1.0  0.6048229422230095  0.04895262625954366  0.07176818070760649  1.0000
  H   H543      1.0  0.5900168818348415  0.06821109421761373  0.10985729466413496  1.0000
  H   H544      1.0  0.5686919760996825  0.051998724214550096  0.07675576093883363  1.0000
  N   N25       1.0  0.07232115827649421  0.16036936542409672  0.29833077753635706  1.0000
  C   C481      1.0  0.059095933773038345  0.13588147652998198  0.30521388319047327  1.0000
  C   C482      1.0  0.08515936247272937  0.16079948024046767  0.2582203176220032  1.0000
  C   C483      1.0  0.09299187593697056  0.1640658975459609  0.3288269815537648  1.0000
  C   C484      1.0  0.05196108385185738  0.18075651544332366  0.30097417406952076  1.0000
  H   H545      1.0  0.04317224316043733  0.13278210351827555  0.2828007663762581  1.0000
  H   H546      1.0  0.049241362480283435  0.1347073615910731  0.33522530855384713  1.0000
  H   H547      1.0  0.07387250406320511  0.1200787959093992  0.30291140398843847  1.0000
  H   H548      1.0  0.09298054136743406  0.1797540516312054  0.25014608760633705  1.0000
  H   H549      1.0  0.10231700630325702  0.14724751415828602  0.25621754389298823  1.0000
  H   H550      1.0  0.07058460799471855  0.15572553784466442  0.23495105187754903  1.0000
  H   H551      1.0  0.10221865264950591  0.1829691926086706  0.3257816290160262  1.0000
  H   H552      1.0  0.10973339556393724  0.15004639713971107  0.32639576457970526  1.0000
  H   H553      1.0  0.08431458364461952  0.1625563266808644  0.3595489491264442  1.0000
  H   H554      1.0  0.035864271240466206  0.17850702940691116  0.2787183498082798  1.0000
  H   H555      1.0  0.06119454602988017  0.1994905244789766  0.2951724382269368  1.0000
  H   H556      1.0  0.042027153703483755  0.18113155085411173  0.3309350225696578  1.0000
  N   N26       1.0  0.705710569765242  0.7112795829373151  0.6164320867811675  1.0000
  C   C485      1.0  0.6811673374763157  0.6970061991202445  0.6273472669325427  1.0000
  C   C486      1.0  0.7271771483317474  0.7052895549257815  0.6451817967719069  1.0000
  C   C487      1.0  0.6996217572184128  0.7384957543711885  0.617218459540096  1.0000
  C   C488      1.0  0.7148671916882426  0.7043258155190708  0.5759146668490045  1.0000
  H   H557      1.0  0.6645335753365768  0.7012060868315061  0.6063719384831944  1.0000
  H   H558      1.0  0.6736350394260514  0.7017013534231064  0.6577680140685755  1.0000
  H   H559      1.0  0.6850678200021372  0.676401599051963  0.6271304952880191  1.0000
  H   H560      1.0  0.720801142656855  0.7101952397370632  0.6761127225057727  1.0000
  H   H561      1.0  0.7324539584783838  0.6849481313698866  0.6453412196978151  1.0000
  H   H562      1.0  0.7459000019983834  0.7159400644506299  0.6379531507109226  1.0000
  H   H563      1.0  0.7178075038917118  0.7498000747385266  0.6096495783171896  1.0000
  H   H564      1.0  0.6923793375064298  0.7443325287281323  0.6472898910599545  1.0000
  H   H565      1.0  0.6837749996230247  0.7438614689121994  0.5955536187237974  1.0000
  H   H566      1.0  0.699247522922879  0.7087779015225916  0.5533843501698043  1.0000
  H   H567      1.0  0.7196784243674459  0.6839222173587314  0.5741033734000766  1.0000
  H   H568      1.0  0.7333616511360136  0.7146222220290701  0.5666529291987297  1.0000
  N   N27       1.0  0.27638892514605573  0.5363826847949158  0.6761989702542761  1.0000
  C   C489      1.0  0.28073318373718753  0.5607906669103225  0.6555966426365688  1.0000
  C   C490      1.0  0.29946200362322334  0.5307290353398282  0.7021749473417086  1.0000
  C   C491      1.0  0.27417865065555447  0.5164342547822988  0.6463501168601727  1.0000
  C   C492      1.0  0.25133110677578513  0.5375815142844587  0.7007342219899275  1.0000
  H   H569      1.0  0.2636837095145702  0.5656953706554492  0.6357186307169479  1.0000
  H   H570      1.0  0.2995196536920233  0.5604543903695773  0.636890900328595  1.0000
  H   H571      1.0  0.2826370330808714  0.5762172515796437  0.6773024175270674  1.0000
  H   H572      1.0  0.3016657481775366  0.5450719005883858  0.7255609497482507  1.0000
  H   H573      1.0  0.2969061552315878  0.5122972257494378  0.7175714488634839  1.0000
  H   H574      1.0  0.31877923266241764  0.5295390515631808  0.6847937210749573  1.0000
  H   H575      1.0  0.29303373028162755  0.5146266259306789  0.6279866529914974  1.0000
  H   H576      1.0  0.257135939653356  0.5200420922401062  0.6259123055402617  1.0000
  H   H577      1.0  0.2708943995288248  0.49773603759036034  0.6608273404203232  1.0000
  H   H578      1.0  0.24740255572548578  0.5194885377485381  0.7167613307974187  1.0000
  H   H579      1.0  0.2334221780364906  0.5419114122717199  0.6822898302346675  1.0000
  H   H580      1.0  0.25249755667931195  0.5521197771576293  0.7240831680766713  1.0000
  N   N28       1.0  0.326427091826734  0.6501116707264318  0.12647602216483148  1.0000
  C   C493      1.0  0.34506470993297306  0.6690416142166038  0.10923381766938313  1.0000
  C   C494      1.0  0.33185253212298554  0.6466036723782994  0.16936743447949051  1.0000
  C   C495      1.0  0.3305335539798837  0.6260079456518951  0.10595492419709093  1.0000
  C   C496      1.0  0.2982547574021096  0.658762854412129  0.12147893302265926  1.0000
  H   H581      1.0  0.3416473845049799  0.6721048752723549  0.07682095163761549  1.0000
  H   H582      1.0  0.36649593939368075  0.6630503285405387  0.11274494641318705  1.0000
  H   H583      1.0  0.3424234116995859  0.6874567075532262  0.12407793604856718  1.0000
  H   H584      1.0  0.31805229904845844  0.6325284299633227  0.18322505895539853  1.0000
  H   H585      1.0  0.3529087325513778  0.6400358992688258  0.174451672486695  1.0000
  H   H586      1.0  0.3285602189452605  0.6643162460616481  0.18600056659904476  1.0000
  H   H587      1.0  0.32619475657454405  0.6277626419013167  0.0736274083064743  1.0000
  H   H588      1.0  0.3171054630841394  0.6111646497141756  0.1187573417129065  1.0000
  H   H589      1.0  0.3516619093900574  0.6190016696635866  0.10867722150710012  1.0000
  H   H590      1.0  0.28371356144732346  0.644591126746921  0.1334540950006075  1.0000
  H   H591      1.0  0.2935244622752207  0.6622621462055701  0.08959050500734712  1.0000
  H   H592      1.0  0.2940817102815658  0.6764020042247082  0.1379574801381677  1.0000
  N   N29       1.0  0.49132257983368555  0.4309626153981352  0.7085753792589892  1.0000
  C   C497      1.0  0.5061498469539449  0.41660881798575755  0.7393384624768428  1.0000
  C   C498      1.0  0.4909068399055009  0.4578608155384127  0.7185171425888556  1.0000
  C   C499      1.0  0.46335579299455126  0.42169999504466305  0.7068675899577392  1.0000
  C   C500      1.0  0.5049381930443846  0.42759115811126086  0.6695224413769219  1.0000
  H   H593      1.0  0.5053984159516527  0.39611303959860517  0.7338425794140175  1.0000
  H   H594      1.0  0.4974273574402626  0.41973191705683105  0.7695646901818558  1.0000
  H   H595      1.0  0.5277826309261887  0.4220088824087518  0.7399180868815343  1.0000
  H   H596      1.0  0.4800184845470365  0.4691928638002895  0.6956126617713876  1.0000
  H   H597      1.0  0.4805212389699854  0.46098176539368246  0.7477539223542007  1.0000
  H   H598      1.0  0.5117170141788826  0.465333103185726  0.7203587623490151  1.0000
  H   H599      1.0  0.4629171489222868  0.4015211764688705  0.6987850335297375  1.0000
  H   H600      1.0  0.45157785865290134  0.43212541795211734  0.6838505699696732  1.0000
  H   H601      1.0  0.45254706209397055  0.4236671352415703  0.7360522207270185  1.0000
  H   H602      1.0  0.5052930761435702  0.40749902532372406  0.6611613730340749  1.0000
  H   H603      1.0  0.52626995099024  0.43397608123576953  0.6696834056904947  1.0000
  H   H604      1.0  0.49433782006432003  0.4381201326542907  0.6453896289026583  1.0000
  N   N30       1.0  0.32326861130969115  0.21157273004339802  0.5259520162973323  1.0000
  C   C501      1.0  0.3008209141682197  0.19387078117796336  0.5215940794403282  1.0000
  C   C502      1.0  0.34571458746416855  0.19869910632115237  0.5465497488767589  1.0000
  C   C503      1.0  0.3138307942448273  0.2332136191599228  0.5495733674649732  1.0000
  C   C504      1.0  0.3325500594635747  0.22049453596237922  0.48608060158852096  1.0000
  H   H605      1.0  0.29298677570837384  0.18686015825782576  0.5510040177996293  1.0000
  H   H606      1.0  0.3069207219843776  0.17729238522887103  0.5038619213449491  1.0000
  H   H607      1.0  0.28365819614685756  0.2029584230474304  0.5060605734286026  1.0000
  H   H608      1.0  0.3632075026012733  0.21135755295148378  0.5499260344575988  1.0000
  H   H609      1.0  0.3393936435347688  0.19191300141347048  0.5768501257235557  1.0000
  H   H610      1.0  0.3531006372564768  0.18211742561455746  0.5296419306358477  1.0000
  H   H611      1.0  0.33038245626836943  0.24666218123445688  0.5546133300268764  1.0000
  H   H612      1.0  0.3056970987349667  0.22707478985850188  0.5793038525933506  1.0000
  H   H613      1.0  0.29732854716734186  0.24364537368993203  0.5342861786903467  1.0000
  H   H614      1.0  0.3495176726350073  0.23388862474839453  0.4881236730441295  1.0000
  H   H615      1.0  0.3160140969518712  0.23013598071926922  0.46962364060772754  1.0000
  H   H616      1.0  0.3397076135211223  0.20465091679159456  0.4673899120040026  1.0000
  N   N31       1.0  0.35199977504420393  0.17469822526261458  0.843591395804901  1.0000
  C   C505      1.0  0.3739494341008845  0.19259042728079634  0.8344274161813987  1.0000
  C   C506      1.0  0.36151895455712435  0.15533900418845903  0.8722942226116287  1.0000
  C   C507      1.0  0.34380887746978506  0.16247779556771902  0.8065739705509247  1.0000
  C   C508      1.0  0.32869519999179847  0.18836857211498925  0.860969720252197  1.0000
  H   H617      1.0  0.3923756025063093  0.18270299769649445  0.8233860124378918  1.0000
  H   H618      1.0  0.37971460052788697  0.20312874589639907  0.8612142547531638  1.0000
  H   H619      1.0  0.36803237893776647  0.2064934353314083  0.8108863714531709  1.0000
  H   H620      1.0  0.3454182406766806  0.1414948671894496  0.8797316676513339  1.0000
  H   H621      1.0  0.3791160593293362  0.14467540557361214  0.8598676640838564  1.0000
  H   H622      1.0  0.3679050028209171  0.16382297223083886  0.9006217875919792  1.0000
  H   H623      1.0  0.3370646548470391  0.17653806864745047  0.7837872836197209  1.0000
  H   H624      1.0  0.3266590523704165  0.14945691465656208  0.8120257405728624  1.0000
  H   H625      1.0  0.3607731504994881  0.15147018295999093  0.793149428998765  1.0000
  H   H626      1.0  0.31191589832884403  0.17538135819007472  0.868750347570327  1.0000
  H   H627      1.0  0.3207183481701283  0.20271754345662063  0.8395962004724171  1.0000
  H   H628      1.0  0.3340787391998129  0.1981454383266943  0.8886673118860886  1.0000
  N   N32       1.0  0.9559644695069216  0.6781517705885808  0.9005011244746273  1.0000
  C   C509      1.0  0.9657854605834584  0.668627629885331  0.861690866961518  1.0000
  C   C510      1.0  0.9651324017598439  0.7042371811092192  0.9052673239471642  1.0000
  C   C511      1.0  0.9667529002478941  0.662203837205009  0.9331091534664119  1.0000
  C   C512      1.0  0.9261699541323792  0.6775702057020117  0.9019174977559645  1.0000
  H   H629      1.0  0.9881845738334758  0.6684377669743224  0.8595438076046875  1.0000
  H   H630      1.0  0.9583398274873798  0.6805323958274766  0.8365475116873943  1.0000
  H   H631      1.0  0.9587579547651376  0.6491597550886713  0.8566237972237187  1.0000
  H   H632      1.0  0.9875144403975508  0.7054234956783282  0.9038458294872572  1.0000
  H   H633      1.0  0.9572700437417295  0.716852134103435  0.8812766899975101  1.0000
  H   H634      1.0  0.9580815318105891  0.7120052862556981  0.9342395228577246  1.0000
  H   H635      1.0  0.989177368887435  0.6625117516651897  0.9333376903380961  1.0000
  H   H636      1.0  0.9606629899715025  0.6423495031678761  0.9300453246629506  1.0000
  H   H637      1.0  0.9591972413816671  0.6684660496162613  0.9628021704818778  1.0000
  H   H638      1.0  0.9179414026303527  0.6841207578634033  0.9310268608157195  1.0000
  H   H639      1.0  0.9185678899603358  0.6582330176520428  0.8975843586020825  1.0000
  H   H640      1.0  0.9174144317885883  0.6898094042069735  0.8780883018759489  1.0000
  N   N33       1.0  0.9605360942739064  0.5248676569664495  0.9016792550265572  1.0000
  C   C513      1.0  0.9802806001079517  0.5454666976644107  0.9004303564045981  1.0000
  C   C514      1.0  0.9331510577217582  0.5353246761901393  0.8956748459986305  1.0000
  C   C515      1.0  0.9615646944522884  0.5117787556562012  0.9408663312531381  1.0000
  C   C516      1.0  0.967222371763072  0.5069919042563618  0.8697331140546334  1.0000
  H   H641      1.0  0.001124890401154044  0.5384020547520249  0.905757902240332  1.0000
  H   H642      1.0  0.9756510208121043  0.559379236949674  0.9239698141030961  1.0000
  H   H643      1.0  0.9802901419936455  0.5556657016333756  0.8711538599478871  1.0000
  H   H644      1.0  0.9177664459857632  0.5202811755309241  0.8952368691744574  1.0000
  H   H645      1.0  0.9271977553454985  0.5483259473893407  0.9199985472762957  1.0000
  H   H646      1.0  0.9319009195318735  0.5461948029568868  0.8670297616821901  1.0000
  H   H647      1.0  0.9471839075014803  0.4958936355985695  0.9428739173916943  1.0000
  H   H648      1.0  0.9563852617560593  0.5247540087247177  0.9655666209467719  1.0000
  H   H649      1.0  0.9821415001396167  0.5042256935080173  0.9469097748118164  1.0000
  H   H650      1.0  0.9665164155375986  0.5163379544908687  0.8397884429449757  1.0000
  H   H651      1.0  0.9528233451261247  0.49109159004996206  0.8698336025135784  1.0000
  H   H652      1.0  0.9878627552873713  0.49893092152345275  0.8732876091293892  1.0000
  N   N34       1.0  0.263902345371121  0.4811714941239924  0.9456613082307185  1.0000
  C   C517      1.0  0.24454316345832036  0.4899078535541812  0.9153113614118055  1.0000
  C   C518      1.0  0.27445726767255  0.5030643091144049  0.9666538832701793  1.0000
  C   C519      1.0  0.28647069143822007  0.46760358060060997  0.9260357445974562  1.0000
  C   C520      1.0  0.25019736195316566  0.46414614996032777  0.9746445512760432  1.0000
  H   H653      1.0  0.2542623278397879  0.5026213084422555  0.8927248643449942  1.0000
  H   H654      1.0  0.22739889792809007  0.5005172797712286  0.9290314933108047  1.0000
  H   H655      1.0  0.2358985640248561  0.4739658619954993  0.899018378948294  1.0000
  H   H656      1.0  0.2579079802013039  0.513774503141132  0.9817200713084716  1.0000
  H   H657      1.0  0.2890471575896733  0.4972230192208774  0.9899317913688818  1.0000
  H   H658      1.0  0.2849347376595286  0.5162558574383936  0.9456030176241437  1.0000
  H   H659      1.0  0.30202946682709336  0.4614329438587231  0.9476969862183793  1.0000
  H   H660      1.0  0.29677274259853587  0.4794926462227181  0.9028666601517888  1.0000
  H   H661      1.0  0.279467060376585  0.4504278998317701  0.9111019914768408  1.0000
  H   H662      1.0  0.2642926027195754  0.4570738673768823  0.997779015948294  1.0000
  H   H663      1.0  0.24169996683360845  0.44753282498905606  0.9597846444390734  1.0000
  H   H664      1.0  0.23322547311412017  0.4738381928550521  0.9903578377357918  1.0000
  N   N35       1.0  0.7465182186590777  0.7065271806522879  0.8860632352864432  1.0000
  C   C521      1.0  0.7362148923901232  0.7312507580878181  0.8721941514645986  1.0000
  C   C522      1.0  0.7339761355646844  0.700032949412032  0.9251769992241053  1.0000
  C   C523      1.0  0.7761227009163617  0.7076114822126811  0.8899035397544107  1.0000
  C   C524      1.0  0.7397222418188671  0.6871973285428679  0.856918714782239  1.0000
  H   H665      1.0  0.7453899848984505  0.7368852318724043  0.8429181622393306  1.0000
  H   H666      1.0  0.740828238300013  0.746295051650113  0.8935436178795004  1.0000
  H   H667      1.0  0.7139799193403675  0.7310205796891461  0.8685613656443313  1.0000
  H   H668      1.0  0.7410188535140966  0.681361702921066  0.9364501183735962  1.0000
  H   H669      1.0  0.738631123206256  0.714158520417688  0.9480447509084726  1.0000
  H   H670      1.0  0.7116210050578826  0.699112744635486  0.9231939648620229  1.0000
  H   H671      1.0  0.7845742627001343  0.6893365496818751  0.9006473891258727  1.0000
  H   H672      1.0  0.7820265841295877  0.7223016483785092  0.9111528884528053  1.0000
  H   H673      1.0  0.7861694666458903  0.712140307478078  0.8607488706190027  1.0000
  H   H674      1.0  0.7474904757534546  0.6683458852208952  0.8661046266788083  1.0000
  H   H675      1.0  0.7483277942418806  0.6917012077785937  0.8268280684357411  1.0000
  H   H676      1.0  0.717541480219711  0.6855582879469182  0.853833780511922  1.0000
  N   N36       1.0  0.9566756573669627  0.010316895326271336  0.3073592188715999  1.0000
  C   C525      1.0  0.9494071508559355  0.9987484393820819  0.2693686835837914  1.0000
  C   C526      1.0  0.9776303538977247  0.994846346758165  0.3270313721936855  1.0000
  C   C527      1.0  0.9325618054774325  0.011873778246414444  0.33378671645790536  1.0000
  C   C528      1.0  0.9671000240924088  0.03585366260223033  0.29929948061408074  1.0000
  H   H677      1.0  0.9668887443885401  0.9983528856099368  0.24807082004971592  1.0000
  H   H678      1.0  0.9329734618145287  0.009510160035319126  0.25440627227828894  1.0000
  H   H679      1.0  0.9423677076728111  0.979131278798189  0.2740621024733856  1.0000
  H   H680      1.0  0.9831347997245344  0.0028596151256206066  0.35611554620311936  1.0000
  H   H681      1.0  0.9706456091031579  0.9752994830241606  0.3330964384189583  1.0000
  H   H682      1.0  0.9963692122440979  0.9937041688569808  0.3083531371800545  1.0000
  H   H683      1.0  0.9374081027086993  0.020708561145329263  0.36262546534424533  1.0000
  H   H684      1.0  0.9242728580337304  0.992921419934776  0.3408251636993449  1.0000
  H   H685      1.0  0.9162990247361092  0.023366453674418697  0.3197853899006662  1.0000
  H   H686      1.0  0.9718614589278587  0.045509283367805235  0.3274138932189039  1.0000
  H   H687      1.0  0.9521570434212683  0.04776624530015483  0.2830659351674203  1.0000
  H   H688      1.0  0.9858852833664398  0.035390462584202975  0.2806154907621474  1.0000
  N   N37       1.0  0.8200995040422129  0.5792510536167197  0.058132787827111176  1.0000
  C   C529      1.0  0.8461077049134061  0.5664738966037008  0.04982253575131934  1.0000
  C   C530      1.0  0.7982055187753285  0.5606394387177718  0.05795811040956034  1.0000
  C   C531      1.0  0.8153200038568237  0.5987882419108665  0.027160732285132383  1.0000
  C   C532      1.0  0.8208178918550271  0.5910829356959209  0.09760731529699052  1.0000
  H   H689      1.0  0.8463187801863356  0.5573271800579555  0.020297961521379415  1.0000
  H   H690      1.0  0.8505491691457101  0.5517719990081422  0.0727983229454483  1.0000
  H   H691      1.0  0.8630155835736886  0.5799699210391034  0.04938834015124738  1.0000
  H   H692      1.0  0.7782222828781796  0.5696417755773283  0.06378947325279882  1.0000
  H   H693      1.0  0.7971462074753889  0.5512490041156788  0.028712182985217494  1.0000
  H   H694      1.0  0.8011529385342494  0.5458230116060524  0.08137089604659908  1.0000
  H   H695      1.0  0.7957527987158443  0.6087322486876784  0.03237414763037627  1.0000
  H   H696      1.0  0.8149389097683298  0.5906267390919581  0.9969075148277858  1.0000
  H   H697      1.0  0.8314971638512306  0.6131664173161187  0.026752301673221623  1.0000
  H   H698      1.0  0.8242918677313517  0.5769051487855239  0.12172374535216579  1.0000
  H   H699      1.0  0.8014497977805622  0.6009484012893204  0.10471723740642402  1.0000
  H   H700      1.0  0.8373113748123595  0.6050525036910421  0.0989442029721872  1.0000
  N   N38       1.0  0.3770008613128936  0.3165130926051024  0.7849421637296692  1.0000
  C   C533      1.0  0.38942046048243545  0.33763296133838894  0.8056748046934443  1.0000
  C   C534      1.0  0.3937537314873941  0.2936356218500166  0.7902782065410342  1.0000
  C   C535      1.0  0.3750679358041587  0.322725082670238  0.7419894043930173  1.0000
  C   C536      1.0  0.3497073981531496  0.3120055440505718  0.8017663432066848  1.0000
  H   H701      1.0  0.3911749561779704  0.3335328820623811  0.8381999082845696  1.0000
  H   H702      1.0  0.37737889009053804  0.35525849901570894  0.8022335487199826  1.0000
  H   H703      1.0  0.41020789686832504  0.34131810783621824  0.7940387796697161  1.0000
  H   H704      1.0  0.3846953623627947  0.27717641916556746  0.7757769462143022  1.0000
  H   H705      1.0  0.41432489109632115  0.2961474736220567  0.777060609290497  1.0000
  H   H706      1.0  0.39627627720626535  0.28878254011271026  0.8223955130740217  1.0000
  H   H707      1.0  0.36567793286617856  0.30717101939673264  0.7255811171252868  1.0000
  H   H708      1.0  0.39533836735692646  0.32595901325004495  0.7281820501935248  1.0000
  H   H709      1.0  0.3625627256862358  0.3398985328916992  0.7368389584374763  1.0000
  H   H710      1.0  0.33980194196919233  0.29614404399452315  0.7868306411887599  1.0000
  H   H711      1.0  0.3363135408154217  0.3287597747857626  0.7980689384570683  1.0000
  H   H712      1.0  0.3502367609917542  0.3072764751007875  0.8341659530580381  1.0000
  N   N39       1.0  0.5929698846807304  0.10387004165517277  0.7760887282107954  1.0000
  C   C537      1.0  0.6093445953417327  0.08065055837507984  0.7796177095761556  1.0000
  C   C538      1.0  0.5640726721210808  0.09744535107543184  0.7783593458043108  1.0000
  C   C539      1.0  0.5989851543766087  0.11651508981554692  0.7373968886716652  1.0000
  C   C540      1.0  0.5993477247906758  0.12084069315302837  0.8089610414683928  1.0000
  H   H713      1.0  0.6312999438005079  0.0847661099553485  0.7779894280075126  1.0000
  H   H714      1.0  0.6048970161344811  0.0674495321722326  0.7552730905642541  1.0000
  H   H715      1.0  0.605190627997067  0.07066058168400957  0.8084832917546769  1.0000
  H   H716      1.0  0.5513258405636259  0.11456044354703288  0.7759065376191844  1.0000
  H   H717      1.0  0.5582702455489914  0.08501011457776775  0.7536515053614512  1.0000
  H   H718      1.0  0.5585621255667939  0.08806497025737126  0.8072451403788337  1.0000
  H   H719      1.0  0.6206343096084435  0.12156035805981635  0.7343405209495866  1.0000
  H   H720      1.0  0.5868943547777562  0.13409868964489324  0.7337316620498171  1.0000
  H   H721      1.0  0.5938777315702677  0.10441404733043513  0.7119003934642352  1.0000
  H   H722      1.0  0.6210216759886142  0.12600130778521335  0.8085231477241063  1.0000
  H   H723      1.0  0.5944981215644386  0.11208554234925794  0.8386057019058547  1.0000
  H   H724      1.0  0.5873239921473842  0.13857584861413264  0.8071600638567954  1.0000
  N   N40       1.0  0.8814682542065958  0.8079876641973108  0.7768974451784544  1.0000
  C   C541      1.0  0.8999152138117043  0.7860797832127618  0.7743241827126971  1.0000
  C   C542      1.0  0.8909624345356405  0.8251632484776233  0.8076851387895989  1.0000
  C   C543      1.0  0.8539604730279602  0.7994291938758198  0.7876258701817102  1.0000
  C   C544      1.0  0.8810073171746376  0.8213600664858303  0.7379466918214334  1.0000
  H   H725      1.0  0.8933165177193432  0.7725296838340023  0.7516746200635119  1.0000
  H   H726      1.0  0.9009874402731147  0.7756093746121866  0.8032795502869011  1.0000
  H   H727      1.0  0.9208178808154873  0.7918713088084488  0.7659826128160402  1.0000
  H   H728      1.0  0.8770994879701458  0.8415952996092742  0.8111077839175881  1.0000
  H   H729      1.0  0.892213454891543  0.8155573133606402  0.8373120215954969  1.0000
  H   H730      1.0  0.911377311903681  0.8325872440079123  0.8000579200821752  1.0000
  H   H731      1.0  0.8394241102289454  0.8154618460876573  0.7895245281149982  1.0000
  H   H732      1.0  0.8534023171634881  0.7894742685317618  0.8170554767660525  1.0000
  H   H733      1.0  0.8461070249397964  0.7862799436250784  0.7652635716323698  1.0000
  H   H734      1.0  0.8674358661125897  0.8381281935077328  0.7389861710713524  1.0000
  H   H735      1.0  0.873804139299863  0.8090416895192966  0.714013569225653  1.0000
  H   H736      1.0  0.9014589269620706  0.8280545747405458  0.7288068849784329  1.0000
  N   N41       1.0  0.7315422918460786  0.8846701047175268  0.653160409445725  1.0000
  C   C545      1.0  0.7552146685182246  0.8761503776115408  0.6760267515794987  1.0000
  C   C546      1.0  0.7249273828331979  0.9109475865643338  0.6631315222716047  1.0000
  C   C547      1.0  0.7082119761512861  0.8685941080019767  0.6634271966666757  1.0000
  C   C548      1.0  0.7378672185587867  0.8829902448372354  0.6100671695257635  1.0000
  H   H737      1.0  0.7607709806827665  0.856390000032313  0.6690393794383606  1.0000
  H   H738      1.0  0.7512732974950673  0.8772380926821964  0.7087006251010766  1.0000
  H   H739      1.0  0.7731785994545175  0.8878956315612461  0.6689449115830254  1.0000
  H   H740      1.0  0.7182420596463708  0.9126065508539473  0.6947052978901251  1.0000
  H   H741      1.0  0.7427036480155575  0.9232841953227787  0.6589465249016424  1.0000
  H   H742      1.0  0.7084146771384399  0.9186626457156336  0.6444179575200704  1.0000
  H   H743      1.0  0.6899680571328523  0.8747164532900337  0.6469591999690588  1.0000
  H   H744      1.0  0.7031544564977595  0.8691044988098872  0.6958787682263718  1.0000
  H   H745      1.0  0.7123656292211976  0.8486681214009957  0.655893882306482  1.0000
  H   H746      1.0  0.7209752650423467  0.8902225995443924  0.5915817968651917  1.0000
  H   H747      1.0  0.7419905343571856  0.8632721281517575  0.6012113564985853  1.0000
  H   H748      1.0  0.756056498696077  0.8940484538091586  0.6016588915916028  1.0000
  N   N42       1.0  0.24438328387738364  0.012349185162740195  0.9684651989294643  1.0000
  C   C549      1.0  0.2683050273440815  0.0032569378565026064  0.9458907213937238  1.0000
  C   C550      1.0  0.22249673244129473  0.993781166170578  0.9664667716251112  1.0000
  C   C551      1.0  0.23516537837425971  0.036528882732995704  0.9509715835566299  1.0000
  C   C552      1.0  0.25165600941135813  0.015901003345246467  0.010502977271664493  1.0000
  H   H749      1.0  0.2757988150493348  0.9849987995087555  0.9581580442080798  1.0000
  H   H750      1.0  0.2852203881205268  0.016868144856738487  0.9471302483769176  1.0000
  H   H751      1.0  0.2637357749112868  0.0006756066589270748  0.9138971634530881  1.0000
  H   H752      1.0  0.20390235992870395  0.0004774493490864451  0.9821473748394786  1.0000
  H   H753      1.0  0.21696622136701632  0.9901610325700997  0.9351245044578997  1.0000
  H   H754      1.0  0.22831845414720042  0.9755134705459424  0.9806292352324126  1.0000
  H   H755      1.0  0.2514288803474336  0.05074150970127311  0.9511464967393306  1.0000
  H   H756      1.0  0.21760184127482024  0.04439806184752815  0.9678215351910684  1.0000
  H   H757      1.0  0.22897155301439254  0.03452536607862822  0.9195114644908324  1.0000
  H   H758      1.0  0.23421722745875476  0.022910793072427937  0.028438962537640222  1.0000
  H   H759      1.0  0.2681186704702883  0.029822148301637652  0.01305994585161585  1.0000
  H   H760      1.0  0.2586867016762155  0.9980357759293393  0.024686881052146337  1.0000
  N   N43       1.0  0.10359959848787148  0.39506385300220725  0.10948808691899155  1.0000
  C   C553      1.0  0.08688535589626278  0.3825864662049287  0.14078414572748826  1.0000
  C   C554      1.0  0.130003142385146  0.38207539007905866  0.10638102772680925  1.0000
  C   C555      1.0  0.10774011512517734  0.42159314552886273  0.11976605034460816  1.0000
  C   C556      1.0  0.08973186854103643  0.39393530566753787  0.07096273415064558  1.0000
  H   H761      1.0  0.06677614090010087  0.39186551828619587  0.143943021162449  1.0000
  H   H762      1.0  0.09677428328984505  0.38290258090768325  0.17026847381809376  1.0000
  H   H763      1.0  0.08339285388122697  0.36250174132480184  0.13364166095219665  1.0000
  H   H764      1.0  0.14264533973625837  0.3899746131238539  0.08147999215280712  1.0000
  H   H765      1.0  0.1416021711696882  0.3835711388177507  0.1342706124680684  1.0000
  H   H766      1.0  0.1274716126975859  0.3617091569557783  0.10087994605604458  1.0000
  H   H767      1.0  0.12011691062661645  0.43149379555898726  0.09646569541981512  1.0000
  H   H768      1.0  0.11820320987359811  0.4232733439902157  0.14860971808838191  1.0000
  H   H769      1.0  0.08821263150847125  0.4320091155073976  0.12217682891398528  1.0000
  H   H770      1.0  0.08549233822499813  0.3741667706578759  0.06295815351138123  1.0000
  H   H771      1.0  0.10212725487198981  0.4024661866882384  0.04634548559191498  1.0000
  H   H772      1.0  0.07015997935094331  0.4043442968607608  0.07182060070254637  1.0000
  N   N44       1.0  0.9172540713588823  0.04301782117154618  0.046221714412258974  1.0000
  C   C557      1.0  0.9361244213408024  0.058708392277385224  0.022263231949411155  1.0000
  C   C558      1.0  0.9144238255170224  0.018381443906371864  0.027198769224555663  1.0000
  C   C559      1.0  0.8906110847059884  0.05566038102222426  0.04869440404116587  1.0000
  C   C560      1.0  0.9278746317649105  0.039323793937401375  0.08676652791123085  1.0000
  H   H773      1.0  0.9388301702418514  0.0774062085569085  0.03590086741025056  1.0000
  H   H774      1.0  0.9286217898606556  0.06196786739807125  0.9915103418022357  1.0000
  H   H775      1.0  0.9564023092507913  0.04963025644847385  0.01971485796849981  1.0000
  H   H776      1.0  0.8994842360685223  0.0063912144517268565  0.04358693212059439  1.0000
  H   H777      1.0  0.907148093049516  0.02054637400720427  0.9961014209143396  1.0000
  H   H778      1.0  0.9339506543818458  0.007918109517272454  0.02587939345889545  1.0000
  H   H779      1.0  0.8760014221638615  0.04437741168197373  0.06686327307536111  1.0000
  H   H780      1.0  0.8817235621708612  0.05839572693022865  0.018654349649834367  1.0000
  H   H781      1.0  0.8918796700592457  0.07437731222283683  0.06280054253822276  1.0000
  H   H782      1.0  0.9138671196437239  0.02804338611072943  0.10601354002768382  1.0000
  H   H783      1.0  0.9308529902316884  0.05759429424988616  0.10155981864839547  1.0000
  H   H784      1.0  0.9476652686430492  0.029378612211498734  0.08632200058940631  1.0000
  N   N45       1.0  0.8031201342488761  0.01781583904987083  0.5127039918351317  1.0000
  C   C561      1.0  0.7863242777301975  0.9957492059781238  0.5048162747097098  1.0000
  C   C562      1.0  0.7874025975063881  0.03587435817477025  0.5369312631924097  1.0000
  C   C563      1.0  0.8113885261841084  0.029837791362202326  0.4744313242763262  1.0000
  C   C564      1.0  0.8273304033292357  0.009737101677082194  0.5347267439320623  1.0000
  H   H785      1.0  0.7978891517998565  0.9811801771613698  0.4880656872166607  1.0000
  H   H786      1.0  0.7683643566717244  0.0009242333572807571  0.486953751579726  1.0000
  H   H787      1.0  0.7787938913516614  0.9868808782022895  0.5330482497497285  1.0000
  H   H788      1.0  0.7994353075809165  0.05281968484910693  0.543341750202277  1.0000
  H   H789      1.0  0.7687916535273466  0.042181397064795734  0.5214848697002045  1.0000
  H   H790      1.0  0.7810775354275359  0.027303228621240683  0.5661552355982586  1.0000
  H   H791      1.0  0.8246332101044638  0.04623401701230523  0.4790599415669745  1.0000
  H   H792      1.0  0.7936205263018429  0.03645328005198478  0.4572600473916392  1.0000
  H   H793      1.0  0.822745131526778  0.016453022001053474  0.4551947753358305  1.0000
  H   H794      1.0  0.8408681962593297  0.025749694504079823  0.5404677185191397  1.0000
  H   H795      1.0  0.8392850890937144  0.9955868455480982  0.5179438308541238  1.0000
  H   H796      1.0  0.8218489634694577  0.0010160127704677002  0.5640853261654751  1.0000
  N   N46       1.0  0.09235946006964646  0.014480135351971457  0.14425411101194255  1.0000
  C   C565      1.0  0.08807689084399682  0.0419629751942967  0.14415716661908964  1.0000
  C   C566      1.0  0.10946878927107884  0.007642911663769958  0.1095509746676225  1.0000
  C   C567      1.0  0.06604770786742797  0.0018189051048962401  0.1420189932344767  1.0000
  C   C568      1.0  0.10587289845123671  0.006512369185017741  0.18133856227340042  1.0000
  H   H797      1.0  0.10745501483695707  0.0521533082167176  0.14612030935027542  1.0000
  H   H798      1.0  0.07513931952375463  0.04777058859621164  0.16984928189167414  1.0000
  H   H799      1.0  0.07799691453895274  0.048556835092938844  0.11651401162395722  1.0000
  H   H800      1.0  0.1290997126368484  0.01757215052498773  0.10944658105787804  1.0000
  H   H801      1.0  0.11417540885755928  0.9871922466182016  0.10960853343829347  1.0000
  H   H802      1.0  0.09946079809660334  0.012300705597751538  0.08091123251935084  1.0000
  H   H803      1.0  0.06850447973925733  0.9810461643825367  0.14142371497864012  1.0000
  H   H804      1.0  0.05507474156908442  0.0076229600692596655  0.11467118395425181  1.0000
  H   H805      1.0  0.05281549413067155  0.006348470001850348  0.1681037511939722  1.0000
  H   H806      1.0  0.10934430710682543  0.9858244991354885  0.18235834291642183  1.0000
  H   H807      1.0  0.0935242485931993  0.011473132303471134  0.20816934508557802  1.0000
  H   H808      1.0  0.12579898020748675  0.01569600729341647  0.1840151065703534  1.0000
  N   N47       1.0  0.21271315205425295  0.24712251286526984  0.9807917108815072  1.0000
  C   C569      1.0  0.20225876252509492  0.2713211900134738  0.9958728681284608  1.0000
  C   C570      1.0  0.19659142596279972  0.22631261533650976  0.9981296164936401  1.0000
  C   C571      1.0  0.24116234682741963  0.24378116009951128  0.9923506940494309  1.0000
  C   C572      1.0  0.21085283762682144  0.24697594394034578  0.9368899976093354  1.0000
  H   H809      1.0  0.2138368731044726  0.2874455429563923  0.983115621916107  1.0000
  H   H810      1.0  0.20366879644155236  0.27215615875857824  0.028895725246080417  1.0000
  H   H811      1.0  0.18067146580198248  0.2742767804304879  0.9883820569116527  1.0000
  H   H812      1.0  0.20438741693723472  0.20772614215973706  0.988092702137123  1.0000
  H   H813      1.0  0.19725312710347695  0.22619700219545055  0.031196907417229358  1.0000
  H   H814      1.0  0.17506699443667997  0.22786237482405616  0.9895950038316339  1.0000
  H   H815      1.0  0.2496676457795254  0.22569827932868675  0.9813940046467414  1.0000
  H   H816      1.0  0.24317834844707073  0.24354654939912185  0.025369600682879634  1.0000
  H   H817      1.0  0.25401245574716524  0.25914616476363994  0.9799819893354487  1.0000
  H   H818      1.0  0.2175551370256785  0.22858738816155888  0.924787641932757  1.0000
  H   H819      1.0  0.2236942527171038  0.2617306701478576  0.9225609245149807  1.0000
  H   H820      1.0  0.18976546146518639  0.2501948199512818  0.9271359104779404  1.0000
  N   N48       1.0  0.49830777798494297  0.23073729537753077  0.6241600114333419  1.0000
  C   C573      1.0  0.5107750946216202  0.2558342888472519  0.6219522672041553  1.0000
  C   C574      1.0  0.4751611722796926  0.23116644451107296  0.6525814968936479  1.0000
  C   C575      1.0  0.5185181294314883  0.21208341200540518  0.6378206416612378  1.0000
  C   C576      1.0  0.4888847285322289  0.22380585273850437  0.5843227197481972  1.0000
  H   H821      1.0  0.52861407727882  0.2560907421132577  0.6013318490087325  1.0000
  H   H822      1.0  0.5177023650049986  0.2617401753539379  0.6517340258141477  1.0000
  H   H823      1.0  0.49642002646973454  0.270424316215596  0.6108280209687283  1.0000
  H   H824      1.0  0.4651209850876628  0.21257301658040023  0.6548180531814864  1.0000
  H   H825      1.0  0.4816113813268939  0.23596621109086788  0.6831278068602666  1.0000
  H   H826      1.0  0.45964874204192574  0.24525083314778384  0.6434443648016912  1.0000
  H   H827      1.0  0.5362149592761103  0.21120566876875782  0.6169681120296561  1.0000
  H   H828      1.0  0.5098932886192196  0.19292367253409765  0.6395672664103113  1.0000
  H   H829      1.0  0.5260228733529816  0.21657121375526844  0.6679198321562075  1.0000
  H   H830      1.0  0.5059826849219197  0.22226980524807974  0.5625703037056545  1.0000
  H   H831      1.0  0.47439597297719144  0.2379201609573941  0.5721709854115514  1.0000
  H   H832      1.0  0.4787900254340699  0.20522185067838558  0.5851674076606783  1.0000
  N   N49       1.0  0.3595875469846105  0.5089467141608096  0.23064337673180843  1.0000
  C   C577      1.0  0.375275952258556  0.5093595116690705  0.1927436391822916  1.0000
  C   C578      1.0  0.3770615717803019  0.5004404793364661  0.26352906228118844  1.0000
  C   C579      1.0  0.3366739298131568  0.4915962699796304  0.22740821059856656  1.0000
  C   C580      1.0  0.34924097003056725  0.5344613914250448  0.23889427729484672  1.0000
  H   H833      1.0  0.39205669784805336  0.5231204614119874  0.19334323585053606  1.0000
  H   H834      1.0  0.36232302238876174  0.5147908499802182  0.16717216544019314  1.0000
  H   H835      1.0  0.3842605373594851  0.4906383147973895  0.18615168700828147  1.0000
  H   H836      1.0  0.3850656232589425  0.4811386758459293  0.2585135597244556  1.0000
  H   H837      1.0  0.39461092625361105  0.5131034593350816  0.26662133668575627  1.0000
  H   H838      1.0  0.36578667454264285  0.5000993793250622  0.29257328934057886  1.0000
  H   H839      1.0  0.32463804408534475  0.49056978605835844  0.2556596559266002  1.0000
  H   H840      1.0  0.3436554239987004  0.472192782373936  0.22065401308241525  1.0000
  H   H841      1.0  0.3227597247652905  0.49779577591473095  0.20338395734286668  1.0000
  H   H842      1.0  0.3374681337987777  0.5349517588676279  0.26742994159022127  1.0000
  H   H843      1.0  0.33572851254304664  0.5412878917465341  0.2148970715577217  1.0000
  H   H844      1.0  0.3659177853738404  0.5481932545809924  0.24096101838484793  1.0000
  N   N50       1.0  0.1012235980278755  0.5630153492852004  0.055842074051154045  1.0000
  C   C581      1.0  0.07651942497499431  0.5700312198103502  0.034095505991369235  1.0000
  C   C582      1.0  0.12508673558190186  0.566684521798805  0.029376198045569124  1.0000
  C   C583      1.0  0.09973463762786317  0.5363735734130162  0.06866176015018155  1.0000
  C   C584      1.0  0.10357218057425288  0.5789144253308253  0.09124200577449049  1.0000
  H   H845      1.0  0.0580068688368498  0.567041890661407  0.05285578240279887  1.0000
  H   H846      1.0  0.0743251437029715  0.558579264136009  0.0069390727770148874  1.0000
  H   H847      1.0  0.0766459069795975  0.5901448365948933  0.02449490793176312  1.0000
  H   H848      1.0  0.144115619833886  0.5615276987621617  0.04475392914738707  1.0000
  H   H849      1.0  0.12408900742659879  0.5548652441796251  0.0024028157577462572  1.0000
  H   H850      1.0  0.12681356078937278  0.5865900194813486  0.01904744493041144  1.0000
  H   H851      1.0  0.08124119817845887  0.5325776447906648  0.08700240524856939  1.0000
  H   H852      1.0  0.11735538442403559  0.5306253875707302  0.08675232134028166  1.0000
  H   H853      1.0  0.09931772864352717  0.5237675772640658  0.042633820194939887  1.0000
  H   H854      1.0  0.10449447654204236  0.5992210703751153  0.08269818959130903  1.0000
  H   H855      1.0  0.12210576749513846  0.574169185371807  0.10812320116727014  1.0000
  H   H856      1.0  0.08595828086497459  0.5764857073596075  0.11196379147505375  1.0000
  N   N51       1.0  0.7244357056517146  0.40191317270506854  0.2086408774905351  1.0000
  C   C585      1.0  0.7471557546860456  0.3837818735722198  0.2071145640904426  1.0000
  C   C586      1.0  0.708689557067751  0.40013357166121577  0.17184023804608917  1.0000
  C   C587      1.0  0.7347800939261552  0.4277206239713026  0.21204690899733936  1.0000
  C   C588      1.0  0.7069888385890533  0.395937091569681  0.24360601360422562  1.0000
  H   H857      1.0  0.7593221341714909  0.38437210062446414  0.2346043209613525  1.0000
  H   H858      1.0  0.7608404990430206  0.38767797146953903  0.1811494599838661  1.0000
  H   H859      1.0  0.7397423136189979  0.36416726950702105  0.2043575559276085  1.0000
  H   H860      1.0  0.6915144935733144  0.4137267865356574  0.17176055069195417  1.0000
  H   H861      1.0  0.7213230716937358  0.4041686379998366  0.14480770066065654  1.0000
  H   H862      1.0  0.7001985552676754  0.3809803948620385  0.16867614509513373  1.0000
  H   H863      1.0  0.7179664031840195  0.4417274735837077  0.21377340622439375  1.0000
  H   H864      1.0  0.7477606105714569  0.4330817040707821  0.1859297416570634  1.0000
  H   H865      1.0  0.7468804969008519  0.4297534055202916  0.2393817699222685  1.0000
  H   H866      1.0  0.6891699660280253  0.40864509064476295  0.24493552679432792  1.0000
  H   H867      1.0  0.7178747182507066  0.3978412154955974  0.2720561959139205  1.0000
  H   H868      1.0  0.6993457607777938  0.37640246017132034  0.24264381364706805  1.0000
  N   N52       1.0  0.22103348369384934  0.2580106843123213  0.24774093245675471  1.0000
  C   C589      1.0  0.2221269708976548  0.27238319451140836  0.20970392846084038  1.0000
  C   C590      1.0  0.24869518559849865  0.2539889997647653  0.26234880973877195  1.0000
  C   C591      1.0  0.20820270588098988  0.2335100927597392  0.24129045752061687  1.0000
  C   C592      1.0  0.20508551841038888  0.2721994078429251  0.2775480913719961  1.0000
  H   H869      1.0  0.20162782452037753  0.27515516068988477  0.19728523854341484  1.0000
  H   H870      1.0  0.23450028625448602  0.2623943379810107  0.18684537897147555  1.0000
  H   H871      1.0  0.23104117156311935  0.291243905572017  0.21352878981533802  1.0000
  H   H872      1.0  0.2485331936726282  0.24390138057807315  0.2916004920617088  1.0000
  H   H873      1.0  0.2611698909161619  0.24274122795294623  0.24120362122197633  1.0000
  H   H874      1.0  0.25904282772359544  0.27211930267510404  0.26705361220945684  1.0000
  H   H875      1.0  0.20657953829299447  0.2222403511743063  0.26947365282300056  1.0000
  H   H876      1.0  0.21975415455984823  0.22217235293530033  0.21913565081891515  1.0000
  H   H877      1.0  0.18740529788174926  0.23601399531349773  0.2299594475934063  1.0000
  H   H878      1.0  0.20277979678689795  0.26129068007372225  0.3060366014792121  1.0000
  H   H879      1.0  0.1845003923466811  0.27670630629962384  0.2667085702862003  1.0000
  H   H880      1.0  0.2149293185413505  0.29016629158216095  0.28493914292086664  1.0000
  N   N53       1.0  0.4977971441648944  0.8986491179189241  0.1257502288074568  1.0000
  C   C593      1.0  0.4746428396042873  0.9138001341955038  0.14038061885395825  1.0000
  C   C594      1.0  0.48959170913780636  0.8722275621580413  0.12167742582545937  1.0000
  C   C595      1.0  0.5199797179659126  0.8998982799112628  0.15442746416617315  1.0000
  C   C596      1.0  0.5070795482099469  0.9085878021905791  0.08648821863516187  1.0000
  H   H881      1.0  0.4578326014153245  0.9141451676691047  0.11885117223697095  1.0000
  H   H882      1.0  0.48047005639506446  0.9336317012547781  0.14510890044758207  1.0000
  H   H883      1.0  0.4666401999359797  0.9064207824281282  0.1694312993364464  1.0000
  H   H884      1.0  0.47278116779950596  0.8705472433454503  0.10040992547026328  1.0000
  H   H885      1.0  0.5066914665548184  0.860420862729413  0.11035596570337458  1.0000
  H   H886      1.0  0.4828207402218089  0.8639429460308315  0.15080013631631717  1.0000
  H   H887      1.0  0.5374668130213222  0.8881260265110205  0.14484926085971672  1.0000
  H   H888      1.0  0.5135463935569299  0.8932040889875393  0.18467788304508503  1.0000
  H   H889      1.0  0.5273426742445712  0.9194131219305841  0.15738374374673647  1.0000
  H   H890      1.0  0.5133849518015149  0.9284726333262033  0.08828264019208842  1.0000
  H   H891      1.0  0.4909038741253402  0.9078044001082688  0.06403240211250827  1.0000
  H   H892      1.0  0.5247063290440107  0.897704014934156  0.07476819704725801  1.0000
  N   N54       1.0  0.7420278899248404  0.9902448109223692  0.23468115073570717  1.0000
  C   C597      1.0  0.7595124474865231  0.9753269156016234  0.26151449631332896  1.0000
  C   C598      1.0  0.7203963244544388  0.00267807159372202  0.2581484548132357  1.0000
  C   C599      1.0  0.7298258184159996  0.9734776849686304  0.20553786874615698  1.0000
  C   C600      1.0  0.7583558450025664  0.009491659985908285  0.21339293872341022  1.0000
  H   H893      1.0  0.7761457686438745  0.9658995696809363  0.24463734385099672  1.0000
  H   H894      1.0  0.7479327216589946  0.9604148955401435  0.2776052986269165  1.0000
  H   H895      1.0  0.7687117613530677  0.9872376889704356  0.2844344920433253  1.0000
  H   H896      1.0  0.7287692421182188  0.014738044748184853  0.2815550708578584  1.0000
  H   H897      1.0  0.7073623928876599  0.014636263882580769  0.23879174422403754  1.0000
  H   H898      1.0  0.707082339650858  0.9886902529037944  0.27341022977160967  1.0000
  H   H899      1.0  0.7164067274594286  0.9841141700259594  0.1848936723491491  1.0000
  H   H900      1.0  0.7175147078214655  0.9585617523218091  0.22046120305362274  1.0000
  H   H901      1.0  0.7455364655915699  0.9640548158302817  0.18680767415629768  1.0000
  H   H902      1.0  0.7458598825558918  0.020956342838439834  0.19251174761521797  1.0000
  H   H903      1.0  0.7747368773119909  0.0007499620708248944  0.19501732781427716  1.0000
  H   H904      1.0  0.7678770625805659  0.022508814111003028  0.2343967917673582  1.0000
  N   N55       1.0  0.05131884735772951  0.7933311877762331  0.31799461069528845  1.0000
  C   C601      1.0  0.02743038487787719  0.8009280022424708  0.29483486478272447  1.0000
  C   C602      1.0  0.04334293290245883  0.774603206536089  0.3489305885075189  1.0000
  C   C603      1.0  0.06251205003324634  0.8156043734143603  0.3372173115635067  1.0000
  C   C604      1.0  0.07192630569845981  0.7822068601245503  0.2910499558186475  1.0000
  H   H905      1.0  0.032610839175799544  0.8153221991338604  0.27156630904877077  1.0000
  H   H906      1.0  0.011236311255775844  0.8088781860523173  0.31441967494069223  1.0000
  H   H907      1.0  0.018822189330676142  0.7846872868238167  0.27919871405324  1.0000
  H   H908      1.0  0.06096660737221016  0.7678620325982033  0.36628136790387145  1.0000
  H   H909      1.0  0.028445894133388716  0.7825979665172376  0.3704944295257058  1.0000
  H   H910      1.0  0.03391023793877346  0.7579439948172079  0.3356100218291139  1.0000
  H   H911      1.0  0.08019381655795899  0.8104986094702133  0.3557260364266515  1.0000
  H   H912      1.0  0.04728113299406611  0.8246520615147797  0.35727255763736343  1.0000
  H   H913      1.0  0.06911628868509334  0.8299842149764479  0.3147280628350261  1.0000
  H   H914      1.0  0.090546601800358  0.7768308563024686  0.30724741404442063  1.0000
  H   H915      1.0  0.07773736004891352  0.7954454182207533  0.26637849759170756  1.0000
  H   H916      1.0  0.0643704147718489  0.7649276600805177  0.2770186321967756  1.0000
  N   N56       1.0  0.7300478732894999  0.16782812017241386  0.07850110741207694  1.0000
  C   C605      1.0  0.7244650221208593  0.17926852079669958  0.039017096028191034  1.0000
  C   C606      1.0  0.7043251138180071  0.16366699160037515  0.1004482836815277  1.0000
  C   C607      1.0  0.7470420235514535  0.1849292633850958  0.10122738811995902  1.0000
  C   C608      1.0  0.7442769743612035  0.14354945064845226  0.07331571375691559  1.0000
  H   H917      1.0  0.7433733445428856  0.182560617763127  0.021448028906879024  1.0000
  H   H918      1.0  0.7138013136957629  0.19767287291426616  0.0419184459735471  1.0000
  H   H919      1.0  0.711455097817313  0.16701906393047825  0.02121327913021842  1.0000
  H   H920      1.0  0.6906332821498703  0.1513868212632699  0.08372886555178494  1.0000
  H   H921      1.0  0.7076097139441891  0.15461009527198294  0.13008972672195518  1.0000
  H   H922      1.0  0.6934181527170207  0.1817143997772872  0.1055277619744237  1.0000
  H   H923      1.0  0.7514738389392495  0.17701689371669224  0.13133734590350965  1.0000
  H   H924      1.0  0.7368485820503434  0.20347629902047393  0.10546936557527542  1.0000
  H   H925      1.0  0.7666442413080476  0.1884644358046978  0.08555995320808063  1.0000
  H   H926      1.0  0.7317119808234711  0.13007102171135748  0.057103144848125176  1.0000
  H   H927      1.0  0.7493177279873575  0.13458435608525954  0.10248455372702447  1.0000
  H   H928      1.0  0.7634552418413602  0.14580343957719535  0.05590623093635183  1.0000
  N   N57       1.0  0.9095740470772317  0.9551193233666814  0.6524848722784496  1.0000
  C   C609      1.0  0.89914077697917  0.9809202706593957  0.6460037509810926  1.0000
  C   C610      1.0  0.8931187041221957  0.9374336170966304  0.6300179861468846  1.0000
  C   C611      1.0  0.9080493882608036  0.9486135939083592  0.6954742628783259  1.0000
  C   C612      1.0  0.9379521192360601  0.9534735088045926  0.6384099319061642  1.0000
  H   H929      1.0  0.8779426505240434  0.9827708573738361  0.6571677390788945  1.0000
  H   H930      1.0  0.8993137989646219  0.9861710212096765  0.6137229408690312  1.0000
  H   H931      1.0  0.9113829448119375  0.9949254776784703  0.6616621015104024  1.0000
  H   H932      1.0  0.8717907569111927  0.9373878201010557  0.6409452464237992  1.0000
  H   H933      1.0  0.8929358823332151  0.9424701827053443  0.5977132989442605  1.0000
  H   H934      1.0  0.9010999613796056  0.9179373161676398  0.6326962958511898  1.0000
  H   H935      1.0  0.9184175264877338  0.9627173426079972  0.7136545217057688  1.0000
  H   H936      1.0  0.9177846893501634  0.9301393630181353  0.7017968161026372  1.0000
  H   H937      1.0  0.8867693546290709  0.9474568069973411  0.7064724036156558  1.0000
  H   H938      1.0  0.9510405696846972  0.9663920255733527  0.6548914706174798  1.0000
  H   H939      1.0  0.9399105256592846  0.9584140702090742  0.6061501582011978  1.0000
  H   H940      1.0  0.9462062172803334  0.9340660460386383  0.6424239073309046  1.0000
  N   N58       1.0  0.27801313967152896  0.34076682932961416  0.5596312612350015  1.0000
  C   C613      1.0  0.2710495002056033  0.34907232031485674  0.518839466029863  1.0000
  C   C614      1.0  0.2935450525734568  0.360569728899833  0.57895895742326  1.0000
  C   C615      1.0  0.2944545423658114  0.3175192724799851  0.5576202885852658  1.0000
  C   C616      1.0  0.25301372694693053  0.33593072668044044  0.5830417401690832  1.0000
  H   H941      1.0  0.2594013874050847  0.33451886705360884  0.5032991196984609  1.0000
  H   H942      1.0  0.2895047849677695  0.35274957716961475  0.5004776912293207  1.0000
  H   H943      1.0  0.2588416299049761  0.3667208811321938  0.5190395304734662  1.0000
  H   H944      1.0  0.2816728002354497  0.37834736329981683  0.5810596939825626  1.0000
  H   H945      1.0  0.29918879069459897  0.3548692220551883  0.6097897603833402  1.0000
  H   H946      1.0  0.3124289094589525  0.3649073109531648  0.5619282917081467  1.0000
  H   H947      1.0  0.3133258561661951  0.320478015353024  0.5397453491752034  1.0000
  H   H948      1.0  0.28318334614579566  0.3021333058094017  0.5435212427979871  1.0000
  H   H949      1.0  0.3001223957553273  0.31068106998493833  0.587900716402762  1.0000
  H   H950      1.0  0.2575370159691475  0.32983371539937345  0.6141604696581255  1.0000
  H   H951      1.0  0.24102476844475434  0.3206875572150726  0.5698191713835172  1.0000
  H   H952      1.0  0.23998679203755896  0.35301322278723685  0.5846924426297485  1.0000
  N   N59       1.0  0.23909895903491668  0.4730239124120138  0.4264582589639465  1.0000
  C   C617      1.0  0.21054401993107466  0.48050907532947446  0.4219594726990141  1.0000
  C   C618      1.0  0.2566432656362993  0.4929727133353727  0.40962702228340714  1.0000
  C   C619      1.0  0.24428443285036885  0.44940509221302394  0.4050465037145773  1.0000
  C   C620      1.0  0.24497607852525086  0.46918644136943727  0.4691497810663252  1.0000
  H   H953      1.0  0.19678302156223101  0.46587471952900406  0.4345579683304133  1.0000
  H   H954      1.0  0.20551965004433279  0.4833999066032785  0.38997181477161375  1.0000
  H   H955      1.0  0.20594551724148796  0.49837333105995285  0.4374998587225945  1.0000
  H   H956      1.0  0.2783502943441832  0.48773867736366366  0.41199062180332713  1.0000
  H   H957      1.0  0.25259470578833654  0.49655200978637076  0.377536871430532  1.0000
  H   H958      1.0  0.25360129746876503  0.5110515802148633  0.425242257904819  1.0000
  H   H959      1.0  0.26559355491351866  0.44316575209824  0.4078846606212627  1.0000
  H   H960      1.0  0.24050707741457342  0.45160880367497214  0.3725465002347449  1.0000
  H   H961      1.0  0.23148053889156558  0.4338342419790576  0.4168843559309719  1.0000
  H   H962      1.0  0.26654351711322527  0.46403800595475003  0.4735471804750225  1.0000
  H   H963      1.0  0.23273515770573158  0.45371688745902977  0.48272106958548405  1.0000
  H   H964      1.0  0.24082563187457845  0.48641807893340205  0.4865154758199895  1.0000
  N   N60       1.0  0.8426745786669442  0.7884243134356366  0.4748106092132984  1.0000
  C   C621      1.0  0.863421299141291  0.8045623346546575  0.4919066479036822  1.0000
  C   C622      1.0  0.8558631835628531  0.766323893873328  0.456622994297314  1.0000
  C   C623      1.0  0.8277250837683323  0.8027756404739612  0.44406108149130635  1.0000
  C   C624      1.0  0.8237726282432317  0.7799242506392096  0.5066416496995626  1.0000
  H   H965      1.0  0.8542262862320849  0.8214260888868578  0.5059689756371656  1.0000
  H   H966      1.0  0.8781311926009566  0.8110606167899747  0.4685552038057753  1.0000
  H   H967      1.0  0.8751137429733526  0.7942375653331046  0.5151452960295728  1.0000
  H   H968      1.0  0.8409912995973523  0.7538435273085154  0.44264694755346956  1.0000
  H   H969      1.0  0.8704439061193845  0.7721046091955213  0.4328185318035427  1.0000
  H   H970      1.0  0.8671867635217514  0.7549462094089769  0.47902298589114367  1.0000
  H   H971      1.0  0.8125228450595329  0.790896448235699  0.4295022246999114  1.0000
  H   H972      1.0  0.8415384473048028  0.8100813488530881  0.42012181520271613  1.0000
  H   H973      1.0  0.8167154639972485  0.819141762594738  0.45685018206101036  1.0000
  H   H974      1.0  0.8082202144797841  0.7674438734490735  0.49454279803296647  1.0000
  H   H975      1.0  0.8130487268653617  0.7959783065600649  0.5208853058230668  1.0000
  H   H976      1.0  0.8343402291194207  0.7690818218930464  0.5304563634327925  1.0000
  N   N61       1.0  0.47928424166933736  0.49308372575581993  0.9091683303946089  1.0000
  C   C625      1.0  0.45004841664867345  0.4934723719104874  0.9185704436819745  1.0000
  C   C626      1.0  0.4836535998350203  0.5004291692301084  0.8669033885283811  1.0000
  C   C627      1.0  0.4902342182017622  0.467499329473131  0.9160956892569048  1.0000
  C   C628      1.0  0.4931459353346395  0.5108799572884113  0.9350234497448853  1.0000
  H   H977      1.0  0.4459972626809665  0.48866692540938284  0.9504261678356187  1.0000
  H   H978      1.0  0.4390113964016681  0.47975358065206736  0.9004120156164563  1.0000
  H   H979      1.0  0.44101558367937055  0.5123651713464934  0.9130073274968554  1.0000
  H   H980      1.0  0.5054722755781541  0.500213651617439  0.8585848299357655  1.0000
  H   H981      1.0  0.4733262714500007  0.4872943029028282  0.8468310504783162  1.0000
  H   H982      1.0  0.4756423636909688  0.5196404126762607  0.8605698576937009  1.0000
  H   H983      1.0  0.4788503780567439  0.45326629238757143  0.8994742097582071  1.0000
  H   H984      1.0  0.4891360361987739  0.4620252881845328  0.948152256621806  1.0000
  H   H985      1.0  0.5117947803444829  0.46602383700911526  0.9066748897769228  1.0000
  H   H986      1.0  0.4902832777696169  0.5056996636066792  0.9671468122127101  1.0000
  H   H987      1.0  0.48519571690360525  0.5303519366881007  0.9310716340371868  1.0000
  H   H988      1.0  0.5152453665296997  0.5111431462592438  0.9287458929154547  1.0000
  N   N62       1.0  0.7459917374559774  0.010695055573502144  0.8974149378301529  1.0000
  C   C629      1.0  0.7708536541651587  0.9997590293814588  0.9143804241932206  1.0000
  C   C630      1.0  0.7325468877065224  0.026890995706150056  0.9272530487968215  1.0000
  C   C631      1.0  0.7276939015727788  0.990275636931443  0.8865021053224008  1.0000
  C   C632      1.0  0.7529730143864467  0.02589371164742471  0.861490676005786  1.0000
  H   H989      1.0  0.7819892329670387  0.9879734536342341  0.8923804599952114  1.0000
  H   H990      1.0  0.7664412879888228  0.9878317637478227  0.9412276928079614  1.0000
  H   H991      1.0  0.784863269459663  0.01466955560573835  0.9235575674392607  1.0000
  H   H992      1.0  0.7136046264597757  0.035379610281057294  0.9156993422449519  1.0000
  H   H993      1.0  0.7273563053525048  0.01618669034893805  0.9551144435538139  1.0000
  H   H994      1.0  0.7457669558901133  0.04269690217559252  0.9356246970740505  1.0000
  H   H995      1.0  0.7372915704125214  0.9777241506717833  0.8640044637499208  1.0000
  H   H996      1.0  0.708785310081374  0.9978149060106454  0.8733304680836491  1.0000
  H   H997      1.0  0.722000142454411  0.9784267826433282  0.9129444544278353  1.0000
  H   H998      1.0  0.7348016030253773  0.034640615431342336  0.847960757102197  1.0000
  H   H999      1.0  0.7630739621117806  0.014280417185111416  0.8382534509526411  1.0000
  H   H1000     1.0  0.767093410416453  0.04127863228464079  0.8684955549860497  1.0000
  N   N63       1.0  0.3396073088677581  0.12548033358417365  0.11944185698221342  1.0000
  C   C633      1.0  0.3341084566954184  0.14563939120499358  0.08978374558543845  1.0000
  C   C634      1.0  0.36905192069107573  0.1221523173422272  0.12351158069762443  1.0000
  C   C635      1.0  0.32772130672422917  0.10180618750615866  0.10599055430817049  1.0000
  C   C636      1.0  0.3275626075145201  0.13228128062668354  0.15845848444505226  1.0000
  H   H1001     1.0  0.3429342534137849  0.14099625857423148  0.0600323514066723  1.0000
  H   H1002     1.0  0.34269735459588424  0.16382279914804232  0.09890422687346871  1.0000
  H   H1003     1.0  0.31202390832368637  0.14856322976331127  0.08598904739045721  1.0000
  H   H1004     1.0  0.37385724105106305  0.10736805399340676  0.14621060297547836  1.0000
  H   H1005     1.0  0.378840948966473  0.116601248294391  0.09484697636453698  1.0000
  H   H1006     1.0  0.37880598806311744  0.139690227165864  0.13321491081239364  1.0000
  H   H1007     1.0  0.33163412215145593  0.0860879445476368  0.1274547767856329  1.0000
  H   H1008     1.0  0.33627871736173937  0.09622460977062164  0.07649647852427632  1.0000
  H   H1009     1.0  0.30545285240303166  0.10369355615301523  0.10281003143502995  1.0000
  H   H1010     1.0  0.3359676216370983  0.15012663787042513  0.16940390672661398  1.0000
  H   H1011     1.0  0.3314797820690725  0.11748769715520724  0.1815499287753593  1.0000
  H   H1012     1.0  0.3053049302418332  0.13480528688754534  0.15670052685079422  1.0000
  N   N64       1.0  0.7869018411708931  0.6320548400144964  0.31343306047893565  1.0000
  C   C637      1.0  0.7671503315133555  0.6529555556104268  0.31525274669922004  1.0000
  C   C638      1.0  0.7725156136968414  0.6078795456604567  0.31439142162927  1.0000
  C   C639      1.0  0.804825751138693  0.6330976011112651  0.34804552696808855  1.0000
  C   C640      1.0  0.8031117817717423  0.6343005411527433  0.27618497904814415  1.0000
  H   H1013     1.0  0.7772594656705353  0.6715158323893318  0.31290741635906744  1.0000
  H   H1014     1.0  0.7556025802752874  0.6525464898996312  0.343934889205851  1.0000
  H   H1015     1.0  0.7523054055855014  0.6520336367901732  0.29082878269033524  1.0000
  H   H1016     1.0  0.7867941840937358  0.5916908287079443  0.3123102522173777  1.0000
  H   H1017     1.0  0.7605684164306974  0.6054261591541891  0.3425150928606624  1.0000
  H   H1018     1.0  0.7584016747936521  0.6065365197833815  0.28910487396823314  1.0000
  H   H1019     1.0  0.8198409577579293  0.6174543679187559  0.3477853555126686  1.0000
  H   H1020     1.0  0.7931062695868003  0.631771758400429  0.3766367090686908  1.0000
  H   H1021     1.0  0.8161296638261731  0.651037136147765  0.34818324093452685  1.0000
  H   H1022     1.0  0.8183695365723344  0.6189002409696279  0.2739567885110585  1.0000
  H   H1023     1.0  0.8140061169715059  0.6524904191339337  0.2744073774635738  1.0000
  H   H1024     1.0  0.790189118334868  0.6331629021072055  0.2495242938384772  1.0000
