data_image0
_chemical_formula_structural       FeS2H3NH2FeS2FeS2FeSFeS2HC2H2C4H3CH2C6H6CH3C2NCHC2HCH2SH3CNC3H7CH7C2H2C2H2SH5NCHCSNHCHCSC2FeH2CNCHFeSHCFeS2FeS2FeSFeS3FeS2FeS2FeSFeS3C6H4CHC6H5C2NHCHC6H2CH5C6H8C2H4NCH3SHCH2CHCHNC4H12CHC2SH2C2H3CH2SH3CHCSHSCHCFeH5SH2CHC2H4CH3CH9CH3CH4CHNSH3NS2FeSCFeS2H4NH3SH2FeH2FeC3H2SFeS2FeS2FeSFeS3FeS2FeS2FeSFeS4H2CHCH2C6H4C3H5C2HC3HCH2CHC6H4CHC2H3FeCH4C6H4C6H4C2H2NC4H12NHCHSHC4H2CH4CH2FeSHNC2H3CHNC4H13CH2NH2C3HNHSH2SHCH5C4H5CH7C2H2S2CSFeSCSHC4H4CNC5H4CHC4HNH4Fe2HCHSFeH2CHCFeH3SH2FeHCH2S2HCH2CH6NH3CH2FeS2FeSFeS3H3CHSHSH2NHFeS2FeS2FeSFeS3HC6H4C6H5SH5C6H4CHFeCHCH4CHCHC6H4CH2NCH2CHCHCHFeHCHC2HC2HC3HCH3NCH5SH3CHCNH2CH7C2NHCHSHC3H3SCS2FeS2FeSFeSFeS3FeS2FeS2FeSFeS3CFeSH2C6H4C5H2C6H4CSC6H4C4HCH2CHSH3C6H4CH3C2FeHCSH2NSHCH8CHCHCH3C2H2CNHCSC3HSH4CH3FeCHCH3SNC4H16FeNHC2H2CH5NSHCHC3NH2FeHSCSH4FeHFeCHCH4CH3CH3NC2FeCHNCH4SFeH3SHCHC3H5CHSH2CH4SHFeSHCHCFeSHFeS2Fe2S3FeS2FeS2FeCFeS3HS2H3FeS2FeSFeSFeS3H4C4H2CHC6H4C6H6N2C2H4C6H5C4H2CHC6H4CHNCH2CH2SHCH3C2HCH4NH5FeCHCH2NH2C2HNC4H11CSHCNCH4CH3SCHSHCH5CH3C2H2CHCH5C2H2CNHC3HNHFeH3SH3CH2C2H3C2H8S2HFeSC2H4FeSHSHFeS2FeS2FeSFeS3CHFeC3FeHC6H4SHSH4CH2SFeHCH3CHC6H4CHC4H4CHCH3SFeHCH6C3NSC2NHNH2SCHCH2CH2C5HSH3NC3H2CH2SH10CHFeSFeS2FeSFeS3H3SFeS2FeS2FeHFeS3FeS2FeS2FeSFeS3C3H2Fe2C6H4C6H4CSCHC3HNH4CHSNSC7H4C6H4C4HCH2C3H3CH3CHSHFeH5CNCHCH5CHSH5C2H4CHNH5CH2C5NC4H12NC4H6CH2CH2CHCH5SH2C2H2CFeH5CH2SHCH3SH2C3H3SCFeSCFeSFeSHSFeC2FeS2FeSFeS3H2CHC2H2CH2C4H3CHC2HC3HSH2C7H4CH2CFeC2HNCHCNCHC2HSH3CH3SH2CH5FeC2H2SCHNHCHCH3CNH5C2HCHC2H2SH3FeNCH4CH2S2CH5CHCSH2FeH3SCH4CH3NCH3CHCH4SH2FeS2FeSHFeHFeS3FeS2FeS2FeSFeS2H2CHCH4C4H6C2HCH3C6H4SH5CSC6HCH3CH3SC2HSNC3H3CH8CH2CNCSCS2HSC4HCH2CHFeH2CH2SH2CFeCHSCH6C3FeHCHCHNHCH4NHSH4SCHC2HCHCHFeS2FeS2FeSFeS3HFeS2Fe2SHSFeHCHCFeCHFeNSFeSFeCS4FeCFeSFeHSHSH2CHSC7HFeH8CH2CH2C6H4C4HCHNHC6H4C6H4C4H3C4HCH2CHSH2CSH4SCH2CH2NH4CNC2HNC4H11SFeSH2CSNH2CFeC2H3NC4H6SC2SH2CHSCH2CHFeHCH2C2HSHSC2FeHSC4HFeH4CHC2H2CH2SH3CSHCH5SHSH2C2H2C2H2SH2NH4CSHCHC2H2CHC2H2SCH5CH2FeH2SH2CHCH2NC2H8NH2CH4C2NH3FeS2FeSFeS2HCH2CFeS2FeSHFeSFeS3FeS2FeS2FeSFeHS2CHCH2SHC2HC7H3C2H2C3HCNHCSCH3C7H5C9H4C6H8SHCSH2SH5CFeCNC2H3SHCHCH2CSCHNC4H13CSHCHFeCSH3SH2SFeHCH2CFeCSH2C2HCH4NCH6CHC2HCH3C3H4NSHFeNHCSH3CHCSH2FeHCH3NH3C2H4CHSHCNCH2CSH3C2H2CH2FeSC2H2CFeCSNHSHC3HSH14C2HS2CFeSFeCHCH2SHSH3CHFeHSC5H4C2NHCH2CFeNFeHSCH2CH2S2CH6C2H4C7H3CH3CH2C2HCH3CH4CH2CHCH2NH4C2SC2H2CSCHCSH2CHFeSCFeS2FeSFeS3H4SHSHCHCHSH3CH2CH3C2FeSFe2S2FeS2FeSHSCSC6HCH2C2HC3HC3NHCSH4C6H5C3H4SH2CH3C7H4C6H4CNC4H2FeSH4CHSCNC4H14CH4CHCHCSHCHCHNSC2H3CNH2CH2C2NHSH8C2H2NHCNC2FeC2FeHCHCH2SCFeH2CHS2HCSCH4FeSNSH2SH4CSHCHFeHSC3H3CHCHSH2SH4CFeCH2CH2CH5CHCSFeHCH2CHFeH2CHNSHCHCHSHCH2SCFeS2FeSFeHSHFeS2FeS2FeSHS2HC4H2CNH3CFeH3SHC2H4C2H2C6H5NC2H3CNHCH4C2HCHC2H2CHCH2CH2CH3NSH7CH2C2FeH6SCHCHCNH2C2FeSFeS2FeSFeS3HSHSFeS2FeS2FeSFeS3HSHFeS2FeSHFeSHFeSFeS3C2FeH6C3HSC6H4C6H4C6H2FeHSFeH5C6H3CFeHCHC6H4SHCH3NC4H2SHN2CH4CSH2CHNC4H13C2H3SC3H2C2HC3H2C2H5C2HCNH3CHCNCH3SC2H2CH2SH3CHNHSFeH3NCHC2HCH4CSH2CH2FeH8CH2CHC2H8SHCH2CH2CHCNSHC2HCHFeHCFeS2FeSFeS3C2H3FeS2FeSHFeSFeS3FeS2FeS2FeHFeS3HC6H4C6H5C6H4C4H3CHC2HCSC4HNSH4C2H2CHCH4CHSC2HNC2FeHNH3CHC2HCH13SHCNH4CHC3H2CSHNH3CH2SH5CH2CHNC4H11CH2C2H3C2H2NH2CH3SH5FeHCH3SHCH2C2SFeCSFeHSFe2H2S2FeS2FeS2H2NH3SHC6H4C4HC2HCH2CH3CFeCHSCHC5H3SNH9C2HCSH2CH4CH3SFeS2FeHFeS2FeS2FeS2FeSFeS3H3SCH2CH2FeS2H2FeS2HSHCH4C5SCH3C7H4C6H2CHC3H2CHC2HC6H4CH5SHNH5CH3CH7CH2NHC3H5CH5CFeH2FeN3CFeSHCH6C2HCH3CH2CHCFeSH2CH5SNH2CH2CHFeSHFeSHFe2S3NCHSCH2CH3CH3CHCHFeS2FeS2FeS2FeS2FeSFeS3FeHSFeCHSHC6H4NHC4H2C7H7C5H5C3HNH4NC6H4SCH7FeH3CH6SHC4HNC3H9CFeH2C2H2SHCH6NHCH4CH2SHSHCHC2NH6C2SHCH4CHCH2CSH2CH3SFeS2FeSHFeSFeHS2FeS2FeSHFeSFeS3H2FeS2FeS2FeSFeHS2C2H2CHC4HCHCH2CHCH2NC6H4C7H4CH2CH4CH6CH4C3HNCH3CHCH3CSH5CHC2H2N2C2H4CHNC4H10CH6C3H4C3H3NHCH2SCH3C2SHCHNSHSFeHCFeS2FeSC2S2FeS2FeS2Fe2S3CHC6H4NH2C4H3CSCH4SHFeCHC2H3C6H4C3HCH5CFeNHSC5FeCH4CHCH12CHCH2CNC4H12NC2H3CH3SH6NCSHS2H3CH4CHCHFeH3FeHCHCH2SH
_chemical_formula_sum              "Fe288 S576 H2304 N144 C1440"
_cell_length_a       68.2231
_cell_length_b       67.7804
_cell_length_c       69.931
_cell_angle_alpha    79.2782
_cell_angle_beta     78.9508
_cell_angle_gamma    79.2798

_space_group_name_H-M_alt    "P 1"
_space_group_IT_number       1

loop_
  _space_group_symop_operation_xyz
  'x, y, z'

loop_
  _atom_site_type_symbol
  _atom_site_label
  _atom_site_symmetry_multiplicity
  _atom_site_fract_x
  _atom_site_fract_y
  _atom_site_fract_z
  _atom_site_occupancy
  Fe  Fe1       1.0  0.30886  0.35015  0.03706  1.0000
  S   S1        1.0  0.30834  0.31698  0.03783  1.0000
  S   S2        1.0  0.28093  0.37386  0.03923  1.0000
  H   H1        1.0  0.29616  0.41706  0.09613  1.0000
  H   H2        1.0  0.17134  0.32832  0.20392  1.0000
  H   H3        1.0  0.28757  0.46355  0.08608  1.0000
  N   N1        1.0  0.26059  0.34483  0.00192  1.0000
  H   H4        1.0  0.32346  0.13691  0.19270  1.0000
  H   H5        1.0  0.13390  0.44085  0.14045  1.0000
  Fe  Fe2       1.0  0.18062  0.42597  0.16327  1.0000
  S   S3        1.0  0.21421  0.42573  0.15541  1.0000
  S   S4        1.0  0.16413  0.42061  0.19467  1.0000
  Fe  Fe3       1.0  0.17420  0.43796  0.12091  1.0000
  S   S5        1.0  0.20708  0.43792  0.10922  1.0000
  S   S6        1.0  0.15196  0.44471  0.09977  1.0000
  Fe  Fe4       1.0  0.21213  0.40942  0.13087  1.0000
  S   S7        1.0  0.23575  0.38193  0.12599  1.0000
  Fe  Fe5       1.0  0.20680  0.45436  0.13432  1.0000
  S   S8        1.0  0.17909  0.40764  0.14016  1.0000
  S   S9        1.0  0.17341  0.45636  0.14463  1.0000
  H   H6        1.0  0.26874  0.46759  0.10736  1.0000
  C   C1        1.0  0.14858  0.40155  0.20199  1.0000
  C   C2        1.0  0.15822  0.32075  0.21167  1.0000
  H   H7        1.0  0.12547  0.46974  0.16014  1.0000
  H   H8        1.0  0.25085  0.41828  0.11352  1.0000
  C   C3        1.0  0.13294  0.37508  0.19456  1.0000
  C   C4        1.0  0.14666  0.38899  0.18892  1.0000
  C   C5        1.0  0.25504  0.34121  0.02365  1.0000
  C   C6        1.0  0.13744  0.46911  0.09829  1.0000
  H   H9        1.0  0.13136  0.36562  0.18424  1.0000
  H   H10       1.0  0.15561  0.39002  0.17440  1.0000
  H   H11       1.0  0.26864  0.33788  0.03097  1.0000
  C   C7        1.0  0.25943  0.42987  0.11566  1.0000
  H   H12       1.0  0.12174  0.41890  0.14894  1.0000
  H   H13       1.0  0.01929  0.48283  0.98517  1.0000
  C   C8        1.0  0.26841  0.37601  0.06335  1.0000
  C   C9        1.0  0.25128  0.39083  0.06636  1.0000
  C   C10       1.0  0.24104  0.39271  0.08554  1.0000
  C   C11       1.0  0.24792  0.37977  0.10175  1.0000
  C   C12       1.0  0.26504  0.36496  0.09870  1.0000
  C   C13       1.0  0.27529  0.36308  0.07955  1.0000
  H   H14       1.0  0.24583  0.40078  0.05385  1.0000
  H   H15       1.0  0.22764  0.40392  0.08774  1.0000
  H   H16       1.0  0.27037  0.35487  0.11121  1.0000
  H   H17       1.0  0.28840  0.35152  0.07736  1.0000
  H   H18       1.0  0.29120  0.44940  0.10997  1.0000
  H   H19       1.0  0.10190  0.46389  0.13949  1.0000
  C   C14       1.0  0.27383  0.32667  0.99523  1.0000
  H   H20       1.0  0.23178  0.36264  0.99767  1.0000
  H   H21       1.0  0.09487  0.41800  0.17754  1.0000
  H   H22       1.0  0.08761  0.43901  0.19115  1.0000
  C   C15       1.0  0.11819  0.45930  0.17256  1.0000
  C   C16       1.0  0.12691  0.43147  0.15389  1.0000
  N   N2        1.0  0.26948  0.43972  0.09660  1.0000
  C   C17       1.0  0.10056  0.43036  0.18234  1.0000
  H   H23       1.0  0.10603  0.46873  0.18146  1.0000
  C   C18       1.0  0.24205  0.34899  0.99290  1.0000
  C   C19       1.0  0.13714  0.39959  0.22101  1.0000
  H   H24       1.0  0.29635  0.16701  0.19235  1.0000
  C   C20       1.0  0.13461  0.48042  0.11368  1.0000
  H   H25       1.0  0.28578  0.15767  0.21728  1.0000
  H   H26       1.0  0.24851  0.44109  0.12370  1.0000
  S   S10       1.0  0.22521  0.48015  0.12612  1.0000
  H   H27       1.0  0.26220  0.37637  0.00134  1.0000
  H   H28       1.0  0.31309  0.12754  0.21774  1.0000
  H   H29       1.0  0.28571  0.35972  0.00211  1.0000
  C   C21       1.0  0.32352  0.13769  0.20844  1.0000
  N   N3        1.0  0.11016  0.44374  0.16533  1.0000
  C   C22       1.0  0.27142  0.36253  0.99589  1.0000
  C   C23       1.0  0.12792  0.47702  0.08183  1.0000
  C   C24       1.0  0.27977  0.45575  0.10012  1.0000
  H   H30       1.0  0.27697  0.41189  0.08435  1.0000
  H   H31       1.0  0.11148  0.42294  0.19246  1.0000
  H   H32       1.0  0.12985  0.45219  0.18204  1.0000
  H   H33       1.0  0.23348  0.33595  0.99715  1.0000
  H   H34       1.0  0.08223  0.46327  0.16061  1.0000
  H   H35       1.0  0.15877  0.30687  0.20511  1.0000
  H   H36       1.0  0.27046  0.42207  0.12552  1.0000
  C   C25       1.0  0.28437  0.42431  0.08691  1.0000
  H   H37       1.0  0.27539  0.36608  0.97957  1.0000
  H   H38       1.0  0.29227  0.18281  0.21120  1.0000
  H   H39       1.0  0.14428  0.33127  0.20826  1.0000
  H   H40       1.0  0.14185  0.47459  0.12632  1.0000
  H   H41       1.0  0.13009  0.46840  0.06982  1.0000
  H   H42       1.0  0.26123  0.45674  0.06933  1.0000
  H   H43       1.0  0.24623  0.43726  0.08068  1.0000
  C   C26       1.0  0.29711  0.16693  0.20812  1.0000
  C   C27       1.0  0.12142  0.37324  0.21349  1.0000
  H   H44       1.0  0.29209  0.43108  0.07232  1.0000
  H   H45       1.0  0.24661  0.32814  0.02882  1.0000
  C   C28       1.0  0.25423  0.44895  0.08376  1.0000
  C   C29       1.0  0.09508  0.45376  0.15254  1.0000
  H   H46       1.0  0.13908  0.42466  0.16273  1.0000
  H   H47       1.0  0.28818  0.32334  0.00142  1.0000
  S   S11       1.0  0.10495  0.35508  0.22014  1.0000
  H   H48       1.0  0.24550  0.35482  0.02928  1.0000
  H   H49       1.0  0.24256  0.46046  0.09078  1.0000
  H   H50       1.0  0.08884  0.44240  0.14677  1.0000
  H   H51       1.0  0.26636  0.31289  0.99986  1.0000
  H   H52       1.0  0.27808  0.32875  0.97887  1.0000
  N   N4        1.0  0.31766  0.15879  0.21261  1.0000
  C   C30       1.0  0.12365  0.38540  0.22680  1.0000
  H   H53       1.0  0.15638  0.22615  0.47465  1.0000
  C   C31       1.0  0.02336  0.11118  0.46337  1.0000
  S   S12       1.0  0.13442  0.11554  0.44017  1.0000
  N   N5        1.0  0.29486  0.17189  0.35370  1.0000
  H   H54       1.0  0.31396  0.02569  0.34435  1.0000
  C   C32       1.0  0.00533  0.33742  0.27609  1.0000
  H   H55       1.0  0.17690  0.29741  0.25335  1.0000
  C   C33       1.0  0.00968  0.34321  0.25565  1.0000
  S   S13       1.0  0.08700  0.13753  0.47628  1.0000
  C   C34       1.0  0.03968  0.40131  0.35349  1.0000
  C   C35       1.0  0.00402  0.37757  0.30568  1.0000
  Fe  Fe6       1.0  0.99477  0.46696  0.35643  1.0000
  H   H56       1.0  0.03619  0.41479  0.36049  1.0000
  H   H57       1.0  0.07876  0.03031  0.44937  1.0000
  C   C36       1.0  0.00146  0.10523  0.44215  1.0000
  N   N6        1.0  0.01541  0.47122  0.43641  1.0000
  C   C37       1.0  0.12048  0.33496  0.33270  1.0000
  H   H58       1.0  0.12005  0.35129  0.33359  1.0000
  Fe  Fe7       1.0  0.30594  0.13100  0.28494  1.0000
  S   S14       1.0  0.27793  0.15388  0.28081  1.0000
  H   H59       1.0  0.12596  0.31681  0.23986  1.0000
  C   C38       1.0  0.99478  0.48297  0.43786  1.0000
  Fe  Fe8       1.0  0.17360  0.21363  0.39955  1.0000
  S   S15       1.0  0.20269  0.19451  0.40561  1.0000
  S   S16       1.0  0.14365  0.20809  0.41762  1.0000
  Fe  Fe9       1.0  0.19415  0.24138  0.36583  1.0000
  S   S17       1.0  0.22547  0.22446  0.36945  1.0000
  S   S18       1.0  0.18878  0.27008  0.34368  1.0000
  Fe  Fe10      1.0  0.21120  0.19645  0.37284  1.0000
  S   S19       1.0  0.22509  0.16584  0.36391  1.0000
  Fe  Fe11      1.0  0.21423  0.22387  0.40201  1.0000
  S   S20       1.0  0.23290  0.22410  0.42526  1.0000
  S   S21       1.0  0.18077  0.21319  0.36699  1.0000
  S   S22       1.0  0.18436  0.24315  0.39816  1.0000
  Fe  Fe12      1.0  0.08417  0.35449  0.29436  1.0000
  S   S23       1.0  0.07379  0.32457  0.30618  1.0000
  S   S24       1.0  0.08507  0.37618  0.31467  1.0000
  Fe  Fe13      1.0  0.09229  0.34670  0.25230  1.0000
  S   S25       1.0  0.08168  0.31626  0.26081  1.0000
  S   S26       1.0  0.00419  0.39053  0.37520  1.0000
  Fe  Fe14      1.0  0.05641  0.33202  0.28090  1.0000
  S   S27       1.0  0.02419  0.32623  0.29042  1.0000
  Fe  Fe15      1.0  0.09989  0.31181  0.28522  1.0000
  S   S28       1.0  0.11790  0.28111  0.29385  1.0000
  S   S29       1.0  0.06525  0.36298  0.27028  1.0000
  S   S30       1.0  0.11216  0.34113  0.27550  1.0000
  C   C39       1.0  0.16894  0.27316  0.32996  1.0000
  C   C40       1.0  0.16409  0.29171  0.31772  1.0000
  C   C41       1.0  0.14824  0.29451  0.30673  1.0000
  C   C42       1.0  0.13740  0.27863  0.30775  1.0000
  C   C43       1.0  0.14238  0.26010  0.31980  1.0000
  C   C44       1.0  0.15792  0.25745  0.33102  1.0000
  H   H60       1.0  0.17265  0.30389  0.31677  1.0000
  H   H61       1.0  0.14463  0.30879  0.29730  1.0000
  H   H62       1.0  0.13408  0.24775  0.32057  1.0000
  H   H63       1.0  0.16148  0.24315  0.34032  1.0000
  C   C45       1.0  0.21890  0.23009  0.44796  1.0000
  H   H64       1.0  0.19494  0.25043  0.43520  1.0000
  C   C46       1.0  0.26194  0.15723  0.30332  1.0000
  C   C47       1.0  0.26047  0.14085  0.31866  1.0000
  C   C48       1.0  0.24858  0.14370  0.33693  1.0000
  C   C49       1.0  0.23837  0.16302  0.34016  1.0000
  C   C50       1.0  0.23954  0.17946  0.32478  1.0000
  C   C51       1.0  0.25115  0.17649  0.30628  1.0000
  H   H65       1.0  0.26827  0.12587  0.31636  1.0000
  H   H66       1.0  0.24757  0.13090  0.34872  1.0000
  H   H67       1.0  0.23163  0.19442  0.32714  1.0000
  H   H68       1.0  0.25218  0.18922  0.29442  1.0000
  H   H69       1.0  0.07420  0.07448  0.43173  1.0000
  C   C52       1.0  0.31478  0.03271  0.35730  1.0000
  C   C53       1.0  0.31269  0.17682  0.35989  1.0000
  N   N7        1.0  0.11046  0.32413  0.35127  1.0000
  H   H70       1.0  0.08862  0.35059  0.35701  1.0000
  C   C54       1.0  0.02646  0.47597  0.41617  1.0000
  H   H71       1.0  0.11430  0.31646  0.38171  1.0000
  C   C55       1.0  0.00202  0.08511  0.45156  1.0000
  C   C56       1.0  0.02651  0.38694  0.35820  1.0000
  C   C57       1.0  0.03095  0.36967  0.34895  1.0000
  C   C58       1.0  0.04845  0.36684  0.33491  1.0000
  C   C59       1.0  0.06210  0.38072  0.33076  1.0000
  C   C60       1.0  0.05769  0.39796  0.34010  1.0000
  H   H72       1.0  0.02065  0.35867  0.35239  1.0000
  H   H73       1.0  0.05141  0.35373  0.32759  1.0000
  C   C61       1.0  0.19003  0.24868  0.46685  1.0000
  H   H74       1.0  0.27367  0.18419  0.37726  1.0000
  H   H75       1.0  0.04167  0.46788  0.45029  1.0000
  H   H76       1.0  0.12160  0.34041  0.36946  1.0000
  H   H77       1.0  0.30580  0.13976  0.35675  1.0000
  H   H78       1.0  0.13745  0.31698  0.36445  1.0000
  C   C62       1.0  0.13691  0.14125  0.43460  1.0000
  C   C63       1.0  0.11982  0.15620  0.43394  1.0000
  C   C64       1.0  0.12198  0.17678  0.42906  1.0000
  C   C65       1.0  0.14125  0.18238  0.42446  1.0000
  C   C66       1.0  0.15833  0.16739  0.42528  1.0000
  C   C67       1.0  0.15616  0.14686  0.43047  1.0000
  H   H79       1.0  0.10492  0.15192  0.43672  1.0000
  H   H80       1.0  0.10871  0.18832  0.42845  1.0000
  H   H81       1.0  0.17320  0.17152  0.42214  1.0000
  H   H82       1.0  0.16937  0.13530  0.43138  1.0000
  H   H83       1.0  0.02520  0.34139  0.24822  1.0000
  H   H84       1.0  0.14003  0.29208  0.23739  1.0000
  H   H85       1.0  0.09337  0.04007  0.42672  1.0000
  H   H86       1.0  0.28477  0.17044  0.32681  1.0000
  C   C68       1.0  0.15775  0.33472  0.24110  1.0000
  C   C69       1.0  0.01209  0.11823  0.44804  1.0000
  H   H87       1.0  0.01801  0.47358  0.46607  1.0000
  H   H88       1.0  0.29960  0.19013  0.32501  1.0000
  H   H89       1.0  0.01155  0.13380  0.44068  1.0000
  H   H90       1.0  0.06810  0.40885  0.33684  1.0000
  N   N8        1.0  0.06116  0.04895  0.42839  1.0000
  C   C70       1.0  0.04257  0.03991  0.43639  1.0000
  H   H91       1.0  0.00312  0.36215  0.31440  1.0000
  H   H92       1.0  0.10243  0.29440  0.36252  1.0000
  H   H93       1.0  0.04037  0.03633  0.45273  1.0000
  S   S31       1.0  0.08658  0.09096  0.46831  1.0000
  H   H94       1.0  0.02887  0.05043  0.43242  1.0000
  C   C71       1.0  0.12143  0.32452  0.36746  1.0000
  H   H95       1.0  0.10335  0.30189  0.33637  1.0000
  H   H96       1.0  0.01744  0.38277  0.30889  1.0000
  C   C72       1.0  0.22628  0.22153  0.46555  1.0000
  H   H97       1.0  0.12633  0.29445  0.34653  1.0000
  C   C73       1.0  0.31780  0.15892  0.23368  1.0000
  H   H98       1.0  0.05891  0.06371  0.45359  1.0000
  N   N9        1.0  0.16748  0.15117  0.36854  1.0000
  C   C74       1.0  0.15957  0.13415  0.36370  1.0000
  C   C75       1.0  0.18181  0.14310  0.38257  1.0000
  C   C76       1.0  0.15051  0.16528  0.37760  1.0000
  C   C77       1.0  0.17805  0.16210  0.35032  1.0000
  H   H99       1.0  0.17202  0.12311  0.35703  1.0000
  H   H100      1.0  0.14878  0.13967  0.35307  1.0000
  H   H101      1.0  0.15140  0.12568  0.37717  1.0000
  H   H102      1.0  0.18692  0.15560  0.38772  1.0000
  H   H103      1.0  0.17483  0.13340  0.39580  1.0000
  H   H104      1.0  0.19562  0.13372  0.37570  1.0000
  H   H105      1.0  0.15593  0.17816  0.38180  1.0000
  H   H106      1.0  0.14208  0.15744  0.39126  1.0000
  H   H107      1.0  0.13952  0.17194  0.36737  1.0000
  H   H108      1.0  0.18440  0.17486  0.35353  1.0000
  H   H109      1.0  0.16773  0.16859  0.33941  1.0000
  H   H110      1.0  0.19104  0.15196  0.34315  1.0000
  C   C78       1.0  0.01419  0.44925  0.44099  1.0000
  H   H111      1.0  0.11283  0.33462  0.32010  1.0000
  C   C79       1.0  0.99377  0.35068  0.24472  1.0000
  C   C80       1.0  0.02615  0.47669  0.45067  1.0000
  S   S32       1.0  0.32010  0.10676  0.26621  1.0000
  H   H112      1.0  0.26289  0.18260  0.35632  1.0000
  H   H113      1.0  0.18755  0.20399  0.46153  1.0000
  C   C81       1.0  0.07902  0.03407  0.43317  1.0000
  C   C82       1.0  0.17797  0.19210  0.46248  1.0000
  H   H114      1.0  0.31424  0.17461  0.23737  1.0000
  H   H115      1.0  0.99294  0.11078  0.43021  1.0000
  H   H116      1.0  0.19053  0.30814  0.23027  1.0000
  C   C83       1.0  0.01378  0.07784  0.46654  1.0000
  H   H117      1.0  0.07960  0.01951  0.42774  1.0000
  H   H118      1.0  0.27891  0.14651  0.35788  1.0000
  S   S33       1.0  0.99425  0.44767  0.38612  1.0000
  H   H119      1.0  0.00701  0.37585  0.28981  1.0000
  H   H120      1.0  0.24049  0.21125  0.46507  1.0000
  H   H121      1.0  0.07647  0.06149  0.40020  1.0000
  C   C84       1.0  0.08935  0.33429  0.35581  1.0000
  H   H122      1.0  0.11482  0.38405  0.24147  1.0000
  C   C85       1.0  0.14783  0.21345  0.47543  1.0000
  S   S34       1.0  0.31125  0.11101  0.31338  1.0000
  H   H123      1.0  0.04712  0.07901  0.43379  1.0000
  S   S35       1.0  0.99332  0.44146  0.34076  1.0000
  C   C86       1.0  0.29784  0.17427  0.33194  1.0000
  H   H124      1.0  0.04936  0.06564  0.40271  1.0000
  C   C87       1.0  0.06032  0.06735  0.43722  1.0000
  Fe  Fe16      1.0  0.10941  0.11158  0.46582  1.0000
  H   H125      1.0  0.14251  0.17841  0.46619  1.0000
  H   H126      1.0  0.31083  0.04945  0.35296  1.0000
  H   H127      1.0  0.13659  0.32810  0.32903  1.0000
  H   H128      1.0  0.99468  0.39890  0.33567  1.0000
  H   H129      1.0  0.27794  0.20196  0.35492  1.0000
  S   S36       1.0  0.03442  0.12849  0.47193  1.0000
  H   H130      1.0  0.29028  0.14818  0.37849  1.0000
  H   H131      1.0  0.00661  0.44500  0.45641  1.0000
  C   C88       1.0  0.11063  0.30281  0.34909  1.0000
  H   H132      1.0  0.08130  0.32683  0.36988  1.0000
  C   C89       1.0  0.29237  0.15064  0.36210  1.0000
  C   C90       1.0  0.06269  0.05449  0.40676  1.0000
  H   H133      1.0  0.17264  0.19429  0.44803  1.0000
  H   H134      1.0  0.08066  0.33402  0.34397  1.0000
  H   H135      1.0  0.30292  0.02762  0.36956  1.0000
  H   H136      1.0  0.00545  0.44472  0.43102  1.0000
  C   C91       1.0  0.20060  0.24351  0.44869  1.0000
  H   H137      1.0  0.31154  0.16405  0.32603  1.0000
  H   H138      1.0  0.30646  0.15005  0.24339  1.0000
  H   H139      1.0  0.01879  0.47184  0.40509  1.0000
  C   C92       1.0  0.27660  0.18577  0.36087  1.0000
  H   H140      1.0  0.00011  0.41836  0.30219  1.0000
  H   H141      1.0  0.06339  0.04090  0.39968  1.0000
  H   H142      1.0  0.14379  0.34565  0.23875  1.0000
  H   H143      1.0  0.02945  0.43984  0.43941  1.0000
  H   H144      1.0  0.17617  0.25948  0.46721  1.0000
  H   H145      1.0  0.13945  0.30284  0.25908  1.0000
  H   H146      1.0  0.04305  0.02543  0.43087  1.0000
  H   H147      1.0  0.18787  0.17709  0.46426  1.0000
  H   H148      1.0  0.31097  0.17513  0.37624  1.0000
  C   C93       1.0  0.14015  0.30648  0.24279  1.0000
  H   H149      1.0  0.15806  0.33161  0.25725  1.0000
  H   H150      1.0  0.04214  0.46747  0.41452  1.0000
  H   H151      1.0  0.14196  0.21559  0.46122  1.0000
  C   C94       1.0  0.02448  0.09088  0.47245  1.0000
  H   H152      1.0  0.13855  0.40926  0.23122  1.0000
  H   H153      1.0  0.31505  0.19273  0.35375  1.0000
  H   H154      1.0  0.01423  0.06226  0.47387  1.0000
  H   H155      1.0  0.17080  0.34259  0.23377  1.0000
  C   C95       1.0  0.17662  0.30149  0.23719  1.0000
  H   H156      1.0  0.99711  0.35460  0.22884  1.0000
  N   N10       1.0  0.15819  0.31585  0.23318  1.0000
  S   S37       1.0  0.05543  0.99639  0.47311  1.0000
  H   H157      1.0  0.17748  0.28710  0.23136  1.0000
  H   H158      1.0  0.99203  0.15164  0.46693  1.0000
  H   H159      1.0  0.32440  0.03179  0.39314  1.0000
  N   N11       1.0  0.00592  0.38962  0.59973  1.0000
  S   S38       1.0  0.06912  0.10402  0.51261  1.0000
  S   S39       1.0  0.99288  0.41593  0.53913  1.0000
  Fe  Fe17      1.0  0.09364  0.12353  0.50636  1.0000
  S   S40       1.0  0.09608  0.14318  0.52833  1.0000
  C   C96       1.0  0.16851  0.19142  0.49768  1.0000
  Fe  Fe18      1.0  0.02287  0.42645  0.53493  1.0000
  S   S41       1.0  0.01023  0.45585  0.54634  1.0000
  S   S42       1.0  0.04872  0.40266  0.54339  1.0000
  H   H160      1.0  0.12840  0.26835  0.54982  1.0000
  H   H161      1.0  0.03310  0.08539  0.48438  1.0000
  H   H162      1.0  0.26050  0.11347  0.54191  1.0000
  H   H163      1.0  0.30395  0.00744  0.69671  1.0000
  N   N12       1.0  0.15123  0.28745  0.54616  1.0000
  H   H164      1.0  0.23034  0.15949  0.57616  1.0000
  H   H165      1.0  0.26387  0.13991  0.58305  1.0000
  H   H166      1.0  0.11080  0.00708  0.50397  1.0000
  S   S43       1.0  0.27687  0.13185  0.64297  1.0000
  H   H167      1.0  0.14368  0.31547  0.55818  1.0000
  H   H168      1.0  0.15595  0.19229  0.51042  1.0000
  Fe  Fe19      1.0  0.09315  0.08082  0.49918  1.0000
  H   H169      1.0  0.23613  0.12741  0.53769  1.0000
  H   H170      1.0  0.21864  0.15297  0.55794  1.0000
  Fe  Fe20      1.0  0.31038  0.12053  0.64221  1.0000
  C   C97       1.0  0.14478  0.26724  0.55029  1.0000
  C   C98       1.0  0.19738  0.24007  0.48444  1.0000
  C   C99       1.0  0.26147  0.12813  0.57494  1.0000
  H   H171      1.0  0.28237  0.19088  0.66252  1.0000
  H   H172      1.0  0.05083  0.34850  0.72307  1.0000
  S   S44       1.0  0.31937  0.09831  0.66843  1.0000
  Fe  Fe21      1.0  0.07015  0.33960  0.65824  1.0000
  S   S45       1.0  0.08665  0.34594  0.62730  1.0000
  S   S46       1.0  0.03948  0.32955  0.66853  1.0000
  Fe  Fe22      1.0  0.10088  0.35549  0.67642  1.0000
  S   S47       1.0  0.11977  0.36312  0.64695  1.0000
  S   S48       1.0  0.10399  0.36284  0.70610  1.0000
  Fe  Fe23      1.0  0.09048  0.37519  0.63585  1.0000
  S   S49       1.0  0.08401  0.40680  0.61920  1.0000
  Fe  Fe24      1.0  0.11467  0.33302  0.64084  1.0000
  S   S50       1.0  0.14242  0.31422  0.62594  1.0000
  S   S51       1.0  0.07183  0.36987  0.66572  1.0000
  S   S52       1.0  0.09788  0.32435  0.67144  1.0000
  Fe  Fe25      1.0  0.18412  0.18178  0.55366  1.0000
  S   S53       1.0  0.21080  0.19596  0.53708  1.0000
  S   S54       1.0  0.18211  0.15257  0.54362  1.0000
  Fe  Fe26      1.0  0.16912  0.21665  0.57758  1.0000
  S   S55       1.0  0.19469  0.23344  0.56254  1.0000
  S   S56       1.0  0.14258  0.22962  0.59892  1.0000
  Fe  Fe27      1.0  0.18909  0.22500  0.53467  1.0000
  S   S57       1.0  0.18376  0.24695  0.50696  1.0000
  Fe  Fe28      1.0  0.21403  0.20259  0.56657  1.0000
  S   S58       1.0  0.24591  0.19779  0.57343  1.0000
  S   S59       1.0  0.16209  0.21041  0.54935  1.0000
  S   S60       1.0  0.18879  0.18617  0.58351  1.0000
  S   S61       1.0  0.02251  0.43977  0.50318  1.0000
  H   H173      1.0  0.12260  0.30251  0.55947  1.0000
  H   H174      1.0  0.17748  0.20365  0.49745  1.0000
  C   C100      1.0  0.29195  0.14464  0.69072  1.0000
  H   H175      1.0  0.24925  0.16027  0.53396  1.0000
  C   C101      1.0  0.14841  0.29712  0.52591  1.0000
  H   H176      1.0  0.13587  0.17755  0.49241  1.0000
  H   H177      1.0  0.26903  0.16952  0.66626  1.0000
  C   C102      1.0  0.14205  0.29057  0.61895  1.0000
  C   C103      1.0  0.16019  0.27993  0.61015  1.0000
  C   C104      1.0  0.16054  0.26119  0.60410  1.0000
  C   C105      1.0  0.14272  0.25291  0.60682  1.0000
  C   C106      1.0  0.12456  0.26352  0.61566  1.0000
  C   C107      1.0  0.12419  0.28233  0.62166  1.0000
  H   H178      1.0  0.17408  0.28615  0.60814  1.0000
  H   H179      1.0  0.17467  0.25300  0.59766  1.0000
  H   H180      1.0  0.11072  0.25719  0.61782  1.0000
  H   H181      1.0  0.11013  0.29042  0.62841  1.0000
  C   C108      1.0  0.02367  0.32878  0.65150  1.0000
  C   C109      1.0  0.03150  0.32699  0.63179  1.0000
  C   C110      1.0  0.01849  0.32600  0.61873  1.0000
  H   H182      1.0  0.22139  0.21981  0.49720  1.0000
  H   H183      1.0  0.05475  0.34035  0.69951  1.0000
  H   H184      1.0  0.02623  0.36756  0.61582  1.0000
  H   H185      1.0  0.04760  0.32608  0.62667  1.0000
  H   H186      1.0  0.02468  0.32445  0.60354  1.0000
  C   C111      1.0  0.27529  0.17629  0.70134  1.0000
  C   C112      1.0  0.99757  0.32709  0.62521  1.0000
  H   H187      1.0  0.05875  0.28509  0.71938  1.0000
  C   C113      1.0  0.15298  0.39186  0.69769  1.0000
  C   C114      1.0  0.13895  0.38030  0.69477  1.0000
  C   C115      1.0  0.31485  0.00849  0.62923  1.0000
  H   H188      1.0  0.02048  0.37918  0.57247  1.0000
  C   C116      1.0  0.09614  0.01327  0.49980  1.0000
  H   H189      1.0  0.16617  0.39391  0.68658  1.0000
  H   H190      1.0  0.14146  0.37337  0.68159  1.0000
  C   C117      1.0  0.17282  0.28512  0.54793  1.0000
  H   H191      1.0  0.02453  0.39312  0.62019  1.0000
  C   C118      1.0  0.26849  0.15056  0.62382  1.0000
  C   C119      1.0  0.28214  0.15994  0.60896  1.0000
  C   C120      1.0  0.27496  0.17475  0.59388  1.0000
  C   C121      1.0  0.25413  0.18015  0.59342  1.0000
  C   C122      1.0  0.24048  0.17087  0.60838  1.0000
  C   C123      1.0  0.24766  0.15615  0.62353  1.0000
  H   H192      1.0  0.29824  0.15580  0.60906  1.0000
  H   H193      1.0  0.28562  0.18190  0.58239  1.0000
  H   H194      1.0  0.22440  0.17509  0.60834  1.0000
  H   H195      1.0  0.23701  0.14904  0.63506  1.0000
  C   C124      1.0  0.30682  0.02880  0.63106  1.0000
  H   H196      1.0  0.18247  0.27533  0.53745  1.0000
  C   C125      1.0  0.00404  0.41136  0.59096  1.0000
  C   C126      1.0  0.14883  0.17711  0.48000  1.0000
  H   H197      1.0  0.17548  0.27800  0.56309  1.0000
  H   H198      1.0  0.29137  0.03463  0.62892  1.0000
  H   H199      1.0  0.30974  0.18969  0.68214  1.0000
  Fe  Fe29      1.0  0.00724  0.46849  0.51476  1.0000
  C   C127      1.0  0.22885  0.14668  0.56898  1.0000
  H   H200      1.0  0.15330  0.25737  0.53944  1.0000
  H   H201      1.0  0.15764  0.28780  0.51479  1.0000
  H   H202      1.0  0.22109  0.13568  0.58040  1.0000
  H   H203      1.0  0.32208  0.16600  0.67453  1.0000
  C   C128      1.0  0.06015  0.40523  0.56302  1.0000
  C   C129      1.0  0.07357  0.38874  0.57067  1.0000
  C   C130      1.0  0.08132  0.38940  0.58766  1.0000
  C   C131      1.0  0.07578  0.40660  0.59698  1.0000
  C   C132      1.0  0.06303  0.42346  0.58887  1.0000
  C   C133      1.0  0.05518  0.42277  0.57189  1.0000
  H   H204      1.0  0.07762  0.37523  0.56371  1.0000
  H   H205      1.0  0.09168  0.37662  0.59345  1.0000
  H   H206      1.0  0.05891  0.43690  0.59591  1.0000
  H   H207      1.0  0.04516  0.43571  0.56582  1.0000
  C   C134      1.0  0.12021  0.14678  0.53113  1.0000
  C   C135      1.0  0.13782  0.13597  0.52180  1.0000
  C   C136      1.0  0.15679  0.13783  0.52571  1.0000
  C   C137      1.0  0.15826  0.15091  0.53854  1.0000
  C   C138      1.0  0.14072  0.16226  0.54732  1.0000
  C   C139      1.0  0.12173  0.16005  0.54376  1.0000
  H   H208      1.0  0.13687  0.12591  0.51183  1.0000
  H   H209      1.0  0.17034  0.12911  0.51877  1.0000
  H   H210      1.0  0.14170  0.17230  0.55734  1.0000
  H   H211      1.0  0.10816  0.16848  0.55102  1.0000
  C   C140      1.0  0.05826  0.02922  0.48917  1.0000
  C   C141      1.0  0.06834  0.04110  0.49723  1.0000
  H   H212      1.0  0.06132  0.05632  0.49958  1.0000
  H   H213      1.0  0.27668  0.12087  0.56844  1.0000
  N   N13       1.0  0.10177  0.08584  0.56429  1.0000
  C   C142      1.0  0.09675  0.06980  0.55518  1.0000
  C   C143      1.0  0.11928  0.09422  0.55176  1.0000
  C   C144      1.0  0.10685  0.07715  0.58405  1.0000
  C   C145      1.0  0.08421  0.10226  0.56608  1.0000
  H   H214      1.0  0.08355  0.06309  0.56408  1.0000
  H   H215      1.0  0.10968  0.05722  0.55326  1.0000
  H   H216      1.0  0.09288  0.07591  0.54024  1.0000
  H   H217      1.0  0.11581  0.10104  0.53684  1.0000
  H   H218      1.0  0.12349  0.10648  0.55807  1.0000
  H   H219      1.0  0.13279  0.08228  0.54979  1.0000
  H   H220      1.0  0.12009  0.06477  0.58317  1.0000
  H   H221      1.0  0.09397  0.07061  0.59387  1.0000
  H   H222      1.0  0.11065  0.08894  0.59129  1.0000
  H   H223      1.0  0.07084  0.09672  0.57591  1.0000
  H   H224      1.0  0.07959  0.10869  0.55147  1.0000
  H   H225      1.0  0.08777  0.11516  0.57194  1.0000
  N   N14       1.0  0.24875  0.13710  0.55963  1.0000
  H   H226      1.0  0.15307  0.31245  0.52227  1.0000
  C   C146      1.0  0.12196  0.37737  0.70911  1.0000
  H   H227      1.0  0.04342  0.03533  0.48551  1.0000
  S   S62       1.0  0.29946  0.99254  0.62399  1.0000
  H   H228      1.0  0.14050  0.29308  0.57594  1.0000
  C   C147      1.0  0.08726  0.03312  0.50261  1.0000
  C   C148      1.0  0.31024  0.17293  0.68569  1.0000
  C   C149      1.0  0.25875  0.15263  0.54533  1.0000
  C   C150      1.0  0.28384  0.17407  0.66658  1.0000
  H   H229      1.0  0.99663  0.33080  0.67329  1.0000
  H   H230      1.0  0.00460  0.42117  0.60189  1.0000
  C   C151      1.0  0.05846  0.33599  0.71468  1.0000
  H   H231      1.0  0.01645  0.41413  0.57840  1.0000
  H   H232      1.0  0.29696  0.13867  0.70525  1.0000
  H   H233      1.0  0.17846  0.17657  0.50074  1.0000
  H   H234      1.0  0.17829  0.30005  0.54473  1.0000
  C   C152      1.0  0.21542  0.22629  0.48378  1.0000
  H   H235      1.0  0.13233  0.29891  0.52396  1.0000
  H   H236      1.0  0.26013  0.17205  0.70203  1.0000
  Fe  Fe30      1.0  0.06462  0.11593  0.48135  1.0000
  S   S63       1.0  0.11800  0.09926  0.49555  1.0000
  H   H237      1.0  0.25436  0.11646  0.58611  1.0000
  N   N15       1.0  0.16079  0.19350  0.47891  1.0000
  C   C153      1.0  0.00707  0.37716  0.58418  1.0000
  C   C154      1.0  0.24582  0.12104  0.54924  1.0000
  H   H238      1.0  0.03819  0.38559  0.59750  1.0000
  H   H239      1.0  0.27363  0.14591  0.53762  1.0000
  H   H240      1.0  0.14743  0.25919  0.56513  1.0000
  C   C155      1.0  0.08637  0.00164  0.49102  1.0000
  H   H241      1.0  0.99349  0.12763  0.49767  1.0000
  N   N16       1.0  0.10897  0.42860  0.65877  1.0000
  C   C156      1.0  0.11749  0.43633  0.67332  1.0000
  C   C157      1.0  0.09383  0.41563  0.66924  1.0000
  C   C158      1.0  0.12533  0.41653  0.64667  1.0000
  C   C159      1.0  0.09918  0.44589  0.64579  1.0000
  H   H242      1.0  0.10563  0.44584  0.68244  1.0000
  H   H243      1.0  0.12940  0.44573  0.66601  1.0000
  H   H244      1.0  0.12449  0.42367  0.68366  1.0000
  H   H245      1.0  0.08672  0.40999  0.65869  1.0000
  H   H246      1.0  0.10078  0.40207  0.67868  1.0000
  H   H247      1.0  0.08149  0.42403  0.67892  1.0000
  H   H248      1.0  0.11936  0.41046  0.63555  1.0000
  H   H249      1.0  0.13301  0.40331  0.65593  1.0000
  H   H250      1.0  0.13703  0.42581  0.63850  1.0000
  H   H251      1.0  0.09274  0.44051  0.63453  1.0000
  H   H252      1.0  0.11015  0.45604  0.63768  1.0000
  H   H253      1.0  0.08656  0.45519  0.65434  1.0000
  H   H254      1.0  0.26163  0.16474  0.55277  1.0000
  C   C160      1.0  0.13896  0.30022  0.56051  1.0000
  H   H255      1.0  0.29478  0.16734  0.65467  1.0000
  H   H256      1.0  0.23821  0.10915  0.55962  1.0000
  N   N17       1.0  0.29034  0.16700  0.68606  1.0000
  H   H257      1.0  0.30328  0.13723  0.67958  1.0000
  H   H258      1.0  0.31204  0.05705  0.63791  1.0000
  C   C161      1.0  0.06743  0.00965  0.48565  1.0000
  C   C162      1.0  0.15017  0.40064  0.71492  1.0000
  C   C163      1.0  0.31850  0.04153  0.63612  1.0000
  H   H259      1.0  0.05993  0.30341  0.69732  1.0000
  N   N18       1.0  0.05217  0.31629  0.72419  1.0000
  H   H260      1.0  0.13460  0.21503  0.48743  1.0000
  S   S64       1.0  0.09990  0.04804  0.51262  1.0000
  H   H261      1.0  0.31564  0.16767  0.70014  1.0000
  H   H262      1.0  0.31960  0.99548  0.56520  1.0000
  S   S65       1.0  0.16869  0.41449  0.71799  1.0000
  H   H263      1.0  0.27975  0.17119  0.71620  1.0000
  C   C164      1.0  0.02449  0.38373  0.60873  1.0000
  H   H264      1.0  0.15818  0.16182  0.48233  1.0000
  H   H265      1.0  0.27370  0.19317  0.69830  1.0000
  H   H266      1.0  0.00828  0.36069  0.59029  1.0000
  H   H267      1.0  0.09352  0.98656  0.48838  1.0000
  H   H268      1.0  0.27736  0.13947  0.69083  1.0000
  C   C165      1.0  0.11918  0.38607  0.72638  1.0000
  C   C166      1.0  0.00279  0.32957  0.65803  1.0000
  C   C167      1.0  0.03016  0.31759  0.72491  1.0000
  C   C168      1.0  0.31906  0.00013  0.69002  1.0000
  H   H269      1.0  0.99343  0.38128  0.57689  1.0000
  H   H270      1.0  0.20731  0.35192  0.72091  1.0000
  H   H271      1.0  0.07506  0.33543  0.71348  1.0000
  H   H272      1.0  0.32181  0.00755  0.67436  1.0000
  H   H273      1.0  0.18586  0.37154  0.71967  1.0000
  C   C169      1.0  0.06316  0.30018  0.71272  1.0000
  H   H274      1.0  0.02609  0.32119  0.70981  1.0000
  H   H275      1.0  0.07982  0.29886  0.71174  1.0000
  H   H276      1.0  0.30391  0.37120  0.94610  1.0000
  H   H277      1.0  0.20002  0.34091  0.77563  1.0000
  H   H278      1.0  0.32089  0.39807  0.92392  1.0000
  H   H279      1.0  0.25172  0.43526  0.81279  1.0000
  H   H280      1.0  0.00824  0.48319  0.88501  1.0000
  C   C170      1.0  0.32343  0.32794  0.92669  1.0000
  C   C171      1.0  0.20363  0.37482  0.74950  1.0000
  H   H281      1.0  0.31373  0.40910  0.89015  1.0000
  H   H282      1.0  0.05254  0.29655  0.75205  1.0000
  S   S66       1.0  0.20277  0.43141  0.74769  1.0000
  S   S67       1.0  0.30504  0.34614  0.85435  1.0000
  C   C172      1.0  0.14057  0.48089  0.81402  1.0000
  S   S68       1.0  0.18370  0.44746  0.79002  1.0000
  Fe  Fe31      1.0  0.15373  0.44288  0.78431  1.0000
  S   S69       1.0  0.12524  0.44913  0.80614  1.0000
  C   C173      1.0  0.31680  0.34314  0.96238  1.0000
  S   S70       1.0  0.30734  0.36443  0.90635  1.0000
  H   H283      1.0  0.29165  0.30984  0.78698  1.0000
  C   C174      1.0  0.22071  0.46591  0.81543  1.0000
  C   C175      1.0  0.31104  0.35566  0.94536  1.0000
  C   C176      1.0  0.24009  0.39245  0.79922  1.0000
  C   C177      1.0  0.31447  0.34815  0.92744  1.0000
  H   H284      1.0  0.10608  0.38387  0.73757  1.0000
  H   H285      1.0  0.22374  0.47136  0.82848  1.0000
  H   H286      1.0  0.25986  0.45603  0.82016  1.0000
  H   H287      1.0  0.07344  0.31052  0.74436  1.0000
  C   C178      1.0  0.19988  0.33955  0.76001  1.0000
  N   N19       1.0  0.19140  0.35910  0.74907  1.0000
  C   C179      1.0  0.29960  0.34817  0.77404  1.0000
  C   C180      1.0  0.27282  0.40372  0.78850  1.0000
  C   C181      1.0  0.28005  0.39176  0.80515  1.0000
  C   C182      1.0  0.26722  0.38015  0.81880  1.0000
  C   C183      1.0  0.24740  0.38035  0.81574  1.0000
  H   H288      1.0  0.28274  0.41257  0.77776  1.0000
  H   H289      1.0  0.27251  0.37103  0.83177  1.0000
  H   H290      1.0  0.23760  0.37124  0.82634  1.0000
  H   H291      1.0  0.24714  0.45631  0.77083  1.0000
  C   C184      1.0  0.25565  0.45083  0.80753  1.0000
  H   H292      1.0  0.16382  0.38037  0.75110  1.0000
  C   C185      1.0  0.30028  0.33495  0.80838  1.0000
  C   C186      1.0  0.12620  0.46781  0.82020  1.0000
  C   C187      1.0  0.11210  0.47009  0.83742  1.0000
  C   C188      1.0  0.05695  0.31140  0.74445  1.0000
  H   H293      1.0  0.32070  0.42373  0.92751  1.0000
  N   N20       1.0  0.23867  0.46495  0.79977  1.0000
  H   H294      1.0  0.10101  0.45992  0.84230  1.0000
  H   H295      1.0  0.21572  0.33438  0.75328  1.0000
  H   H296      1.0  0.19084  0.32741  0.76018  1.0000
  H   H297      1.0  0.28370  0.33481  0.81087  1.0000
  Fe  Fe32      1.0  0.31976  0.36988  0.83245  1.0000
  Fe  Fe33      1.0  0.32048  0.35507  0.87650  1.0000
  H   H298      1.0  0.04885  0.32323  0.75352  1.0000
  C   C189      1.0  0.32272  0.42161  0.88881  1.0000
  H   H299      1.0  0.30261  0.34962  0.81179  1.0000
  S   S71       1.0  0.30533  0.39128  0.80801  1.0000
  Fe  Fe34      1.0  0.18815  0.46110  0.75794  1.0000
  H   H300      1.0  0.22144  0.46804  0.77647  1.0000
  H   H301      1.0  0.13073  0.40449  0.74254  1.0000
  C   C190      1.0  0.25291  0.40407  0.78553  1.0000
  H   H302      1.0  0.22901  0.44237  0.78739  1.0000
  C   C191      1.0  0.30779  0.31190  0.78463  1.0000
  Fe  Fe35      1.0  0.17126  0.42737  0.74528  1.0000
  H   H303      1.0  0.30636  0.34674  0.75847  1.0000
  H   H304      1.0  0.20336  0.37725  0.76486  1.0000
  H   H305      1.0  0.30684  0.32273  0.81937  1.0000
  S   S72       1.0  0.21536  0.39149  0.79565  1.0000
  H   H306      1.0  0.31216  0.43509  0.89351  1.0000
  H   H307      1.0  0.21970  0.37065  0.74284  1.0000
  Fe  Fe36      1.0  0.19577  0.41758  0.77942  1.0000
  H   H308      1.0  0.16946  0.36647  0.77428  1.0000
  C   C192      1.0  0.13315  0.39775  0.72925  1.0000
  H   H309      1.0  0.26938  0.44940  0.79602  1.0000
  H   H310      1.0  0.24764  0.41293  0.77243  1.0000
  S   S73       1.0  0.15731  0.45838  0.75278  1.0000
  S   S74       1.0  0.16518  0.41161  0.77651  1.0000
  H   H311      1.0  0.28317  0.34742  0.77593  1.0000
  C   C193      1.0  0.23391  0.45754  0.78288  1.0000
  H   H312      1.0  0.15108  0.47966  0.80047  1.0000
  H   H313      1.0  0.19780  0.38972  0.74115  1.0000
  C   C194      1.0  0.17034  0.36525  0.75846  1.0000
  H   H314      1.0  0.31553  0.29971  0.79499  1.0000
  H   H315      1.0  0.16037  0.35427  0.75766  1.0000
  H   H316      1.0  0.02485  0.30299  0.73197  1.0000
  H   H317      1.0  0.31413  0.34911  0.97603  1.0000
  H   H318      1.0  0.30092  0.36368  0.77642  1.0000
  H   H319      1.0  0.21584  0.45072  0.82054  1.0000
  N   N21       1.0  0.30976  0.33228  0.78801  1.0000
  H   H320      1.0  0.31472  0.30931  0.76937  1.0000
  H   H321      1.0  0.02139  0.32973  0.73326  1.0000
  H   H322      1.0  0.20763  0.47646  0.81011  1.0000
  C   C195      1.0  0.19171  0.35687  0.72838  1.0000
  H   H323      1.0  0.24567  0.35184  0.97650  1.0000
  H   H324      1.0  0.18211  0.34561  0.72737  1.0000
  Fe  Fe37      1.0  0.09795  0.54642  0.06467  1.0000
  S   S75       1.0  0.12833  0.54701  0.04569  1.0000
  S   S76       1.0  0.09649  0.53053  0.09588  1.0000
  Fe  Fe38      1.0  0.07582  0.57394  0.03394  1.0000
  S   S77       1.0  0.04682  0.58891  0.02265  1.0000
  Fe  Fe39      1.0  0.11763  0.58048  0.03926  1.0000
  S   S78       1.0  0.14139  0.60008  0.03778  1.0000
  S   S79       1.0  0.08326  0.54000  0.04089  1.0000
  S   S80       1.0  0.08797  0.58019  0.05964  1.0000
  H   H325      1.0  0.24724  0.72069  0.02639  1.0000
  H   H326      1.0  0.25448  0.69274  0.14663  1.0000
  H   H327      1.0  0.24045  0.68330  0.13201  1.0000
  C   C196      1.0  0.11568  0.49616  0.08079  1.0000
  H   H328      1.0  0.01858  0.53033  0.00435  1.0000
  S   S81       1.0  0.29025  0.70864  0.07279  1.0000
  H   H329      1.0  0.26931  0.66954  0.17377  1.0000
  S   S82       1.0  0.12222  0.71672  0.21780  1.0000
  H   H330      1.0  0.16585  0.57230  0.06623  1.0000
  H   H331      1.0  0.18641  0.55487  0.07545  1.0000
  N   N22       1.0  0.25109  0.66123  0.15556  1.0000
  H   H332      1.0  0.10544  0.65179  0.13947  1.0000
  Fe  Fe40      1.0  0.17293  0.63568  0.12000  1.0000
  S   S83       1.0  0.19648  0.61067  0.10924  1.0000
  S   S84       1.0  0.14409  0.64686  0.10753  1.0000
  Fe  Fe41      1.0  0.19067  0.63491  0.15697  1.0000
  S   S85       1.0  0.21546  0.60929  0.14944  1.0000
  S   S86       1.0  0.18802  0.64521  0.18654  1.0000
  Fe  Fe42      1.0  0.21818  0.62707  0.11862  1.0000
  S   S87       1.0  0.24998  0.62846  0.10152  1.0000
  Fe  Fe43      1.0  0.19193  0.59518  0.14062  1.0000
  S   S88       1.0  0.18148  0.56470  0.15127  1.0000
  S   S89       1.0  0.19478  0.65368  0.12680  1.0000
  S   S90       1.0  0.16708  0.61933  0.15081  1.0000
  H   H333      1.0  0.12480  0.63448  0.15033  1.0000
  C   C197      1.0  0.19411  0.54158  0.14384  1.0000
  C   C198      1.0  0.18535  0.52400  0.15139  1.0000
  C   C199      1.0  0.19472  0.50519  0.14588  1.0000
  C   C200      1.0  0.21301  0.50378  0.13283  1.0000
  C   C201      1.0  0.22178  0.52139  0.12515  1.0000
  C   C202      1.0  0.21230  0.54031  0.13057  1.0000
  H   H334      1.0  0.17133  0.52490  0.16173  1.0000
  H   H335      1.0  0.05863  0.52211  0.98620  1.0000
  H   H336      1.0  0.23596  0.52040  0.11507  1.0000
  H   H337      1.0  0.21914  0.55382  0.12468  1.0000
  C   C203      1.0  0.27944  0.68609  0.08042  1.0000
  C   C204      1.0  0.29085  0.66687  0.07905  1.0000
  C   C205      1.0  0.28154  0.64937  0.08536  1.0000
  C   C206      1.0  0.26081  0.65092  0.09307  1.0000
  C   C207      1.0  0.24936  0.67016  0.09422  1.0000
  C   C208      1.0  0.25867  0.68765  0.08797  1.0000
  H   H338      1.0  0.30686  0.66546  0.07328  1.0000
  H   H339      1.0  0.29049  0.63451  0.08440  1.0000
  H   H340      1.0  0.23334  0.67154  0.09989  1.0000
  H   H341      1.0  0.24971  0.70249  0.08896  1.0000
  H   H342      1.0  0.26451  0.63986  0.13564  1.0000
  S   S91       1.0  0.10463  0.57783  0.01290  1.0000
  H   H343      1.0  0.17889  0.56978  0.10640  1.0000
  H   H344      1.0  0.04134  0.55147  0.04967  1.0000
  H   H345      1.0  0.26702  0.64302  0.17806  1.0000
  H   H346      1.0  0.30175  0.72043  0.00535  1.0000
  H   H347      1.0  0.09017  0.68347  0.15359  1.0000
  C   C209      1.0  0.14045  0.69665  0.20939  1.0000
  C   C210      1.0  0.01279  0.54443  0.04642  1.0000
  C   C211      1.0  0.16260  0.66437  0.21526  1.0000
  C   C212      1.0  0.16933  0.66493  0.19491  1.0000
  C   C213      1.0  0.16174  0.68151  0.18180  1.0000
  C   C214      1.0  0.14738  0.69733  0.18903  1.0000
  H   H348      1.0  0.10845  0.50226  0.06799  1.0000
  H   H349      1.0  0.15555  0.53449  0.12221  1.0000
  H   H350      1.0  0.16724  0.68234  0.16615  1.0000
  H   H351      1.0  0.14170  0.71025  0.17886  1.0000
  C   C215      1.0  0.13043  0.67293  0.14926  1.0000
  H   H352      1.0  0.24841  0.62976  0.15732  1.0000
  Fe  Fe44      1.0  0.11267  0.54423  0.02113  1.0000
  C   C216      1.0  0.02845  0.55619  0.04215  1.0000
  H   H353      1.0  0.30396  0.68263  0.01342  1.0000
  C   C217      1.0  0.25042  0.64361  0.14620  1.0000
  H   H354      1.0  0.15402  0.57137  0.12057  1.0000
  H   H355      1.0  0.28624  0.70160  0.98634  1.0000
  H   H356      1.0  0.08458  0.66869  0.17760  1.0000
  H   H357      1.0  0.26051  0.70777  0.04608  1.0000
  C   C218      1.0  0.28709  0.72185  0.01558  1.0000
  H   H358      1.0  0.27784  0.73636  0.01004  1.0000
  C   C219      1.0  0.10881  0.52321  0.98230  1.0000
  H   H359      1.0  0.24940  0.69349  0.03300  1.0000
  C   C220      1.0  0.14157  0.61273  0.05756  1.0000
  C   C221      1.0  0.15971  0.61851  0.05944  1.0000
  C   C222      1.0  0.16055  0.62870  0.07491  1.0000
  C   C223      1.0  0.14312  0.63363  0.08838  1.0000
  C   C224      1.0  0.12489  0.62798  0.08649  1.0000
  C   C225      1.0  0.12416  0.61730  0.07124  1.0000
  H   H360      1.0  0.17319  0.61512  0.04883  1.0000
  H   H361      1.0  0.17460  0.63325  0.07606  1.0000
  H   H362      1.0  0.11134  0.63178  0.09684  1.0000
  H   H363      1.0  0.11007  0.61304  0.06979  1.0000
  C   C226      1.0  0.02712  0.57419  0.02861  1.0000
  H   H364      1.0  0.15842  0.58736  0.09711  1.0000
  H   H365      1.0  0.18800  0.49172  0.15212  1.0000
  N   N23       1.0  0.27664  0.70424  0.01705  1.0000
  C   C227      1.0  0.25348  0.67921  0.14019  1.0000
  H   H366      1.0  0.00133  0.54597  0.98933  1.0000
  H   H367      1.0  0.13336  0.68596  0.15530  1.0000
  C   C228      1.0  0.12302  0.65310  0.18156  1.0000
  H   H368      1.0  0.28201  0.67182  0.02614  1.0000
  C   C229      1.0  0.09642  0.67641  0.16730  1.0000
  H   H369      1.0  0.01400  0.53051  0.05689  1.0000
  C   C230      1.0  0.12183  0.49918  0.11299  1.0000
  H   H370      1.0  0.11942  0.50770  0.12510  1.0000
  Fe  Fe45      1.0  0.32197  0.71203  0.05630  1.0000
  H   H371      1.0  0.12545  0.67897  0.13473  1.0000
  C   C231      1.0  0.26837  0.65660  0.16643  1.0000
  H   H372      1.0  0.14509  0.66274  0.14623  1.0000
  C   C232      1.0  0.08846  0.52368  0.99072  1.0000
  C   C233      1.0  0.00984  0.58054  0.01960  1.0000
  H   H373      1.0  0.09941  0.63713  0.16352  1.0000
  C   C234      1.0  0.16255  0.57185  0.10527  1.0000
  C   C235      1.0  0.16987  0.55721  0.07525  1.0000
  H   H374      1.0  0.18027  0.53255  0.10761  1.0000
  C   C236      1.0  0.13635  0.55935  0.09433  1.0000
  C   C237      1.0  0.25758  0.70665  0.03121  1.0000
  C   C238      1.0  0.28973  0.68535  0.02404  1.0000
  H   H375      1.0  0.16028  0.52345  0.10000  1.0000
  C   C239      1.0  0.16382  0.53573  0.10678  1.0000
  H   H376      1.0  0.13258  0.54758  0.08710  1.0000
  H   H377      1.0  0.16683  0.54553  0.06737  1.0000
  H   H378      1.0  0.13156  0.57438  0.08560  1.0000
  N   N24       1.0  0.15816  0.55604  0.09542  1.0000
  C   C240      1.0  0.27217  0.70312  0.99744  1.0000
  H   H379      1.0  0.12692  0.55863  0.10923  1.0000
  H   H380      1.0  0.02836  0.49407  0.00252  1.0000
  H   H381      1.0  0.01586  0.72901  0.22330  1.0000
  H   H382      1.0  0.00856  0.59461  0.00934  1.0000
  H   H383      1.0  0.11242  0.64382  0.19183  1.0000
  S   S92       1.0  0.12653  0.52698  0.99594  1.0000
  H   H384      1.0  0.08367  0.52538  0.00601  1.0000
  H   H385      1.0  0.12531  0.66509  0.18947  1.0000
  H   H386      1.0  0.21867  0.66871  0.16170  1.0000
  C   C241      1.0  0.99407  0.56887  0.02402  1.0000
  H   H387      1.0  0.28294  0.65335  0.15634  1.0000
  C   C242      1.0  0.11096  0.64565  0.15375  1.0000
  N   N25       1.0  0.11522  0.66200  0.16297  1.0000
  H   H388      1.0  0.26454  0.68983  0.99793  1.0000
  H   H389      1.0  0.26741  0.67634  0.12914  1.0000
  C   C243      1.0  0.23206  0.66543  0.16939  1.0000
  H   H390      1.0  0.23183  0.67871  0.17672  1.0000
  H   H391      1.0  0.22973  0.65215  0.18119  1.0000
  H   H392      1.0  0.23765  0.64663  0.13774  1.0000
  H   H393      1.0  0.29402  0.68606  0.03844  1.0000
  H   H394      1.0  0.13786  0.64308  0.17884  1.0000
  H   H395      1.0  0.09914  0.68894  0.17431  1.0000
  H   H396      1.0  0.29035  0.72333  0.03021  1.0000
  C   C244      1.0  0.01379  0.53278  0.98960  1.0000
  C   C245      1.0  0.11237  0.50706  0.09654  1.0000
  N   N26       1.0  0.00727  0.51441  0.98588  1.0000
  H   H397      1.0  0.16856  0.65169  0.22551  1.0000
  C   C246      1.0  0.02381  0.49699  0.98765  1.0000
  H   H398      1.0  0.06257  0.56669  0.98802  1.0000
  S   S93       1.0  0.32299  0.74329  0.03849  1.0000
  H   H399      1.0  0.07646  0.59843  0.98738  1.0000
  C   C247      1.0  0.14810  0.68008  0.22248  1.0000
  C   C248      1.0  0.07425  0.52171  0.97944  1.0000
  C   C249      1.0  0.99558  0.55072  0.03737  1.0000
  H   H400      1.0  0.26217  0.71705  0.99177  1.0000
  H   H401      1.0  0.02671  0.53722  0.97826  1.0000
  H   H402      1.0  0.99284  0.50666  0.01581  1.0000
  S   S94       1.0  0.13458  0.94743  0.41612  1.0000
  C   C250      1.0  0.01596  0.93094  0.43433  1.0000
  S   S95       1.0  0.05598  0.60734  0.32054  1.0000
  S   S96       1.0  0.01662  0.48914  0.34609  1.0000
  Fe  Fe46      1.0  0.10808  0.69521  0.29210  1.0000
  S   S97       1.0  0.08564  0.72015  0.30383  1.0000
  S   S98       1.0  0.11493  0.66998  0.31683  1.0000
  Fe  Fe47      1.0  0.11008  0.71719  0.25040  1.0000
  S   S99       1.0  0.08739  0.74420  0.25942  1.0000
  Fe  Fe48      1.0  0.10507  0.74150  0.28429  1.0000
  S   S100      1.0  0.10740  0.76751  0.30005  1.0000
  Fe  Fe49      1.0  0.06991  0.72059  0.27845  1.0000
  S   S101      1.0  0.03639  0.71933  0.28869  1.0000
  S   S102      1.0  0.12893  0.71627  0.27394  1.0000
  S   S103      1.0  0.09119  0.69396  0.26793  1.0000
  Fe  Fe50      1.0  0.16688  0.85950  0.35968  1.0000
  S   S104      1.0  0.15471  0.83069  0.37367  1.0000
  S   S105      1.0  0.14719  0.88940  0.35238  1.0000
  Fe  Fe51      1.0  0.21072  0.83962  0.35690  1.0000
  S   S106      1.0  0.20198  0.80935  0.37162  1.0000
  S   S107      1.0  0.24424  0.84008  0.34611  1.0000
  Fe  Fe52      1.0  0.17860  0.81573  0.35151  1.0000
  S   S108      1.0  0.17987  0.79096  0.33284  1.0000
  Fe  Fe53      1.0  0.17914  0.82696  0.39232  1.0000
  S   S109      1.0  0.17116  0.81779  0.42542  1.0000
  S   S110      1.0  0.18859  0.84520  0.33588  1.0000
  S   S111      1.0  0.18988  0.85671  0.37943  1.0000
  C   C251      1.0  0.23255  0.80292  0.32062  1.0000
  Fe  Fe54      1.0  0.30767  0.92269  0.28502  1.0000
  S   S112      1.0  0.27498  0.91764  0.29099  1.0000
  H   H403      1.0  0.18708  0.90057  0.44477  1.0000
  H   H404      1.0  0.02817  0.59312  0.43274  1.0000
  C   C252      1.0  0.25253  0.86166  0.33064  1.0000
  C   C253      1.0  0.27320  0.86112  0.32301  1.0000
  C   C254      1.0  0.28029  0.87812  0.31070  1.0000
  C   C255      1.0  0.26672  0.89578  0.30597  1.0000
  C   C256      1.0  0.24604  0.89618  0.31338  1.0000
  C   C257      1.0  0.23894  0.87920  0.32570  1.0000
  H   H405      1.0  0.28376  0.84750  0.32663  1.0000
  H   H406      1.0  0.29618  0.87751  0.30468  1.0000
  H   H407      1.0  0.23544  0.90976  0.30968  1.0000
  H   H408      1.0  0.22297  0.87976  0.33143  1.0000
  C   C258      1.0  0.18512  0.82563  0.44061  1.0000
  C   C259      1.0  0.17797  0.82430  0.46095  1.0000
  C   C260      1.0  0.21425  0.83894  0.44529  1.0000
  C   C261      1.0  0.20325  0.83307  0.43280  1.0000
  C   C262      1.0  0.00818  0.53543  0.38776  1.0000
  H   H409      1.0  0.22838  0.84451  0.43915  1.0000
  H   H410      1.0  0.20895  0.83404  0.41716  1.0000
  C   C263      1.0  0.12802  0.77449  0.30804  1.0000
  C   C264      1.0  0.12395  0.78909  0.32079  1.0000
  C   C265      1.0  0.13963  0.79447  0.32835  1.0000
  C   C266      1.0  0.15961  0.78526  0.32327  1.0000
  C   C267      1.0  0.16373  0.77077  0.31040  1.0000
  C   C268      1.0  0.14807  0.76552  0.30270  1.0000
  H   H411      1.0  0.10852  0.79621  0.32494  1.0000
  H   H412      1.0  0.13622  0.80566  0.33820  1.0000
  H   H413      1.0  0.17915  0.76366  0.30626  1.0000
  H   H414      1.0  0.15154  0.75464  0.29254  1.0000
  C   C269      1.0  0.99940  0.71797  0.27987  1.0000
  S   S113      1.0  0.04144  0.92939  0.42297  1.0000
  C   C270      1.0  0.07388  0.62315  0.31970  1.0000
  C   C271      1.0  0.07781  0.62792  0.33710  1.0000
  C   C272      1.0  0.09126  0.64156  0.33621  1.0000
  C   C273      1.0  0.10025  0.65097  0.31791  1.0000
  C   C274      1.0  0.09649  0.64600  0.30055  1.0000
  C   C275      1.0  0.08355  0.63190  0.30145  1.0000
  H   H415      1.0  0.07056  0.62105  0.35126  1.0000
  H   H416      1.0  0.09420  0.64523  0.34969  1.0000
  H   H417      1.0  0.10387  0.65274  0.28640  1.0000
  H   H418      1.0  0.08085  0.62799  0.28797  1.0000
  C   C276      1.0  0.05034  0.62665  0.42568  1.0000
  C   C277      1.0  0.06378  0.60869  0.42310  1.0000
  C   C278      1.0  0.07226  0.59693  0.43914  1.0000
  C   C279      1.0  0.06705  0.60298  0.45778  1.0000
  H   H419      1.0  0.01380  0.67928  0.34439  1.0000
  C   C280      1.0  0.04576  0.63305  0.44415  1.0000
  H   H420      1.0  0.06759  0.60384  0.40878  1.0000
  H   H421      1.0  0.08251  0.58295  0.43717  1.0000
  C   C281      1.0  0.23824  0.83368  0.29802  1.0000
  H   H422      1.0  0.03302  0.67435  0.29352  1.0000
  S   S114      1.0  0.03861  0.64090  0.40622  1.0000
  H   H423      1.0  0.02748  0.49314  0.44763  1.0000
  H   H424      1.0  0.23893  0.84182  0.28262  1.0000
  H   H425      1.0  0.24709  0.80197  0.32601  1.0000
  C   C282      1.0  0.13875  0.93091  0.39867  1.0000
  C   C283      1.0  0.13866  0.91000  0.40461  1.0000
  C   C284      1.0  0.14233  0.89696  0.39043  1.0000
  C   C285      1.0  0.14514  0.90499  0.37030  1.0000
  C   C286      1.0  0.14485  0.92591  0.36443  1.0000
  C   C287      1.0  0.14210  0.93878  0.37858  1.0000
  H   H426      1.0  0.13589  0.90387  0.42008  1.0000
  H   H427      1.0  0.14239  0.88079  0.39502  1.0000
  H   H428      1.0  0.14702  0.93215  0.34890  1.0000
  H   H429      1.0  0.14222  0.95491  0.37394  1.0000
  C   C288      1.0  0.00968  0.93775  0.45253  1.0000
  H   H430      1.0  0.02519  0.65403  0.26036  1.0000
  H   H431      1.0  0.03461  0.65146  0.31148  1.0000
  H   H432      1.0  0.29133  0.91772  0.38010  1.0000
  C   C289      1.0  0.99622  0.51999  0.39205  1.0000
  C   C290      1.0  0.01430  0.63086  0.29489  1.0000
  Fe  Fe55      1.0  0.02826  0.62152  0.38856  1.0000
  H   H433      1.0  0.26448  0.79987  0.29171  1.0000
  C   C291      1.0  0.20707  0.83772  0.46559  1.0000
  S   S115      1.0  0.00626  0.59399  0.35542  1.0000
  H   H434      1.0  0.02788  0.62296  0.28612  1.0000
  H   H435      1.0  0.14294  0.67942  0.23818  1.0000
  N   N27       1.0  0.01395  0.65311  0.29137  1.0000
  S   S116      1.0  0.00423  0.55372  0.40334  1.0000
  H   H436      1.0  0.28029  0.87708  0.37389  1.0000
  C   C292      1.0  0.01761  0.69488  0.34222  1.0000
  H   H437      1.0  0.05065  0.66654  0.33584  1.0000
  H   H438      1.0  0.02649  0.57048  0.42389  1.0000
  H   H439      1.0  0.05313  0.68896  0.31788  1.0000
  H   H440      1.0  0.03151  0.54063  0.46089  1.0000
  H   H441      1.0  0.02746  0.49248  0.41208  1.0000
  H   H442      1.0  0.01480  0.62438  0.31068  1.0000
  H   H443      1.0  0.02005  0.94353  0.45906  1.0000
  H   H444      1.0  0.03108  0.72517  0.35332  1.0000
  C   C293      1.0  0.01375  0.50648  0.36249  1.0000
  H   H445      1.0  0.20957  0.79860  0.29501  1.0000
  C   C294      1.0  0.18877  0.83058  0.47338  1.0000
  H   H446      1.0  0.21381  0.82145  0.27799  1.0000
  C   C295      1.0  0.04226  0.71567  0.34362  1.0000
  H   H447      1.0  0.20133  0.82277  0.30284  1.0000
  H   H448      1.0  0.30585  0.89283  0.38503  1.0000
  H   H449      1.0  0.28060  0.92982  0.34709  1.0000
  C   C296      1.0  0.31306  0.88516  0.34775  1.0000
  C   C297      1.0  0.02540  0.72447  0.25172  1.0000
  H   H450      1.0  0.22076  0.81156  0.33049  1.0000
  H   H451      1.0  0.22868  0.78733  0.32271  1.0000
  C   C298      1.0  0.27802  0.89123  0.36303  1.0000
  N   N28       1.0  0.16030  0.89167  0.46360  1.0000
  H   H452      1.0  0.01958  0.59476  0.46867  1.0000
  C   C299      1.0  0.03277  0.65768  0.29592  1.0000
  S   S117      1.0  0.31424  0.94902  0.29683  1.0000
  C   C300      1.0  0.14603  0.87743  0.46452  1.0000
  C   C301      1.0  0.00194  0.92447  0.42554  1.0000
  C   C302      1.0  0.01600  0.54833  0.45883  1.0000
  H   H453      1.0  0.08907  0.87985  0.36669  1.0000
  S   S118      1.0  0.02247  0.63578  0.35834  1.0000
  H   H454      1.0  0.30890  0.88033  0.33491  1.0000
  H   H455      1.0  0.15939  0.92389  0.46168  1.0000
  H   H456      1.0  0.03710  0.52273  0.34510  1.0000
  H   H457      1.0  0.31734  0.91282  0.36875  1.0000
  C   C303      1.0  0.01234  0.66121  0.27049  1.0000
  H   H458      1.0  0.15389  0.86148  0.46522  1.0000
  H   H459      1.0  0.22668  0.84304  0.30756  1.0000
  H   H460      1.0  0.03215  0.54839  0.36741  1.0000
  Fe  Fe56      1.0  0.01308  0.58309  0.38613  1.0000
  C   C304      1.0  0.24943  0.80100  0.28727  1.0000
  H   H461      1.0  0.05285  0.92773  0.37297  1.0000
  C   C305      1.0  0.02933  0.57632  0.43676  1.0000
  H   H462      1.0  0.18422  0.87460  0.44570  1.0000
  H   H463      1.0  0.04836  0.87645  0.46163  1.0000
  H   H464      1.0  0.00570  0.70377  0.35188  1.0000
  S   S119      1.0  0.07678  0.96521  0.43159  1.0000
  N   N29       1.0  0.13318  0.71412  0.34224  1.0000
  C   C306      1.0  0.14257  0.69463  0.35259  1.0000
  C   C307      1.0  0.11095  0.71533  0.34619  1.0000
  C   C308      1.0  0.14035  0.71521  0.32082  1.0000
  C   C309      1.0  0.13879  0.73128  0.34925  1.0000
  H   H465      1.0  0.13752  0.69319  0.36882  1.0000
  H   H466      1.0  0.15936  0.69318  0.34973  1.0000
  H   H467      1.0  0.13851  0.68144  0.34755  1.0000
  H   H468      1.0  0.10625  0.70262  0.34099  1.0000
  H   H469      1.0  0.10496  0.71457  0.36222  1.0000
  H   H470      1.0  0.10346  0.72985  0.33841  1.0000
  H   H471      1.0  0.13235  0.72890  0.31243  1.0000
  H   H472      1.0  0.13759  0.70177  0.31529  1.0000
  H   H473      1.0  0.15684  0.71585  0.31698  1.0000
  H   H474      1.0  0.15539  0.73144  0.34578  1.0000
  H   H475      1.0  0.13413  0.73064  0.36547  1.0000
  H   H476      1.0  0.13136  0.74614  0.34214  1.0000
  H   H477      1.0  0.99514  0.49962  0.43472  1.0000
  H   H478      1.0  0.99276  0.59707  0.44839  1.0000
  H   H479      1.0  0.01653  0.70185  0.32666  1.0000
  H   H480      1.0  0.03547  0.57100  0.47439  1.0000
  Fe  Fe57      1.0  0.03596  0.60542  0.34995  1.0000
  N   N30       1.0  0.03796  0.69461  0.34678  1.0000
  H   H481      1.0  0.04164  0.72314  0.32809  1.0000
  C   C310      1.0  0.01944  0.72075  0.27216  1.0000
  C   C311      1.0  0.99637  0.66270  0.30422  1.0000
  H   H482      1.0  0.24628  0.78525  0.28835  1.0000
  H   H483      1.0  0.25301  0.83340  0.30271  1.0000
  C   C312      1.0  0.01128  0.72568  0.23910  1.0000
  H   H484      1.0  0.03548  0.64702  0.44615  1.0000
  H   H485      1.0  0.05759  0.71606  0.34667  1.0000
  H   H486      1.0  0.01192  0.54246  0.44649  1.0000
  H   H487      1.0  0.08151  0.91401  0.40387  1.0000
  H   H488      1.0  0.16387  0.81866  0.46702  1.0000
  N   N31       1.0  0.23348  0.81292  0.29986  1.0000
  S   S120      1.0  0.04426  0.59173  0.37973  1.0000
  H   H489      1.0  0.04632  0.65072  0.28641  1.0000
  C   C313      1.0  0.02289  0.53645  0.37082  1.0000
  H   H490      1.0  0.05390  0.68465  0.37153  1.0000
  C   C314      1.0  0.03872  0.68535  0.36757  1.0000
  C   C315      1.0  0.05327  0.68257  0.33371  1.0000
  C   C316      1.0  0.21376  0.81400  0.29357  1.0000
  N   N32       1.0  0.29682  0.90021  0.35640  1.0000
  H   H491      1.0  0.25058  0.80813  0.27149  1.0000
  H   H492      1.0  0.05344  0.90480  0.39040  1.0000
  Fe  Fe58      1.0  0.10567  0.94493  0.43720  1.0000
  H   H493      1.0  0.02738  0.69390  0.37797  1.0000
  S   S121      1.0  0.10224  0.94887  0.46891  1.0000
  C   C317      1.0  0.02572  0.52192  0.35823  1.0000
  S   S122      1.0  0.09211  0.91643  0.44333  1.0000
  H   H494      1.0  0.00663  0.91929  0.41139  1.0000
  H   H495      1.0  0.05644  0.90360  0.36449  1.0000
  H   H496      1.0  0.00553  0.54345  0.47250  1.0000
  H   H497      1.0  0.26558  0.90202  0.37004  1.0000
  Fe  Fe59      1.0  0.08634  0.92161  0.47475  1.0000
  H   H498      1.0  0.28926  0.91438  0.32802  1.0000
  Fe  Fe60      1.0  0.06263  0.93696  0.44074  1.0000
  C   C318      1.0  0.06034  0.91161  0.37544  1.0000
  H   H499      1.0  0.03954  0.90307  0.46142  1.0000
  C   C319      1.0  0.09167  0.88857  0.37773  1.0000
  H   H500      1.0  0.08545  0.88112  0.39265  1.0000
  H   H501      1.0  0.10832  0.88694  0.37694  1.0000
  H   H502      1.0  0.10782  0.91820  0.35219  1.0000
  H   H503      1.0  0.08807  0.91142  0.34237  1.0000
  C   C320      1.0  0.05398  0.62116  0.46022  1.0000
  H   H504      1.0  0.03551  0.66948  0.37047  1.0000
  H   H505      1.0  0.31631  0.87128  0.35867  1.0000
  H   H506      1.0  0.10324  0.92139  0.38716  1.0000
  C   C321      1.0  0.17581  0.89033  0.44575  1.0000
  H   H507      1.0  0.06882  0.68225  0.33659  1.0000
  H   H508      1.0  0.08472  0.93569  0.35057  1.0000
  H   H509      1.0  0.07915  0.93729  0.38688  1.0000
  N   N33       1.0  0.08247  0.91017  0.37389  1.0000
  C   C322      1.0  0.08680  0.92120  0.38857  1.0000
  C   C323      1.0  0.09108  0.91931  0.35387  1.0000
  Fe  Fe61      1.0  0.99340  0.62344  0.36647  1.0000
  C   C324      1.0  0.14912  0.91261  0.46281  1.0000
  H   H510      1.0  0.06075  0.89103  0.47324  1.0000
  N   N34       1.0  0.01486  0.57068  0.45469  1.0000
  C   C325      1.0  0.01997  0.57797  0.47152  1.0000
  H   H511      1.0  0.30689  0.92590  0.33658  1.0000
  H   H512      1.0  0.05018  0.62613  0.47448  1.0000
  H   H513      1.0  0.16895  0.89465  0.43205  1.0000
  H   H514      1.0  0.04519  0.57003  0.43882  1.0000
  S   S123      1.0  0.05564  0.93975  0.47282  1.0000
  Fe  Fe62      1.0  0.07186  0.96677  0.46398  1.0000
  H   H515      1.0  0.14118  0.91703  0.44981  1.0000
  H   H516      1.0  0.99457  0.71556  0.29566  1.0000
  H   H517      1.0  0.04079  0.72677  0.24563  1.0000
  S   S124      1.0  0.99779  0.61176  0.39771  1.0000
  H   H518      1.0  0.13836  0.88096  0.45134  1.0000
  C   C326      1.0  0.29322  0.91837  0.34139  1.0000
  H   H519      1.0  0.99592  0.67937  0.30246  1.0000
  C   C327      1.0  0.99899  0.50552  0.37942  1.0000
  C   C328      1.0  0.30307  0.90615  0.37336  1.0000
  C   C329      1.0  0.04575  0.88892  0.47059  1.0000
  H   H520      1.0  0.27258  0.88723  0.35044  1.0000
  H   H521      1.0  0.13749  0.91417  0.47620  1.0000
  H   H522      1.0  0.01238  0.67792  0.26724  1.0000
  H   H523      1.0  0.00064  0.62685  0.29096  1.0000
  H   H524      1.0  0.99663  0.65640  0.32008  1.0000
  C   C330      1.0  0.99416  0.58019  0.45154  1.0000
  H   H525      1.0  0.99807  0.65840  0.26664  1.0000
  S   S125      1.0  0.32456  0.93185  0.25456  1.0000
  H   H526      1.0  0.01417  0.86860  0.47677  1.0000
  H   H527      1.0  0.00523  0.89528  0.47597  1.0000
  C   C331      1.0  0.18154  0.78465  0.51930  1.0000
  H   H528      1.0  0.11898  0.55019  0.51817  1.0000
  H   H529      1.0  0.15887  0.70144  0.65419  1.0000
  H   H530      1.0  0.18583  0.89035  0.57469  1.0000
  H   H531      1.0  0.04323  0.90425  0.50389  1.0000
  S   S126      1.0  0.00353  0.56635  0.55241  1.0000
  H   H532      1.0  0.14264  0.68161  0.72162  1.0000
  Fe  Fe63      1.0  0.31995  0.92226  0.66140  1.0000
  S   S127      1.0  0.32133  0.91526  0.69407  1.0000
  H   H533      1.0  0.06517  0.66948  0.55408  1.0000
  C   C332      1.0  0.29222  0.85699  0.66472  1.0000
  H   H534      1.0  0.18171  0.94620  0.56703  1.0000
  C   C333      1.0  0.02869  0.90155  0.50054  1.0000
  Fe  Fe64      1.0  0.02615  0.58754  0.54011  1.0000
  S   S128      1.0  0.05925  0.57566  0.53447  1.0000
  H   H535      1.0  0.02172  0.91590  0.49214  1.0000
  Fe  Fe65      1.0  0.03260  0.63113  0.52588  1.0000
  S   S129      1.0  0.06622  0.62314  0.51861  1.0000
  S   S130      1.0  0.01840  0.66364  0.52438  1.0000
  Fe  Fe66      1.0  0.05906  0.59757  0.50621  1.0000
  Fe  Fe67      1.0  0.06321  0.60220  0.54748  1.0000
  S   S131      1.0  0.08300  0.59817  0.57061  1.0000
  S   S132      1.0  0.02546  0.60752  0.51080  1.0000
  S   S133      1.0  0.03003  0.61217  0.55579  1.0000
  Fe  Fe68      1.0  0.18229  0.86293  0.54617  1.0000
  S   S134      1.0  0.18341  0.83567  0.53168  1.0000
  S   S135      1.0  0.15728  0.88940  0.54963  1.0000
  Fe  Fe69      1.0  0.22700  0.85490  0.54945  1.0000
  S   S136      1.0  0.23223  0.82695  0.53494  1.0000
  S   S137      1.0  0.25204  0.87080  0.55416  1.0000
  Fe  Fe70      1.0  0.21216  0.84450  0.51360  1.0000
  C   C334      1.0  0.19498  0.70244  0.66325  1.0000
  Fe  Fe71      1.0  0.20311  0.81964  0.55412  1.0000
  S   S138      1.0  0.20318  0.78613  0.56607  1.0000
  S   S139      1.0  0.20948  0.87298  0.52622  1.0000
  S   S140      1.0  0.19944  0.84624  0.57042  1.0000
  H   H536      1.0  0.19720  0.78663  0.48062  1.0000
  S   S141      1.0  0.29048  0.93767  0.65202  1.0000
  S   S142      1.0  0.27238  0.89820  0.62982  1.0000
  H   H537      1.0  0.17714  0.93000  0.59042  1.0000
  H   H538      1.0  0.23174  0.91425  0.57134  1.0000
  H   H539      1.0  0.02197  0.67444  0.60658  1.0000
  Fe  Fe72      1.0  0.12256  0.68206  0.60344  1.0000
  S   S143      1.0  0.09853  0.70783  0.61175  1.0000
  S   S144      1.0  0.12429  0.67357  0.57340  1.0000
  Fe  Fe73      1.0  0.13911  0.67627  0.64211  1.0000
  S   S145      1.0  0.11603  0.70125  0.65363  1.0000
  Fe  Fe74      1.0  0.09388  0.68830  0.64136  1.0000
  S   S146      1.0  0.06414  0.68011  0.65856  1.0000
  Fe  Fe75      1.0  0.12297  0.71849  0.62288  1.0000
  S   S147      1.0  0.12645  0.75170  0.61869  1.0000
  S   S148      1.0  0.11648  0.66175  0.63235  1.0000
  S   S149      1.0  0.14749  0.69424  0.61213  1.0000
  H   H540      1.0  0.20634  0.93304  0.53947  1.0000
  H   H541      1.0  0.17875  0.87065  0.48249  1.0000
  H   H542      1.0  0.12040  0.57391  0.54104  1.0000
  H   H543      1.0  0.21179  0.70032  0.66061  1.0000
  C   C335      1.0  0.04271  0.69063  0.64730  1.0000
  C   C336      1.0  0.02518  0.68146  0.65260  1.0000
  C   C337      1.0  0.02626  0.71558  0.62334  1.0000
  C   C338      1.0  0.04307  0.70787  0.63283  1.0000
  H   H544      1.0  0.02674  0.72888  0.61207  1.0000
  H   H545      1.0  0.05623  0.71540  0.62903  1.0000
  C   C339      1.0  0.11541  0.56381  0.50705  1.0000
  H   H546      1.0  0.21937  0.90738  0.54296  1.0000
  C   C340      1.0  0.25778  0.87747  0.57563  1.0000
  C   C341      1.0  0.24691  0.87225  0.59447  1.0000
  C   C342      1.0  0.25154  0.87874  0.61089  1.0000
  C   C343      1.0  0.26713  0.89038  0.60870  1.0000
  C   C344      1.0  0.27801  0.89554  0.58990  1.0000
  C   C345      1.0  0.27333  0.88912  0.57349  1.0000
  H   H547      1.0  0.23508  0.86308  0.59642  1.0000
  H   H548      1.0  0.24309  0.87460  0.62539  1.0000
  H   H549      1.0  0.03983  0.66524  0.55492  1.0000
  H   H550      1.0  0.12694  0.61178  0.49509  1.0000
  C   C346      1.0  0.18131  0.77704  0.57996  1.0000
  C   C347      1.0  0.16489  0.79010  0.58833  1.0000
  C   C348      1.0  0.14807  0.78215  0.60003  1.0000
  C   C349      1.0  0.14738  0.76120  0.60311  1.0000
  C   C350      1.0  0.16359  0.74824  0.59428  1.0000
  C   C351      1.0  0.18060  0.75610  0.58296  1.0000
  H   H551      1.0  0.16529  0.80626  0.58613  1.0000
  H   H552      1.0  0.13555  0.79228  0.60678  1.0000
  H   H553      1.0  0.16306  0.73217  0.59623  1.0000
  H   H554      1.0  0.19322  0.74591  0.57647  1.0000
  H   H555      1.0  0.18107  0.89674  0.48114  1.0000
  H   H556      1.0  0.12482  0.64116  0.72178  1.0000
  N   N35       1.0  0.03195  0.88442  0.48934  1.0000
  N   N36       1.0  0.18659  0.71366  0.64560  1.0000
  C   C352      1.0  0.00898  0.70611  0.62815  1.0000
  C   C353      1.0  0.16426  0.65652  0.68306  1.0000
  H   H557      1.0  0.11847  0.65856  0.67963  1.0000
  H   H558      1.0  0.21057  0.69938  0.62547  1.0000
  H   H559      1.0  0.19742  0.74509  0.52387  1.0000
  H   H560      1.0  0.20995  0.73244  0.63639  1.0000
  C   C354      1.0  0.09485  0.61895  0.57106  1.0000
  C   C355      1.0  0.10092  0.62092  0.58854  1.0000
  C   C356      1.0  0.11000  0.63762  0.58939  1.0000
  C   C357      1.0  0.11336  0.65225  0.57267  1.0000
  C   C358      1.0  0.10769  0.65003  0.55504  1.0000
  C   C359      1.0  0.09832  0.63349  0.55427  1.0000
  H   H561      1.0  0.09846  0.60960  0.60152  1.0000
  H   H562      1.0  0.11470  0.63896  0.60290  1.0000
  H   H563      1.0  0.11035  0.66128  0.54204  1.0000
  H   H564      1.0  0.09390  0.63202  0.54067  1.0000
  H   H565      1.0  0.09866  0.56782  0.50896  1.0000
  C   C360      1.0  0.01347  0.51642  0.51407  1.0000
  C   C361      1.0  0.02476  0.53242  0.50871  1.0000
  C   C362      1.0  0.02176  0.54767  0.52052  1.0000
  C   C363      1.0  0.00741  0.54704  0.53776  1.0000
  H   H566      1.0  0.30164  0.86587  0.65257  1.0000
  H   H567      1.0  0.12388  0.59973  0.53134  1.0000
  C   C364      1.0  0.20154  0.77210  0.49035  1.0000
  H   H568      1.0  0.26546  0.88813  0.67733  1.0000
  C   C365      1.0  0.10903  0.89222  0.51163  1.0000
  C   C366      1.0  0.11884  0.87338  0.51981  1.0000
  C   C367      1.0  0.13376  0.87243  0.53139  1.0000
  C   C368      1.0  0.13859  0.89033  0.53522  1.0000
  C   C369      1.0  0.12857  0.90918  0.52727  1.0000
  C   C370      1.0  0.11396  0.91014  0.51531  1.0000
  H   H569      1.0  0.11498  0.85947  0.51710  1.0000
  H   H570      1.0  0.14116  0.85784  0.53777  1.0000
  H   H571      1.0  0.13217  0.92307  0.53028  1.0000
  H   H572      1.0  0.10625  0.92473  0.50929  1.0000
  C   C371      1.0  0.17698  0.63962  0.71332  1.0000
  H   H573      1.0  0.15742  0.72467  0.63701  1.0000
  N   N37       1.0  0.20039  0.91685  0.56898  1.0000
  C   C372      1.0  0.21693  0.92381  0.57557  1.0000
  H   H574      1.0  0.19272  0.91218  0.54193  1.0000
  H   H575      1.0  0.18947  0.71054  0.67619  1.0000
  C   C373      1.0  0.00834  0.68915  0.64300  1.0000
  H   H576      1.0  0.30496  0.95730  0.68185  1.0000
  H   H577      1.0  0.19619  0.89451  0.59508  1.0000
  S   S150      1.0  0.16400  0.65709  0.65777  1.0000
  H   H578      1.0  0.15822  0.72517  0.66237  1.0000
  C   C374      1.0  0.31556  0.96876  0.71248  1.0000
  H   H579      1.0  0.15889  0.88720  0.49507  1.0000
  H   H580      1.0  0.00453  0.58754  0.58567  1.0000
  H   H581      1.0  0.15468  0.58751  0.50866  1.0000
  C   C375      1.0  0.18106  0.93019  0.57420  1.0000
  C   C376      1.0  0.14707  0.57488  0.50702  1.0000
  H   H582      1.0  0.99721  0.58352  0.61200  1.0000
  C   C377      1.0  0.11637  0.64256  0.68560  1.0000
  H   H583      1.0  0.27925  0.89246  0.69543  1.0000
  H   H584      1.0  0.03611  0.53284  0.49560  1.0000
  H   H585      1.0  0.18879  0.68672  0.63270  1.0000
  H   H586      1.0  0.03057  0.55993  0.51624  1.0000
  N   N38       1.0  0.29029  0.86452  0.68365  1.0000
  H   H587      1.0  0.03172  0.64999  0.59933  1.0000
  H   H588      1.0  0.18646  0.62726  0.72097  1.0000
  H   H589      1.0  0.21845  0.93978  0.56882  1.0000
  H   H590      1.0  0.08332  0.66938  0.69501  1.0000
  H   H591      1.0  0.10332  0.60367  0.49542  1.0000
  Fe  Fe76      1.0  0.29746  0.91639  0.62953  1.0000
  C   C378      1.0  0.09980  0.61973  0.71170  1.0000
  H   H592      1.0  0.05178  0.70350  0.56443  1.0000
  C   C379      1.0  0.15226  0.67022  0.71362  1.0000
  H   H593      1.0  0.00922  0.57424  0.48532  1.0000
  H   H594      1.0  0.28185  0.89322  0.55899  1.0000
  N   N39       1.0  0.20193  0.77553  0.51053  1.0000
  H   H595      1.0  0.07501  0.67883  0.58329  1.0000
  H   H596      1.0  0.28935  0.98088  0.68649  1.0000
  C   C380      1.0  0.15203  0.67131  0.69340  1.0000
  C   C381      1.0  0.01235  0.88150  0.48509  1.0000
  H   H597      1.0  0.17623  0.79934  0.51036  1.0000
  N   N40       1.0  0.04502  0.67478  0.58091  1.0000
  C   C382      1.0  0.02760  0.66640  0.59364  1.0000
  C   C383      1.0  0.05196  0.66366  0.56396  1.0000
  C   C384      1.0  0.06164  0.67248  0.59237  1.0000
  C   C385      1.0  0.03885  0.69656  0.57366  1.0000
  H   H598      1.0  0.10050  0.59145  0.53116  1.0000
  H   H599      1.0  0.21259  0.88518  0.57432  1.0000
  H   H600      1.0  0.01471  0.66809  0.58552  1.0000
  H   H601      1.0  0.29934  0.84076  0.66566  1.0000
  H   H602      1.0  0.22350  0.74865  0.51677  1.0000
  H   H603      1.0  0.05650  0.64712  0.56888  1.0000
  H   H604      1.0  0.28985  0.89554  0.66981  1.0000
  H   H605      1.0  0.23204  0.78317  0.50291  1.0000
  H   H606      1.0  0.05685  0.68052  0.60540  1.0000
  H   H607      1.0  0.15132  0.56168  0.51836  1.0000
  H   H608      1.0  0.03289  0.70530  0.58607  1.0000
  C   C386      1.0  0.11717  0.58676  0.52902  1.0000
  S   S151      1.0  0.09103  0.89293  0.49649  1.0000
  H   H609      1.0  0.18287  0.83008  0.48890  1.0000
  C   C387      1.0  0.99461  0.66419  0.53916  1.0000
  N   N41       1.0  0.10198  0.64123  0.70433  1.0000
  C   C388      1.0  0.16447  0.65422  0.72372  1.0000
  H   H610      1.0  0.11100  0.63658  0.67407  1.0000
  H   H611      1.0  0.06684  0.65622  0.59790  1.0000
  H   H612      1.0  0.31632  0.95195  0.71405  1.0000
  H   H613      1.0  0.13156  0.63377  0.68753  1.0000
  C   C389      1.0  0.27760  0.85239  0.69925  1.0000
  H   H614      1.0  0.26220  0.85350  0.69562  1.0000
  H   H615      1.0  0.17021  0.77443  0.52048  1.0000
  H   H616      1.0  0.01846  0.89861  0.51485  1.0000
  S   S152      1.0  0.31315  0.93866  0.60631  1.0000
  C   C390      1.0  0.31054  0.86269  0.68907  1.0000
  H   H617      1.0  0.28437  0.83602  0.70121  1.0000
  S   S153      1.0  0.01696  0.49795  0.49855  1.0000
  H   H618      1.0  0.02666  0.69884  0.56457  1.0000
  C   C391      1.0  0.19378  0.70193  0.62908  1.0000
  H   H619      1.0  0.18136  0.78770  0.53445  1.0000
  H   H620      1.0  0.19046  0.68703  0.66753  1.0000
  H   H621      1.0  0.07086  0.65272  0.71470  1.0000
  H   H622      1.0  0.02474  0.66822  0.66392  1.0000
  H   H623      1.0  0.11457  0.61042  0.71445  1.0000
  C   C392      1.0  0.19319  0.73383  0.64006  1.0000
  H   H624      1.0  0.14228  0.68352  0.68594  1.0000
  H   H625      1.0  0.27723  0.85846  0.66003  1.0000
  H   H626      1.0  0.15338  0.57043  0.49225  1.0000
  C   C393      1.0  0.20489  0.91742  0.54737  1.0000
  C   C394      1.0  0.16430  0.71636  0.65000  1.0000
  H   H627      1.0  0.09413  0.61299  0.70086  1.0000
  H   H628      1.0  0.05588  0.86763  0.50460  1.0000
  C   C395      1.0  0.17017  0.88634  0.48135  1.0000
  H   H629      1.0  0.18653  0.62941  0.68505  1.0000
  C   C396      1.0  0.30494  0.97389  0.68070  1.0000
  H   H630      1.0  0.18683  0.74272  0.62693  1.0000
  H   H631      1.0  0.00140  0.87837  0.49887  1.0000
  H   H632      1.0  0.21749  0.79202  0.52471  1.0000
  H   H633      1.0  0.18780  0.70996  0.61550  1.0000
  H   H634      1.0  0.21447  0.92292  0.59189  1.0000
  C   C397      1.0  0.11992  0.59854  0.49400  1.0000
  C   C398      1.0  0.28073  0.88608  0.68156  1.0000
  H   H635      1.0  0.08900  0.61815  0.72581  1.0000
  H   H636      1.0  0.12040  0.55940  0.49209  1.0000
  C   C399      1.0  0.17694  0.64086  0.69300  1.0000
  N   N42       1.0  0.12490  0.58099  0.50927  1.0000
  H   H637      1.0  0.21223  0.80449  0.50092  1.0000
  C   C400      1.0  0.21654  0.78939  0.50971  1.0000
  C   C401      1.0  0.99926  0.51560  0.53143  1.0000
  C   C402      1.0  0.19866  0.89582  0.57873  1.0000
  H   H638      1.0  0.29007  0.90443  0.58798  1.0000
  N   N43       1.0  0.32001  0.97793  0.69153  1.0000
  H   H639      1.0  0.16836  0.92515  0.56936  1.0000
  Fe  Fe77      1.0  0.30878  0.95837  0.62982  1.0000
  H   H640      1.0  0.18805  0.74303  0.65224  1.0000
  H   H641      1.0  0.99958  0.68605  0.55570  1.0000
  H   H642      1.0  0.32056  0.87148  0.67752  1.0000
  S   S154      1.0  0.22118  0.84571  0.48057  1.0000
  H   H643      1.0  0.21665  0.76508  0.48334  1.0000
  H   H644      1.0  0.19049  0.76192  0.49033  1.0000
  H   H645      1.0  0.03111  0.86187  0.51546  1.0000
  C   C403      1.0  0.08214  0.65311  0.70091  1.0000
  H   H646      1.0  0.07583  0.64725  0.68988  1.0000
  H   H647      1.0  0.30972  0.86870  0.70304  1.0000
  C   C404      1.0  0.20813  0.75594  0.52283  1.0000
  C   C405      1.0  0.99617  0.53096  0.54322  1.0000
  H   H648      1.0  0.11116  0.66583  0.71413  1.0000
  H   H649      1.0  0.20854  0.75809  0.53816  1.0000
  H   H650      1.0  0.31818  0.84661  0.69104  1.0000
  C   C406      1.0  0.04107  0.86576  0.50116  1.0000
  C   C407      1.0  0.10965  0.64952  0.71909  1.0000
  H   H651      1.0  0.30015  0.97505  0.71943  1.0000
  H   H652      1.0  0.04388  0.85251  0.49316  1.0000
  H   H653      1.0  0.27585  0.85771  0.71371  1.0000
  H   H654      1.0  0.99367  0.62572  0.58380  1.0000
  H   H655      1.0  0.99503  0.68179  0.64685  1.0000
  H   H656      1.0  0.30808  0.98014  0.66475  1.0000
  H   H657      1.0  0.12504  0.59464  0.47886  1.0000
  H   H658      1.0  0.13404  0.87811  0.47773  1.0000
  S   S155      1.0  0.07621  0.58734  0.47812  1.0000
  S   S156      1.0  0.05121  0.56014  0.90130  1.0000
  H   H659      1.0  0.99319  0.54893  0.84163  1.0000
  Fe  Fe78      1.0  0.05396  0.54546  0.87460  1.0000
  S   S157      1.0  0.08446  0.60201  0.89060  1.0000
  C   C408      1.0  0.09344  0.57459  0.95981  1.0000
  C   C409      1.0  0.32361  0.69628  0.94344  1.0000
  H   H660      1.0  0.10504  0.58393  0.95152  1.0000
  H   H661      1.0  0.05751  0.61339  0.97417  1.0000
  H   H662      1.0  0.14858  0.57773  0.87507  1.0000
  H   H663      1.0  0.14059  0.56326  0.84771  1.0000
  Fe  Fe79      1.0  0.30502  0.67440  0.86179  1.0000
  S   S158      1.0  0.27983  0.65745  0.85937  1.0000
  H   H664      1.0  0.19428  0.68417  0.86829  1.0000
  S   S159      1.0  0.29864  0.70271  0.87602  1.0000
  H   H665      1.0  0.17137  0.67804  0.84678  1.0000
  Fe  Fe80      1.0  0.22060  0.62483  0.78844  1.0000
  S   S160      1.0  0.19212  0.64738  0.79065  1.0000
  S   S161      1.0  0.24990  0.63761  0.78517  1.0000
  Fe  Fe81      1.0  0.19722  0.58949  0.79207  1.0000
  S   S162      1.0  0.16698  0.60970  0.79465  1.0000
  S   S163      1.0  0.19701  0.55552  0.80090  1.0000
  Fe  Fe82      1.0  0.18194  0.63115  0.76998  1.0000
  S   S164      1.0  0.16247  0.65266  0.74945  1.0000
  Fe  Fe83      1.0  0.17942  0.62439  0.81475  1.0000
  S   S165      1.0  0.16375  0.63465  0.84335  1.0000
  S   S166      1.0  0.21162  0.60983  0.76570  1.0000
  S   S167      1.0  0.20860  0.60295  0.81422  1.0000
  C   C410      1.0  0.19686  0.53851  0.78468  1.0000
  H   H666      1.0  0.21785  0.69385  0.81517  1.0000
  Fe  Fe84      1.0  0.08024  0.57109  0.88678  1.0000
  C   C411      1.0  0.19022  0.50554  0.78049  1.0000
  C   C412      1.0  0.18966  0.52011  0.79256  1.0000
  C   C413      1.0  0.15715  0.55959  0.84261  1.0000
  Fe  Fe85      1.0  0.32130  0.68656  0.89559  1.0000
  H   H667      1.0  0.18361  0.51717  0.80809  1.0000
  C   C414      1.0  0.27372  0.65066  0.83817  1.0000
  C   C415      1.0  0.28041  0.65998  0.81902  1.0000
  C   C416      1.0  0.27344  0.65542  0.80283  1.0000
  C   C417      1.0  0.25960  0.64171  0.80565  1.0000
  C   C418      1.0  0.25338  0.63201  0.82474  1.0000
  C   C419      1.0  0.26051  0.63639  0.84086  1.0000
  H   H668      1.0  0.29059  0.67099  0.81673  1.0000
  H   H669      1.0  0.27844  0.66290  0.78810  1.0000
  H   H670      1.0  0.24305  0.62115  0.82708  1.0000
  H   H671      1.0  0.25555  0.62887  0.85559  1.0000
  S   S168      1.0  0.02800  0.55030  0.85780  1.0000
  H   H672      1.0  0.21927  0.66811  0.81132  1.0000
  S   S169      1.0  0.08137  0.55908  0.85887  1.0000
  H   H673      1.0  0.09936  0.64847  0.73353  1.0000
  H   H674      1.0  0.07298  0.49396  0.83740  1.0000
  H   H675      1.0  0.19954  0.54726  0.86386  1.0000
  H   H676      1.0  0.05974  0.54997  0.82339  1.0000
  C   C420      1.0  0.00496  0.49758  0.87559  1.0000
  H   H677      1.0  0.03034  0.50955  0.88080  1.0000
  H   H678      1.0  0.23502  0.67395  0.82664  1.0000
  S   S170      1.0  0.09990  0.54398  0.90021  1.0000
  Fe  Fe86      1.0  0.07093  0.53184  0.91277  1.0000
  H   H679      1.0  0.14538  0.54119  0.87918  1.0000
  C   C421      1.0  0.00208  0.51807  0.96580  1.0000
  H   H680      1.0  0.18174  0.67184  0.82282  1.0000
  H   H681      1.0  0.18120  0.69708  0.82758  1.0000
  H   H682      1.0  0.13072  0.51974  0.95605  1.0000
  C   C422      1.0  0.07273  0.60391  0.97230  1.0000
  H   H683      1.0  0.15199  0.50625  0.82007  1.0000
  C   C423      1.0  0.10617  0.61099  0.87656  1.0000
  C   C424      1.0  0.11416  0.62536  0.88345  1.0000
  C   C425      1.0  0.13170  0.63258  0.87296  1.0000
  C   C426      1.0  0.14117  0.62582  0.85526  1.0000
  C   C427      1.0  0.13293  0.61181  0.84797  1.0000
  C   C428      1.0  0.11554  0.60415  0.85879  1.0000
  H   H684      1.0  0.10691  0.63077  0.89709  1.0000
  H   H685      1.0  0.13795  0.64344  0.87863  1.0000
  H   H686      1.0  0.14001  0.60677  0.83416  1.0000
  H   H687      1.0  0.10921  0.59327  0.85326  1.0000
  C   C429      1.0  0.06754  0.59467  0.94214  1.0000
  H   H688      1.0  0.17342  0.57129  0.88158  1.0000
  C   C430      1.0  0.99648  0.53465  0.85121  1.0000
  C   C431      1.0  0.08017  0.51996  0.95944  1.0000
  C   C432      1.0  0.10061  0.51892  0.95110  1.0000
  C   C433      1.0  0.05704  0.54063  0.81289  1.0000
  H   H689      1.0  0.20416  0.70300  0.84893  1.0000
  H   H690      1.0  0.10544  0.51679  0.93590  1.0000
  H   H691      1.0  0.09569  0.53195  0.79740  1.0000
  H   H692      1.0  0.16193  0.57251  0.83140  1.0000
  C   C434      1.0  0.20588  0.68647  0.85486  1.0000
  H   H693      1.0  0.05726  0.56130  0.96545  1.0000
  C   C435      1.0  0.01317  0.53104  0.86100  1.0000
  H   H694      1.0  0.19365  0.53737  0.84378  1.0000
  H   H695      1.0  0.20607  0.64291  0.83736  1.0000
  H   H696      1.0  0.99680  0.50463  0.96257  1.0000
  S   S171      1.0  0.12749  0.51816  0.85506  1.0000
  Fe  Fe87      1.0  0.09864  0.53067  0.87344  1.0000
  H   H697      1.0  0.15961  0.54615  0.83489  1.0000
  C   C436      1.0  0.19041  0.55070  0.85174  1.0000
  H   H698      1.0  0.08386  0.61390  0.96426  1.0000
  H   H699      1.0  0.09460  0.52994  0.82358  1.0000
  H   H700      1.0  0.16963  0.58718  0.85861  1.0000
  H   H701      1.0  0.21268  0.52996  0.73724  1.0000
  H   H702      1.0  0.05211  0.60372  0.94307  1.0000
  H   H703      1.0  0.16993  0.53482  0.88650  1.0000
  C   C437      1.0  0.19879  0.50886  0.76058  1.0000
  C   C438      1.0  0.16490  0.57372  0.86907  1.0000
  C   C439      1.0  0.20624  0.65262  0.84854  1.0000
  N   N44       1.0  0.20385  0.67440  0.83997  1.0000
  S   S172      1.0  0.06164  0.52021  0.94499  1.0000
  C   C440      1.0  0.11494  0.52038  0.96257  1.0000
  C   C441      1.0  0.16191  0.53817  0.87357  1.0000
  N   N45       1.0  0.07298  0.58674  0.96192  1.0000
  H   H704      1.0  0.22068  0.64762  0.85440  1.0000
  N   N46       1.0  0.16859  0.55555  0.85925  1.0000
  H   H705      1.0  0.07060  0.51628  0.78509  1.0000
  H   H706      1.0  0.04059  0.53953  0.81609  1.0000
  S   S173      1.0  0.20188  0.48975  0.74568  1.0000
  C   C442      1.0  0.01748  0.51246  0.87318  1.0000
  H   H707      1.0  0.09418  0.56172  0.95174  1.0000
  C   C443      1.0  0.20602  0.52727  0.75265  1.0000
  H   H708      1.0  0.19593  0.56364  0.84104  1.0000
  H   H709      1.0  0.21061  0.55625  0.75843  1.0000
  C   C444      1.0  0.21965  0.67774  0.82252  1.0000
  H   H710      1.0  0.05008  0.50667  0.80240  1.0000
  H   H711      1.0  0.03750  0.49974  0.97664  1.0000
  C   C445      1.0  0.20484  0.54219  0.76461  1.0000
  C   C446      1.0  0.09114  0.52260  0.81187  1.0000
  C   C447      1.0  0.12688  0.49842  0.84219  1.0000
  C   C448      1.0  0.18367  0.68072  0.83403  1.0000
  C   C449      1.0  0.06624  0.50861  0.80043  1.0000
  H   H712      1.0  0.07542  0.49311  0.80190  1.0000
  S   S174      1.0  0.07128  0.51586  0.88714  1.0000
  H   H713      1.0  0.22104  0.68203  0.85957  1.0000
  H   H714      1.0  0.16464  0.52415  0.86665  1.0000
  H   H715      1.0  0.19379  0.64931  0.86094  1.0000
  N   N47       1.0  0.06957  0.52030  0.81506  1.0000
  C   C450      1.0  0.14100  0.49603  0.82507  1.0000
  C   C451      1.0  0.05824  0.57377  0.97339  1.0000
  C   C452      1.0  0.06383  0.50935  0.83512  1.0000
  H   H716      1.0  0.01539  0.52135  0.95437  1.0000
  H   H717      1.0  0.06791  0.58213  0.93372  1.0000
  C   C453      1.0  0.11240  0.48542  0.84840  1.0000
  H   H718      1.0  0.10160  0.48703  0.86174  1.0000
  H   H719      1.0  0.07829  0.60465  0.93313  1.0000
  S   S175      1.0  0.31798  0.68002  0.92902  1.0000
  H   H720      1.0  0.06039  0.54916  0.79776  1.0000
  H   H721      1.0  0.18430  0.49161  0.78667  1.0000
  H   H722      1.0  0.23189  0.49642  0.78707  1.0000
  H   H723      1.0  0.04764  0.50735  0.83801  1.0000
  H   H724      1.0  0.06600  0.51781  0.84653  1.0000
  H   H725      1.0  0.32342  0.67324  0.96925  1.0000
  H   H726      1.0  0.09796  0.56796  0.97443  1.0000
  H   H727      1.0  0.24785  0.49172  0.80556  1.0000
  H   H728      1.0  0.10108  0.50761  0.81199  1.0000
  H   H729      1.0  0.04285  0.58269  0.97636  1.0000
  C   C454      1.0  0.24434  0.48546  0.79320  1.0000
  H   H730      1.0  0.25783  0.48530  0.78136  1.0000
  Fe  Fe88      1.0  0.52161  0.12137  0.00842  1.0000
  S   S176      1.0  0.51359  0.09238  0.02677  1.0000
  Fe  Fe89      1.0  0.53635  0.13496  0.04209  1.0000
  S   S177      1.0  0.53025  0.10665  0.06309  1.0000
  S   S178      1.0  0.54090  0.16379  0.05151  1.0000
  Fe  Fe90      1.0  0.54321  0.09061  0.03700  1.0000
  S   S179      1.0  0.56416  0.06081  0.03848  1.0000
  Fe  Fe91      1.0  0.50126  0.11082  0.05113  1.0000
  S   S180      1.0  0.47020  0.11199  0.06927  1.0000
  S   S181      1.0  0.55225  0.11865  0.01676  1.0000
  S   S182      1.0  0.50654  0.13993  0.03171  1.0000
  H   H731      1.0  0.50513  0.02687  0.06676  1.0000
  H   H732      1.0  0.63283  0.26915  0.12771  1.0000
  H   H733      1.0  0.52304  0.05683  0.05762  1.0000
  S   S183      1.0  0.38247  0.36006  0.02038  1.0000
  Fe  Fe92      1.0  0.61272  0.19185  0.10896  1.0000
  S   S184      1.0  0.61141  0.18257  0.14158  1.0000
  S   S185      1.0  0.61588  0.16556  0.09227  1.0000
  Fe  Fe93      1.0  0.61050  0.23658  0.11146  1.0000
  S   S186      1.0  0.60824  0.23079  0.14449  1.0000
  S   S187      1.0  0.60918  0.26929  0.09628  1.0000
  Fe  Fe94      1.0  0.63287  0.20442  0.13945  1.0000
  H   H734      1.0  0.47844  0.16728  0.08783  1.0000
  Fe  Fe95      1.0  0.58691  0.20948  0.14384  1.0000
  S   S188      1.0  0.55944  0.20279  0.16594  1.0000
  S   S189      1.0  0.63658  0.21153  0.10634  1.0000
  S   S190      1.0  0.58673  0.21746  0.11133  1.0000
  Fe  Fe96      1.0  0.45109  0.18178  0.14270  1.0000
  S   S191      1.0  0.45864  0.20844  0.12022  1.0000
  S   S192      1.0  0.47321  0.15292  0.14202  1.0000
  Fe  Fe97      1.0  0.41546  0.20641  0.16475  1.0000
  S   S193      1.0  0.42003  0.23559  0.14414  1.0000
  S   S194      1.0  0.39189  0.20675  0.19223  1.0000
  Fe  Fe98      1.0  0.42523  0.21640  0.12022  1.0000
  S   S195      1.0  0.41653  0.22715  0.09000  1.0000
  Fe  Fe99      1.0  0.45297  0.22534  0.14568  1.0000
  S   S196      1.0  0.47419  0.24710  0.14551  1.0000
  S   S197      1.0  0.41797  0.18787  0.14059  1.0000
  S   S198      1.0  0.44803  0.19802  0.16844  1.0000
  C   C455      1.0  0.38733  0.18263  0.20492  1.0000
  C   C456      1.0  0.39482  0.16511  0.19631  1.0000
  C   C457      1.0  0.35113  0.40587  0.98807  1.0000
  H   H735      1.0  0.32875  0.18742  0.20351  1.0000
  H   H736      1.0  0.40399  0.16618  0.18183  1.0000
  Fe  Fe100     1.0  0.35467  0.34511  0.02743  1.0000
  Fe  Fe101     1.0  0.57502  0.45580  0.98526  1.0000
  C   C458      1.0  0.53601  0.21552  0.16006  1.0000
  C   C459      1.0  0.53442  0.23378  0.14688  1.0000
  C   C460      1.0  0.51536  0.24355  0.14255  1.0000
  C   C461      1.0  0.49804  0.23466  0.15073  1.0000
  C   C462      1.0  0.49980  0.21609  0.16342  1.0000
  C   C463      1.0  0.51865  0.20683  0.16845  1.0000
  H   H737      1.0  0.54780  0.24056  0.14036  1.0000
  H   H738      1.0  0.51410  0.25791  0.13269  1.0000
  H   H739      1.0  0.48666  0.20898  0.16973  1.0000
  H   H740      1.0  0.51985  0.19272  0.17868  1.0000
  C   C464      1.0  0.35836  0.27246  0.08491  1.0000
  C   C465      1.0  0.36342  0.26402  0.10355  1.0000
  C   C466      1.0  0.38115  0.24992  0.10531  1.0000
  C   C467      1.0  0.39380  0.24409  0.08840  1.0000
  C   C468      1.0  0.38859  0.25231  0.06977  1.0000
  C   C469      1.0  0.37092  0.26648  0.06802  1.0000
  H   H741      1.0  0.38496  0.24352  0.11974  1.0000
  H   H742      1.0  0.39822  0.24766  0.05667  1.0000
  H   H743      1.0  0.36685  0.27252  0.05364  1.0000
  H   H744      1.0  0.49868  0.18104  0.07574  1.0000
  C   C470      1.0  0.43459  0.26258  0.21702  1.0000
  S   S199      1.0  0.33661  0.29086  0.08316  1.0000
  C   C471      1.0  0.55200  0.00330  0.04957  1.0000
  H   H745      1.0  0.59608  0.48264  0.03078  1.0000
  C   C472      1.0  0.63109  0.27898  0.08318  1.0000
  C   C473      1.0  0.63029  0.30008  0.07749  1.0000
  C   C474      1.0  0.62876  0.38022  0.98365  1.0000
  H   H746      1.0  0.61614  0.31008  0.08063  1.0000
  N   N48       1.0  0.47381  0.18531  0.05987  1.0000
  H   H747      1.0  0.42429  0.29101  0.07831  1.0000
  H   H748      1.0  0.45027  0.18187  0.04473  1.0000
  H   H749      1.0  0.63985  0.28845  0.13830  1.0000
  H   H750      1.0  0.51969  0.04637  0.01758  1.0000
  C   C475      1.0  0.51295  0.01208  0.00752  1.0000
  H   H751      1.0  0.39619  0.29448  0.04860  1.0000
  S   S200      1.0  0.35808  0.31170  0.02723  1.0000
  N   N49       1.0  0.43686  0.25195  0.19992  1.0000
  S   S201      1.0  0.64536  0.40360  0.05963  1.0000
  C   C476      1.0  0.62551  0.41696  0.04735  1.0000
  C   C477      1.0  0.46977  0.12106  0.09127  1.0000
  C   C478      1.0  0.45286  0.13419  0.09880  1.0000
  C   C479      1.0  0.45357  0.14374  0.11478  1.0000
  C   C480      1.0  0.47092  0.13952  0.12365  1.0000
  C   C481      1.0  0.48722  0.12528  0.11700  1.0000
  C   C482      1.0  0.48673  0.11626  0.10068  1.0000
  H   H752      1.0  0.43950  0.13751  0.09185  1.0000
  H   H753      1.0  0.44078  0.15444  0.12008  1.0000
  H   H754      1.0  0.50044  0.12153  0.12417  1.0000
  H   H755      1.0  0.49938  0.10535  0.09557  1.0000
  C   C483      1.0  0.56246  0.16399  0.06184  1.0000
  C   C484      1.0  0.56522  0.18220  0.06699  1.0000
  C   C485      1.0  0.58171  0.18283  0.07606  1.0000
  C   C486      1.0  0.59561  0.16525  0.08004  1.0000
  C   C487      1.0  0.59305  0.14707  0.07461  1.0000
  C   C488      1.0  0.57644  0.14640  0.06561  1.0000
  H   H756      1.0  0.55459  0.19591  0.06391  1.0000
  H   H757      1.0  0.58381  0.19701  0.07969  1.0000
  H   H758      1.0  0.60379  0.13342  0.07754  1.0000
  H   H759      1.0  0.57444  0.13229  0.06165  1.0000
  C   C489      1.0  0.55160  0.03964  0.04682  1.0000
  C   C490      1.0  0.56209  0.02024  0.04434  1.0000
  C   C491      1.0  0.52105  0.02495  0.06060  1.0000
  C   C492      1.0  0.53113  0.04195  0.05526  1.0000
  H   H760      1.0  0.57798  0.01835  0.03806  1.0000
  C   C493      1.0  0.45689  0.23901  0.19761  1.0000
  H   H761      1.0  0.47669  0.20309  0.03087  1.0000
  H   H762      1.0  0.62174  0.35808  0.01968  1.0000
  C   C494      1.0  0.43510  0.26704  0.18186  1.0000
  C   C495      1.0  0.39181  0.38960  0.98907  1.0000
  C   C496      1.0  0.48717  0.17257  0.07325  1.0000
  H   H763      1.0  0.49586  0.18124  0.03391  1.0000
  H   H764      1.0  0.63449  0.17104  0.17608  1.0000
  H   H765      1.0  0.56026  0.98840  0.04758  1.0000
  C   C497      1.0  0.64800  0.16869  0.18266  1.0000
  H   H766      1.0  0.55182  0.03650  0.98287  1.0000
  H   H767      1.0  0.34501  0.38626  0.01570  1.0000
  H   H768      1.0  0.64418  0.11941  0.13938  1.0000
  C   C498      1.0  0.37674  0.38223  0.00379  1.0000
  H   H769      1.0  0.51771  0.99752  0.00150  1.0000
  S   S202      1.0  0.57295  0.45396  0.01792  1.0000
  H   H770      1.0  0.44976  0.16744  0.06898  1.0000
  Fe  Fe102     1.0  0.33187  0.31983  0.01054  1.0000
  H   H771      1.0  0.59973  0.34608  0.97935  1.0000
  H   H772      1.0  0.64337  0.12514  0.11325  1.0000
  H   H773      1.0  0.54949  0.02153  0.00694  1.0000
  H   H774      1.0  0.49846  0.05207  0.00468  1.0000
  H   H775      1.0  0.65074  0.28471  0.11352  1.0000
  C   C499      1.0  0.64519  0.13154  0.12627  1.0000
  N   N50       1.0  0.62094  0.36066  0.98871  1.0000
  C   C500      1.0  0.51519  0.04784  0.00282  1.0000
  H   H776      1.0  0.52185  0.06081  0.99330  1.0000
  C   C501      1.0  0.42087  0.23910  0.20310  1.0000
  H   H777      1.0  0.42214  0.23104  0.19033  1.0000
  H   H778      1.0  0.64258  0.24377  0.15655  1.0000
  H   H779      1.0  0.46835  0.15928  0.04919  1.0000
  H   H780      1.0  0.42158  0.29994  0.04291  1.0000
  H   H781      1.0  0.33536  0.41205  0.98771  1.0000
  C   C502      1.0  0.61098  0.35814  0.00955  1.0000
  H   H782      1.0  0.51744  0.00955  0.02235  1.0000
  S   S203      1.0  0.33303  0.34513  0.05581  1.0000
  H   H783      1.0  0.63195  0.14365  0.12878  1.0000
  H   H784      1.0  0.35365  0.26851  0.11666  1.0000
  H   H785      1.0  0.42038  0.27740  0.18320  1.0000
  H   H786      1.0  0.49615  0.01539  0.00966  1.0000
  H   H787      1.0  0.55027  0.00989  0.98564  1.0000
  C   C503      1.0  0.64576  0.27668  0.12859  1.0000
  C   C504      1.0  0.40831  0.29836  0.08188  1.0000
  H   H788      1.0  0.58160  0.44947  0.05676  1.0000
  H   H789      1.0  0.39870  0.28625  0.08435  1.0000
  H   H790      1.0  0.63728  0.40644  0.01952  1.0000
  H   H791      1.0  0.60866  0.42609  0.00314  1.0000
  C   C505      1.0  0.48624  0.19357  0.04142  1.0000
  H   H792      1.0  0.43617  0.25947  0.16879  1.0000
  N   N51       1.0  0.52214  0.02882  0.99435  1.0000
  H   H793      1.0  0.45900  0.22766  0.21106  1.0000
  H   H794      1.0  0.49673  0.20304  0.04435  1.0000
  H   H795      1.0  0.47152  0.21183  0.07347  1.0000
  H   H796      1.0  0.59827  0.37076  0.01227  1.0000
  H   H797      1.0  0.40650  0.30405  0.09615  1.0000
  C   C506      1.0  0.39014  0.14615  0.20630  1.0000
  H   H798      1.0  0.39566  0.13273  0.19936  1.0000
  H   H799      1.0  0.60998  0.43003  0.07298  1.0000
  C   C507      1.0  0.60982  0.42921  0.05770  1.0000
  C   C508      1.0  0.59374  0.44021  0.04852  1.0000
  C   C509      1.0  0.62514  0.41585  0.02759  1.0000
  C   C510      1.0  0.53141  0.00566  0.05743  1.0000
  C   C511      1.0  0.59329  0.43927  0.02881  1.0000
  N   N52       1.0  0.53315  0.16889  0.12458  1.0000
  C   C512      1.0  0.53975  0.18900  0.12123  1.0000
  C   C513      1.0  0.52201  0.16490  0.14487  1.0000
  C   C514      1.0  0.55104  0.15299  0.12191  1.0000
  C   C515      1.0  0.51982  0.16865  0.11032  1.0000
  H   H800      1.0  0.54769  0.19280  0.10590  1.0000
  H   H801      1.0  0.55043  0.18946  0.13128  1.0000
  H   H802      1.0  0.52670  0.20132  0.12382  1.0000
  H   H803      1.0  0.53154  0.16528  0.15602  1.0000
  H   H804      1.0  0.50819  0.17642  0.14729  1.0000
  H   H805      1.0  0.51686  0.14979  0.14794  1.0000
  H   H806      1.0  0.55960  0.15539  0.10667  1.0000
  H   H807      1.0  0.54663  0.13758  0.12447  1.0000
  H   H808      1.0  0.56163  0.15299  0.13220  1.0000
  H   H809      1.0  0.52775  0.17165  0.09485  1.0000
  H   H810      1.0  0.50600  0.18025  0.11219  1.0000
  H   H811      1.0  0.51471  0.15363  0.11235  1.0000
  N   N53       1.0  0.40251  0.31486  0.06597  1.0000
  C   C516      1.0  0.38102  0.32354  0.07115  1.0000
  C   C517      1.0  0.41512  0.33098  0.06349  1.0000
  C   C518      1.0  0.40553  0.30663  0.04729  1.0000
  C   C519      1.0  0.60901  0.42705  0.01830  1.0000
  H   H812      1.0  0.37096  0.31203  0.07243  1.0000
  H   H813      1.0  0.37632  0.33645  0.05975  1.0000
  H   H814      1.0  0.37795  0.32931  0.08549  1.0000
  H   H815      1.0  0.43147  0.32498  0.05963  1.0000
  H   H816      1.0  0.41109  0.34358  0.05146  1.0000
  H   H817      1.0  0.41305  0.33773  0.07722  1.0000
  C   C520      1.0  0.45998  0.17298  0.05543  1.0000
  H   H818      1.0  0.40117  0.31869  0.03500  1.0000
  H   H819      1.0  0.34792  0.16548  0.20290  1.0000
  C   C521      1.0  0.35655  0.39107  0.00375  1.0000
  H   H820      1.0  0.46943  0.24819  0.19432  1.0000
  H   H821      1.0  0.60481  0.34357  0.01392  1.0000
  C   C522      1.0  0.33219  0.17155  0.20029  1.0000
  H   H822      1.0  0.45196  0.19654  0.08336  1.0000
  C   C523      1.0  0.46175  0.20228  0.06953  1.0000
  H   H823      1.0  0.45149  0.21232  0.05989  1.0000
  H   H824      1.0  0.64707  0.32464  0.06399  1.0000
  H   H825      1.0  0.33215  0.17219  0.18427  1.0000
  H   H826      1.0  0.65018  0.24991  0.08311  1.0000
  H   H827      1.0  0.49552  0.15878  0.06714  1.0000
  S   S204      1.0  0.33042  0.35320  0.00854  1.0000
  H   H828      1.0  0.40750  0.38293  0.98915  1.0000
  H   H829      1.0  0.45878  0.23043  0.18516  1.0000
  C   C524      1.0  0.64945  0.26617  0.07909  1.0000
  C   C525      1.0  0.54441  0.02395  0.99233  1.0000
  H   H830      1.0  0.42181  0.22722  0.21637  1.0000
  H   H831      1.0  0.44747  0.27643  0.17842  1.0000
  C   C526      1.0  0.64778  0.30836  0.06807  1.0000
  Fe  Fe103     1.0  0.33450  0.31200  0.05440  1.0000
  H   H832      1.0  0.44649  0.27236  0.21503  1.0000
  H   H833      1.0  0.64986  0.34399  0.99447  1.0000
  H   H834      1.0  0.63273  0.32874  0.99010  1.0000
  H   H835      1.0  0.65656  0.23844  0.12196  1.0000
  H   H836      1.0  0.63921  0.14337  0.20421  1.0000
  C   C527      1.0  0.65066  0.15306  0.19868  1.0000
  H   H837      1.0  0.33905  0.13119  0.21158  1.0000
  H   H838      1.0  0.63955  0.38112  0.99342  1.0000
  S   S205      1.0  0.33259  0.30668  0.98297  1.0000
  H   H839      1.0  0.40546  0.24820  0.20490  1.0000
  C   C528      1.0  0.63788  0.34382  0.98573  1.0000
  H   H840      1.0  0.65232  0.16834  0.10728  1.0000
  H   H841      1.0  0.44065  0.45860  0.98252  1.0000
  H   H842      1.0  0.61634  0.39335  0.98501  1.0000
  S   S206      1.0  0.51271  0.13238  0.97852  1.0000
  H   H843      1.0  0.65324  0.16122  0.14289  1.0000
  H   H844      1.0  0.65010  0.26324  0.16653  1.0000
  C   C529      1.0  0.37559  0.18100  0.22378  1.0000
  C   C530      1.0  0.37815  0.14454  0.22503  1.0000
  C   C531      1.0  0.65537  0.25197  0.15621  1.0000
  H   H845      1.0  0.41961  0.27248  0.21918  1.0000
  H   H846      1.0  0.59335  0.37333  0.97733  1.0000
  H   H847      1.0  0.60683  0.01780  0.33027  1.0000
  S   S207      1.0  0.42427  0.03014  0.39966  1.0000
  C   C532      1.0  0.61654  0.00417  0.32642  1.0000
  Fe  Fe104     1.0  0.40660  0.00628  0.36075  1.0000
  S   S208      1.0  0.40928  0.03932  0.35695  1.0000
  C   C533      1.0  0.63525  0.00033  0.45670  1.0000
  Fe  Fe105     1.0  0.43851  0.02881  0.36830  1.0000
  S   S209      1.0  0.46462  0.04545  0.35470  1.0000
  Fe  Fe106     1.0  0.39476  0.03754  0.38850  1.0000
  S   S210      1.0  0.37100  0.06203  0.39995  1.0000
  H   H848      1.0  0.33078  0.05789  0.26329  1.0000
  S   S211      1.0  0.38973  0.00531  0.39179  1.0000
  Fe  Fe107     1.0  0.56430  0.03418  0.39096  1.0000
  C   C534      1.0  0.64072  0.11940  0.32676  1.0000
  C   C535      1.0  0.33386  0.02699  0.25769  1.0000
  Fe  Fe108     1.0  0.58376  0.06735  0.36287  1.0000
  S   S212      1.0  0.61378  0.05648  0.37257  1.0000
  S   S213      1.0  0.58291  0.09167  0.33644  1.0000
  Fe  Fe109     1.0  0.60802  0.02555  0.37133  1.0000
  S   S214      1.0  0.37098  0.12085  0.23627  1.0000
  Fe  Fe110     1.0  0.59607  0.05289  0.40307  1.0000
  S   S215      1.0  0.61107  0.06083  0.42595  1.0000
  S   S216      1.0  0.57917  0.03646  0.35933  1.0000
  S   S217      1.0  0.56605  0.06643  0.39362  1.0000
  H   H849      1.0  0.35070  0.03321  0.38483  1.0000
  H   H850      1.0  0.42420  0.10107  0.32887  1.0000
  C   C536      1.0  0.60453  0.10335  0.33270  1.0000
  H   H851      1.0  0.59414  0.98857  0.36414  1.0000
  C   C537      1.0  0.63282  0.11663  0.31058  1.0000
  C   C538      1.0  0.61462  0.10879  0.31354  1.0000
  H   H852      1.0  0.64050  0.12086  0.29576  1.0000
  H   H853      1.0  0.60852  0.10666  0.30101  1.0000
  C   C539      1.0  0.63141  0.99444  0.33777  1.0000
  H   H854      1.0  0.37523  0.99015  0.30612  1.0000
  H   H855      1.0  0.36990  0.19448  0.23057  1.0000
  C   C540      1.0  0.35230  0.11765  0.37121  1.0000
  C   C541      1.0  0.59540  0.07010  0.44642  1.0000
  C   C542      1.0  0.60443  0.07493  0.46096  1.0000
  C   C543      1.0  0.37981  0.03990  0.29468  1.0000
  H   H856      1.0  0.36562  0.03125  0.35032  1.0000
  H   H857      1.0  0.40502  0.00473  0.29024  1.0000
  H   H858      1.0  0.62063  0.07448  0.45873  1.0000
  C   C544      1.0  0.40380  0.05399  0.26804  1.0000
  H   H859      1.0  0.39199  0.06672  0.26321  1.0000
  C   C545      1.0  0.36398  0.08187  0.38151  1.0000
  C   C546      1.0  0.35703  0.10146  0.38611  1.0000
  H   H860      1.0  0.39620  0.02489  0.24983  1.0000
  C   C547      1.0  0.35405  0.11412  0.35183  1.0000
  C   C548      1.0  0.36049  0.09444  0.34736  1.0000
  C   C549      1.0  0.36568  0.07839  0.36216  1.0000
  H   H861      1.0  0.62551  0.03893  0.28533  1.0000
  S   S218      1.0  0.43741  0.99575  0.36959  1.0000
  H   H862      1.0  0.36180  0.09163  0.33245  1.0000
  H   H863      1.0  0.37077  0.06328  0.35864  1.0000
  C   C550      1.0  0.48526  0.03723  0.36738  1.0000
  C   C551      1.0  0.48545  0.02000  0.38191  1.0000
  C   C552      1.0  0.50190  0.01369  0.39213  1.0000
  C   C553      1.0  0.51798  0.02480  0.38816  1.0000
  C   C554      1.0  0.51791  0.04192  0.37350  1.0000
  C   C555      1.0  0.50158  0.04808  0.36306  1.0000
  C   C556      1.0  0.57436  0.07138  0.44914  1.0000
  H   H864      1.0  0.57199  0.00283  0.33893  1.0000
  H   H865      1.0  0.53032  0.05055  0.37031  1.0000
  H   H866      1.0  0.50153  0.06138  0.35177  1.0000
  H   H867      1.0  0.41130  0.05935  0.27850  1.0000
  C   C557      1.0  0.40230  0.00494  0.44788  1.0000
  H   H868      1.0  0.35086  0.02674  0.33342  1.0000
  H   H869      1.0  0.38676  0.04414  0.30620  1.0000
  C   C558      1.0  0.61236  0.10630  0.34885  1.0000
  Fe  Fe111     1.0  0.32802  0.08779  0.29446  1.0000
  C   C559      1.0  0.32951  0.01603  0.29859  1.0000
  C   C560      1.0  0.47510  0.99142  0.46708  1.0000
  H   H870      1.0  0.63632  0.11670  0.35844  1.0000
  N   N54       1.0  0.39500  0.03546  0.27728  1.0000
  C   C561      1.0  0.42228  0.08442  0.37807  1.0000
  H   H871      1.0  0.38257  0.02750  0.46360  1.0000
  C   C562      1.0  0.38514  0.02893  0.26295  1.0000
  N   N55       1.0  0.33511  0.02724  0.36301  1.0000
  C   C563      1.0  0.63393  0.01983  0.25346  1.0000
  H   H872      1.0  0.45758  0.08949  0.35448  1.0000
  C   C564      1.0  0.33197  0.00108  0.28653  1.0000
  C   C565      1.0  0.42203  0.09037  0.34297  1.0000
  H   H873      1.0  0.44948  0.11004  0.36848  1.0000
  S   S219      1.0  0.35797  0.09820  0.29158  1.0000
  H   H874      1.0  0.35566  0.10416  0.40112  1.0000
  H   H875      1.0  0.62451  0.01189  0.26630  1.0000
  H   H876      1.0  0.60447  0.10239  0.36367  1.0000
  C   C566      1.0  0.63034  0.11447  0.34588  1.0000
  H   H877      1.0  0.46750  0.04264  0.45300  1.0000
  H   H878      1.0  0.43273  0.07605  0.34101  1.0000
  H   H879      1.0  0.41273  0.12949  0.34806  1.0000
  S   S220      1.0  0.59302  0.02059  0.40286  1.0000
  H   H880      1.0  0.39504  0.11510  0.36445  1.0000
  H   H881      1.0  0.37324  0.04120  0.25759  1.0000
  C   C567      1.0  0.41113  0.01904  0.28352  1.0000
  H   H882      1.0  0.33282  0.15203  0.23776  1.0000
  H   H883      1.0  0.41296  0.12509  0.37422  1.0000
  H   H884      1.0  0.36774  0.05259  0.29057  1.0000
  H   H885      1.0  0.36234  0.16092  0.24848  1.0000
  H   H886      1.0  0.40642  0.08672  0.34529  1.0000
  Fe  Fe112     1.0  0.34890  0.11904  0.26473  1.0000
  C   C568      1.0  0.33555  0.03691  0.38018  1.0000
  C   C569      1.0  0.44633  0.10356  0.35608  1.0000
  H   H887      1.0  0.55097  0.00704  0.35839  1.0000
  H   H888      1.0  0.63988  0.04838  0.33166  1.0000
  S   S221      1.0  0.63385  0.00317  0.35916  1.0000
  C   C570      1.0  0.41093  0.11806  0.36169  1.0000
  H   H889      1.0  0.43323  0.07012  0.37720  1.0000
  N   N56       1.0  0.62481  0.01200  0.47261  1.0000
  H   H890      1.0  0.44861  0.01023  0.44233  1.0000
  C   C571      1.0  0.55968  0.99566  0.34905  1.0000
  H   H891      1.0  0.44929  0.11456  0.34232  1.0000
  C   C572      1.0  0.46686  0.02798  0.46318  1.0000
  H   H892      1.0  0.40683  0.08029  0.38106  1.0000
  H   H893      1.0  0.42427  0.09063  0.39110  1.0000
  H   H894      1.0  0.32791  0.01154  0.31439  1.0000
  C   C573      1.0  0.37121  0.16199  0.23391  1.0000
  N   N57       1.0  0.42540  0.09912  0.35970  1.0000
  H   H895      1.0  0.47067  0.99678  0.42935  1.0000
  H   H896      1.0  0.47301  0.01142  0.38515  1.0000
  H   H897      1.0  0.43581  0.25159  0.23088  1.0000
  H   H898      1.0  0.37766  0.01540  0.26967  1.0000
  H   H899      1.0  0.39655  0.01076  0.43422  1.0000
  C   C574      1.0  0.56245  0.07730  0.46652  1.0000
  C   C575      1.0  0.33409  0.00644  0.26605  1.0000
  H   H900      1.0  0.56730  0.06766  0.43796  1.0000
  C   C576      1.0  0.49752  0.01217  0.44478  1.0000
  H   H901      1.0  0.33542  0.03128  0.24184  1.0000
  C   C577      1.0  0.61438  0.99632  0.30986  1.0000
  C   C578      1.0  0.35022  0.03445  0.34630  1.0000
  H   H902      1.0  0.35542  0.00026  0.37203  1.0000
  H   H903      1.0  0.62351  0.02973  0.24393  1.0000
  S   S222      1.0  0.53796  0.01698  0.40175  1.0000
  H   H904      1.0  0.64167  0.07326  0.33581  1.0000
  H   H905      1.0  0.65061  0.06640  0.31185  1.0000
  H   H906      1.0  0.54622  0.07821  0.46866  1.0000
  Fe  Fe113     1.0  0.42069  0.99785  0.40048  1.0000
  N   N58       1.0  0.47613  0.01049  0.45292  1.0000
  C   C579      1.0  0.39436  0.01441  0.46454  1.0000
  H   H907      1.0  0.37234  0.02648  0.30159  1.0000
  H   H908      1.0  0.46627  0.02410  0.42529  1.0000
  H   H909      1.0  0.63492  0.00990  0.44191  1.0000
  H   H910      1.0  0.42313  0.01554  0.27088  1.0000
  C   C580      1.0  0.46499  0.01041  0.43676  1.0000
  H   H911      1.0  0.41841  0.02315  0.29488  1.0000
  H   H912      1.0  0.34656  0.05111  0.34136  1.0000
  S   S223      1.0  0.34850  0.13440  0.33325  1.0000
  S   S224      1.0  0.39516  0.00059  0.33429  1.0000
  C   C581      1.0  0.32896  0.03658  0.29034  1.0000
  H   H913      1.0  0.41529  0.05127  0.25478  1.0000
  H   H914      1.0  0.60282  0.00380  0.30114  1.0000
  H   H915      1.0  0.62798  0.98689  0.45688  1.0000
  H   H916      1.0  0.64307  0.00790  0.24497  1.0000
  H   H917      1.0  0.45066  0.02720  0.46946  1.0000
  C   C582      1.0  0.63490  0.02974  0.47166  1.0000
  H   H918      1.0  0.50215  0.00013  0.40306  1.0000
  C   C583      1.0  0.33997  0.00490  0.36811  1.0000
  S   S225      1.0  0.33411  0.14479  0.28106  1.0000
  H   H919      1.0  0.33965  0.99715  0.35547  1.0000
  H   H920      1.0  0.50516  0.99895  0.43739  1.0000
  Fe  Fe114     1.0  0.34048  0.12298  0.30810  1.0000
  H   H921      1.0  0.65277  0.00928  0.28519  1.0000
  H   H922      1.0  0.34727  0.13284  0.37474  1.0000
  H   H923      1.0  0.33210  0.98538  0.29313  1.0000
  S   S226      1.0  0.33740  0.98756  0.25084  1.0000
  C   C584      1.0  0.60344  0.01897  0.47014  1.0000
  H   H924      1.0  0.50619  0.01277  0.45659  1.0000
  H   H925      1.0  0.60221  0.02752  0.45513  1.0000
  H   H926      1.0  0.49898  0.02612  0.43366  1.0000
  H   H927      1.0  0.57311  0.99230  0.38354  1.0000
  C   C585      1.0  0.33123  0.04207  0.26981  1.0000
  H   H928      1.0  0.33206  0.05379  0.37677  1.0000
  H   H929      1.0  0.47473  0.02837  0.47564  1.0000
  H   H930      1.0  0.32911  0.99883  0.38086  1.0000
  N   N59       1.0  0.64699  0.03164  0.25985  1.0000
  C   C586      1.0  0.64962  0.06051  0.32790  1.0000
  H   H931      1.0  0.62347  0.05727  0.26336  1.0000
  H   H932      1.0  0.65140  0.99481  0.45817  1.0000
  H   H933      1.0  0.63517  0.03956  0.45699  1.0000
  C   C587      1.0  0.63438  0.04659  0.27184  1.0000
  H   H934      1.0  0.54928  0.99270  0.33981  1.0000
  C   C588      1.0  0.41747  0.98795  0.44898  1.0000
  H   H935      1.0  0.64384  0.05589  0.27665  1.0000
  H   H936      1.0  0.65080  0.02503  0.47429  1.0000
  H   H937      1.0  0.64869  0.05303  0.23286  1.0000
  H   H938      1.0  0.45938  0.99039  0.47467  1.0000
  S   S227      1.0  0.32581  0.05472  0.30627  1.0000
  H   H939      1.0  0.59496  0.00600  0.47227  1.0000
  H   H940      1.0  0.32673  0.16663  0.35470  1.0000
  Fe  Fe115     1.0  0.45885  0.01345  0.52682  1.0000
  S   S228      1.0  0.43949  0.03957  0.51147  1.0000
  S   S229      1.0  0.49079  0.00684  0.51121  1.0000
  Fe  Fe116     1.0  0.42594  0.00736  0.56226  1.0000
  S   S230      1.0  0.40402  0.03343  0.55006  1.0000
  H   H941      1.0  0.61767  0.00004  0.53867  1.0000
  Fe  Fe117     1.0  0.41482  0.02058  0.52182  1.0000
  H   H942      1.0  0.39141  0.06535  0.63579  1.0000
  Fe  Fe118     1.0  0.43071  0.04982  0.54095  1.0000
  S   S231      1.0  0.43476  0.08139  0.54260  1.0000
  S   S232      1.0  0.34388  0.12617  0.69838  1.0000
  S   S233      1.0  0.45178  0.02502  0.55567  1.0000
  Fe  Fe119     1.0  0.57292  0.03040  0.55527  1.0000
  S   S234      1.0  0.58599  0.03758  0.52344  1.0000
  S   S235      1.0  0.55395  0.00568  0.56705  1.0000
  Fe  Fe120     1.0  0.58991  0.06444  0.56657  1.0000
  S   S236      1.0  0.60379  0.07507  0.53536  1.0000
  S   S237      1.0  0.59505  0.07381  0.59418  1.0000
  Fe  Fe121     1.0  0.57477  0.06992  0.52760  1.0000
  S   S238      1.0  0.55726  0.08679  0.50390  1.0000
  Fe  Fe122     1.0  0.61342  0.04185  0.53418  1.0000
  S   S239      1.0  0.55982  0.06250  0.55902  1.0000
  S   S240      1.0  0.60161  0.03144  0.56579  1.0000
  H   H943      1.0  0.51362  0.99596  0.57533  1.0000
  H   H944      1.0  0.64986  0.17158  0.63787  1.0000
  C   C589      1.0  0.61238  0.10695  0.57392  1.0000
  H   H945      1.0  0.37086  0.00780  0.54421  1.0000
  C   C590      1.0  0.64916  0.00352  0.53338  1.0000
  H   H946      1.0  0.59491  0.18164  0.61409  1.0000
  H   H947      1.0  0.62464  0.14826  0.65039  1.0000
  H   H948      1.0  0.59983  0.08338  0.48987  1.0000
  H   H949      1.0  0.34151  0.98585  0.62981  1.0000
  C   C591      1.0  0.37979  0.17195  0.71195  1.0000
  C   C592      1.0  0.37750  0.17172  0.69241  1.0000
  C   C593      1.0  0.36701  0.15751  0.68793  1.0000
  C   C594      1.0  0.35840  0.14352  0.70303  1.0000
  H   H950      1.0  0.61318  0.19864  0.60500  1.0000
  H   H951      1.0  0.38397  0.18258  0.68063  1.0000
  H   H952      1.0  0.36549  0.15751  0.67281  1.0000
  H   H953      1.0  0.64481  0.19313  0.61932  1.0000
  H   H954      1.0  0.61880  0.15660  0.69455  1.0000
  H   H955      1.0  0.49619  0.05311  0.50536  1.0000
  C   C595      1.0  0.42117  0.04397  0.59790  1.0000
  C   C596      1.0  0.33489  0.00120  0.63180  1.0000
  H   H956      1.0  0.41421  0.01304  0.62733  1.0000
  C   C597      1.0  0.40324  0.02739  0.62792  1.0000
  H   H957      1.0  0.61893  0.08267  0.61992  1.0000
  H   H958      1.0  0.44128  0.03239  0.62858  1.0000
  H   H959      1.0  0.65030  0.14723  0.67146  1.0000
  C   C598      1.0  0.41713  0.09620  0.55807  1.0000
  C   C599      1.0  0.42107  0.11541  0.55926  1.0000
  C   C600      1.0  0.40773  0.12773  0.57160  1.0000
  C   C601      1.0  0.39045  0.12088  0.58304  1.0000
  C   C602      1.0  0.38630  0.10168  0.58184  1.0000
  C   C603      1.0  0.39964  0.08932  0.56925  1.0000
  H   H960      1.0  0.43446  0.12086  0.55057  1.0000
  H   H961      1.0  0.41090  0.14260  0.57238  1.0000
  H   H962      1.0  0.37268  0.09657  0.59036  1.0000
  H   H963      1.0  0.39629  0.07469  0.56803  1.0000
  S   S241      1.0  0.39258  0.19069  0.71676  1.0000
  H   H964      1.0  0.62705  0.03929  0.48308  1.0000
  H   H965      1.0  0.64553  0.20215  0.71109  1.0000
  H   H966      1.0  0.62544  0.14415  0.62558  1.0000
  H   H967      1.0  0.44554  0.27478  0.71898  1.0000
  H   H968      1.0  0.64547  0.02706  0.58288  1.0000
  C   C604      1.0  0.61135  0.18261  0.61120  1.0000
  S   S242      1.0  0.60676  0.18718  0.71943  1.0000
  C   C605      1.0  0.50859  0.00534  0.52677  1.0000
  C   C606      1.0  0.50350  0.00023  0.54723  1.0000
  C   C607      1.0  0.51763  0.99992  0.55952  1.0000
  C   C608      1.0  0.53680  0.00502  0.55141  1.0000
  C   C609      1.0  0.54197  0.00980  0.53092  1.0000
  C   C610      1.0  0.52794  0.00984  0.51862  1.0000
  H   H969      1.0  0.51464  0.04783  0.54296  1.0000
  C   C611      1.0  0.61795  0.15415  0.63672  1.0000
  H   H970      1.0  0.55686  0.01318  0.52449  1.0000
  H   H971      1.0  0.53203  0.01361  0.50280  1.0000
  H   H972      1.0  0.51341  0.09958  0.51314  1.0000
  C   C612      1.0  0.33830  0.03397  0.63936  1.0000
  H   H973      1.0  0.63373  0.06224  0.56819  1.0000
  H   H974      1.0  0.65018  0.16803  0.61300  1.0000
  H   H975      1.0  0.33060  0.00384  0.69752  1.0000
  S   S243      1.0  0.33158  0.10301  0.62014  1.0000
  C   C613      1.0  0.63147  0.16460  0.69304  1.0000
  C   C614      1.0  0.34455  0.01515  0.57744  1.0000
  H   H976      1.0  0.59408  0.18720  0.64864  1.0000
  S   S244      1.0  0.64490  0.02888  0.52212  1.0000
  N   N60       1.0  0.49939  0.07300  0.52485  1.0000
  C   C615      1.0  0.48755  0.06010  0.51827  1.0000
  C   C616      1.0  0.51804  0.06046  0.53077  1.0000
  C   C617      1.0  0.48726  0.08212  0.54184  1.0000
  H   H977      1.0  0.64146  0.10825  0.61610  1.0000
  H   H978      1.0  0.47310  0.06896  0.51413  1.0000
  H   H979      1.0  0.48360  0.04740  0.53014  1.0000
  C   C618      1.0  0.37037  0.99526  0.55702  1.0000
  H   H980      1.0  0.48881  0.99611  0.55359  1.0000
  H   H981      1.0  0.35529  0.01615  0.58728  1.0000
  H   H982      1.0  0.52779  0.05366  0.51820  1.0000
  H   H983      1.0  0.49611  0.09114  0.54778  1.0000
  H   H984      1.0  0.48196  0.07025  0.55403  1.0000
  H   H985      1.0  0.47358  0.09254  0.53761  1.0000
  H   H986      1.0  0.40463  0.07795  0.61350  1.0000
  H   H987      1.0  0.60172  0.15231  0.64019  1.0000
  C   C619      1.0  0.57167  0.08136  0.48135  1.0000
  H   H988      1.0  0.51449  0.08305  0.49568  1.0000
  H   H989      1.0  0.32913  0.01632  0.58643  1.0000
  C   C620      1.0  0.62459  0.12201  0.57208  1.0000
  N   N61       1.0  0.62050  0.17556  0.62930  1.0000
  C   C621      1.0  0.63288  0.99281  0.54038  1.0000
  S   S245      1.0  0.41667  0.99220  0.59330  1.0000
  C   C622      1.0  0.34652  0.01384  0.63696  1.0000
  S   S246      1.0  0.65013  0.14163  0.58499  1.0000
  S   S247      1.0  0.39208  0.01976  0.50277  1.0000
  H   H990      1.0  0.61192  0.20459  0.63933  1.0000
  S   S248      1.0  0.35284  0.04870  0.64752  1.0000
  C   C623      1.0  0.61790  0.99072  0.60617  1.0000
  C   C624      1.0  0.33515  0.99501  0.55654  1.0000
  C   C625      1.0  0.61047  0.18829  0.64451  1.0000
  C   C626      1.0  0.64655  0.19015  0.70252  1.0000
  H   H991      1.0  0.65163  0.05937  0.54611  1.0000
  C   C627      1.0  0.50475  0.08935  0.50853  1.0000
  H   H992      1.0  0.52726  0.06975  0.53587  1.0000
  H   H993      1.0  0.59550  0.02933  0.48081  1.0000
  C   C628      1.0  0.62055  0.09357  0.60649  1.0000
  H   H994      1.0  0.42833  0.05747  0.59035  1.0000
  Fe  Fe123     1.0  0.35380  0.12212  0.62364  1.0000
  H   H995      1.0  0.60431  0.10657  0.56214  1.0000
  H   H996      1.0  0.62594  0.13316  0.55883  1.0000
  C   C629      1.0  0.42960  0.04621  0.62931  1.0000
  H   H997      1.0  0.65127  0.07986  0.55936  1.0000
  H   H998      1.0  0.43271  0.03014  0.59645  1.0000
  S   S249      1.0  0.36618  0.10094  0.64867  1.0000
  H   H999      1.0  0.58348  0.98957  0.63199  1.0000
  H   H1000     1.0  0.39082  0.02624  0.62011  1.0000
  C   C630      1.0  0.39790  0.06397  0.62017  1.0000
  Fe  Fe124     1.0  0.34210  0.11864  0.66831  1.0000
  C   C631      1.0  0.61023  0.09281  0.59123  1.0000
  H   H1001     1.0  0.40905  0.04293  0.58969  1.0000
  S   S250      1.0  0.37445  0.13687  0.59852  1.0000
  C   C632      1.0  0.63000  0.18008  0.70434  1.0000
  H   H1002     1.0  0.39647  0.02815  0.64362  1.0000
  H   H1003     1.0  0.49104  0.09887  0.50339  1.0000
  H   H1004     1.0  0.42389  0.04733  0.64515  1.0000
  H   H1005     1.0  0.60914  0.00623  0.60701  1.0000
  H   H1006     1.0  0.61729  0.18356  0.65823  1.0000
  H   H1007     1.0  0.61856  0.17317  0.59950  1.0000
  C   C633      1.0  0.41703  0.99024  0.48341  1.0000
  C   C634      1.0  0.63515  0.12255  0.58727  1.0000
  C   C635      1.0  0.64227  0.17716  0.62470  1.0000
  Fe  Fe125     1.0  0.34251  0.08268  0.64648  1.0000
  H   H1008     1.0  0.36187  0.00791  0.63930  1.0000
  C   C636      1.0  0.64923  0.15937  0.67983  1.0000
  H   H1009     1.0  0.43721  0.05968  0.62276  1.0000
  C   C637      1.0  0.63330  0.10811  0.60436  1.0000
  H   H1010     1.0  0.38503  0.06384  0.61254  1.0000
  N   N62       1.0  0.41299  0.04539  0.61882  1.0000
  H   H1011     1.0  0.34483  0.02866  0.56564  1.0000
  C   C638      1.0  0.40191  0.00729  0.48225  1.0000
  H   H1012     1.0  0.47594  0.28672  0.72482  1.0000
  H   H1013     1.0  0.33489  0.00792  0.54409  1.0000
  H   H1014     1.0  0.62813  0.98753  0.61737  1.0000
  H   H1015     1.0  0.61765  0.00742  0.50410  1.0000
  N   N63       1.0  0.34999  0.99600  0.56906  1.0000
  H   H1016     1.0  0.64536  0.05563  0.60058  1.0000
  S   S251      1.0  0.43496  0.99321  0.53457  1.0000
  H   H1017     1.0  0.62752  0.99111  0.59132  1.0000
  H   H1018     1.0  0.48440  0.99040  0.47878  1.0000
  H   H1019     1.0  0.58073  0.99579  0.59648  1.0000
  H   H1020     1.0  0.64156  0.99387  0.49463  1.0000
  S   S252      1.0  0.33175  0.14157  0.64328  1.0000
  C   C639      1.0  0.59266  0.08008  0.47856  1.0000
  H   H1021     1.0  0.38182  0.99668  0.56586  1.0000
  C   C640      1.0  0.36056  0.14382  0.72259  1.0000
  C   C641      1.0  0.62568  0.99897  0.49196  1.0000
  H   H1022     1.0  0.47795  0.25123  0.71837  1.0000
  C   C642      1.0  0.64958  0.06355  0.56112  1.0000
  H   H1023     1.0  0.61855  0.98520  0.49325  1.0000
  C   C643      1.0  0.37134  0.15782  0.72704  1.0000
  H   H1024     1.0  0.54249  0.00852  0.86590  1.0000
  Fe  Fe126     1.0  0.47521  0.09659  0.87368  1.0000
  S   S253      1.0  0.49394  0.10201  0.84385  1.0000
  S   S254      1.0  0.44136  0.10155  0.87781  1.0000
  Fe  Fe127     1.0  0.51191  0.08172  0.89454  1.0000
  S   S255      1.0  0.53374  0.08643  0.86629  1.0000
  S   S256      1.0  0.52484  0.06739  0.92211  1.0000
  Fe  Fe128     1.0  0.51284  0.11555  0.85943  1.0000
  S   S257      1.0  0.51911  0.14735  0.84861  1.0000
  Fe  Fe129     1.0  0.51263  0.07234  0.85381  1.0000
  S   S258      1.0  0.52421  0.04809  0.83471  1.0000
  S   S259      1.0  0.49267  0.11217  0.88874  1.0000
  S   S260      1.0  0.49232  0.06559  0.88259  1.0000
  H   H1025     1.0  0.65194  0.43876  0.95316  1.0000
  Fe  Fe130     1.0  0.40357  0.45241  0.89143  1.0000
  S   S261      1.0  0.40883  0.42521  0.91462  1.0000
  S   S262      1.0  0.39649  0.45018  0.86186  1.0000
  Fe  Fe131     1.0  0.38483  0.44282  0.93403  1.0000
  Fe  Fe132     1.0  0.43002  0.44258  0.92320  1.0000
  S   S263      1.0  0.45889  0.42586  0.93339  1.0000
  H   H1026     1.0  0.36601  0.39308  0.90172  1.0000
  S   S264      1.0  0.42693  0.46854  0.89815  1.0000
  Fe  Fe133     1.0  0.55147  0.46630  0.95072  1.0000
  H   H1027     1.0  0.41414  0.19524  0.85615  1.0000
  C   C644      1.0  0.65623  0.18193  0.80980  1.0000
  H   H1028     1.0  0.37731  0.38684  0.93949  1.0000
  C   C645      1.0  0.36886  0.35419  0.96573  1.0000
  Fe  Fe134     1.0  0.59011  0.43597  0.94912  1.0000
  C   C646      1.0  0.51677  0.14181  0.78037  1.0000
  H   H1029     1.0  0.65093  0.16969  0.82159  1.0000
  Fe  Fe135     1.0  0.60078  0.19451  0.79003  1.0000
  N   N64       1.0  0.44616  0.07185  0.82298  1.0000
  S   S265      1.0  0.60633  0.16888  0.81482  1.0000
  Fe  Fe136     1.0  0.61045  0.23544  0.76902  1.0000
  S   S266      1.0  0.63033  0.25894  0.76946  1.0000
  Fe  Fe137     1.0  0.56804  0.22513  0.77218  1.0000
  C   C647      1.0  0.61303  0.40859  0.88364  1.0000
  S   S267      1.0  0.58710  0.22627  0.79480  1.0000
  S   S268      1.0  0.62548  0.20338  0.76558  1.0000
  S   S269      1.0  0.42793  0.20097  0.78898  1.0000
  S   S270      1.0  0.38499  0.20326  0.77233  1.0000
  Fe  Fe138     1.0  0.40783  0.22367  0.77070  1.0000
  C   C648      1.0  0.50758  0.99258  0.84112  1.0000
  Fe  Fe139     1.0  0.40658  0.17972  0.78848  1.0000
  S   S271      1.0  0.39262  0.16115  0.81606  1.0000
  Fe  Fe140     1.0  0.35977  0.35706  0.84858  1.0000
  H   H1030     1.0  0.39789  0.37395  0.92385  1.0000
  S   S272      1.0  0.39126  0.36116  0.85016  1.0000
  H   H1031     1.0  0.42963  0.10222  0.82200  1.0000
  S   S273      1.0  0.60819  0.40593  0.94290  1.0000
  H   H1032     1.0  0.55268  0.13805  0.75662  1.0000
  H   H1033     1.0  0.62234  0.20956  0.81277  1.0000
  C   C649      1.0  0.32876  0.31528  0.94387  1.0000
  H   H1034     1.0  0.37288  0.15786  0.74214  1.0000
  S   S274      1.0  0.34838  0.34874  0.82360  1.0000
  C   C650      1.0  0.63837  0.45099  0.91856  1.0000
  C   C651      1.0  0.38391  0.26674  0.79306  1.0000
  C   C652      1.0  0.36681  0.25742  0.80073  1.0000
  C   C653      1.0  0.35157  0.26598  0.81485  1.0000
  C   C654      1.0  0.35334  0.28388  0.82136  1.0000
  C   C655      1.0  0.37039  0.29323  0.81358  1.0000
  C   C656      1.0  0.38554  0.28474  0.79942  1.0000
  H   H1035     1.0  0.36526  0.24374  0.79565  1.0000
  Fe  Fe141     1.0  0.33443  0.32538  0.84652  1.0000
  H   H1036     1.0  0.37204  0.30691  0.81859  1.0000
  H   H1037     1.0  0.60784  0.37300  0.80831  1.0000
  H   H1038     1.0  0.39668  0.17949  0.85343  1.0000
  H   H1039     1.0  0.55378  0.01973  0.88161  1.0000
  H   H1040     1.0  0.36696  0.19433  0.83774  1.0000
  H   H1041     1.0  0.49384  0.22809  0.79372  1.0000
  H   H1042     1.0  0.38203  0.20659  0.81672  1.0000
  H   H1043     1.0  0.40623  0.33601  0.93079  1.0000
  C   C657      1.0  0.44220  0.26947  0.73513  1.0000
  H   H1044     1.0  0.41228  0.19060  0.83213  1.0000
  H   H1045     1.0  0.32591  0.32193  0.91300  1.0000
  C   C658      1.0  0.60718  0.41354  0.90282  1.0000
  H   H1046     1.0  0.60703  0.41851  0.87139  1.0000
  H   H1047     1.0  0.59668  0.42722  0.90532  1.0000
  C   C659      1.0  0.39579  0.42542  0.85806  1.0000
  C   C660      1.0  0.38344  0.42251  0.84527  1.0000
  C   C661      1.0  0.38203  0.40279  0.84268  1.0000
  C   C662      1.0  0.39329  0.38596  0.85261  1.0000
  C   C663      1.0  0.40597  0.38889  0.86506  1.0000
  C   C664      1.0  0.40706  0.40857  0.86794  1.0000
  H   H1048     1.0  0.37484  0.43553  0.83747  1.0000
  H   H1049     1.0  0.37239  0.40062  0.83287  1.0000
  H   H1050     1.0  0.41491  0.37591  0.87252  1.0000
  H   H1051     1.0  0.41712  0.41074  0.87730  1.0000
  C   C665      1.0  0.47768  0.44049  0.93334  1.0000
  C   C666      1.0  0.49373  0.43209  0.94371  1.0000
  C   C667      1.0  0.50792  0.44405  0.94533  1.0000
  C   C668      1.0  0.50610  0.46444  0.93654  1.0000
  H   H1052     1.0  0.34131  0.44599  0.90363  1.0000
  C   C669      1.0  0.47625  0.46072  0.92403  1.0000
  H   H1053     1.0  0.33544  0.29957  0.94327  1.0000
  N   N65       1.0  0.46088  0.26345  0.74396  1.0000
  H   H1054     1.0  0.46405  0.46727  0.91585  1.0000
  C   C670      1.0  0.42884  0.11884  0.86031  1.0000
  C   C671      1.0  0.40802  0.11947  0.86185  1.0000
  C   C672      1.0  0.39732  0.13243  0.84804  1.0000
  C   C673      1.0  0.40730  0.14485  0.83242  1.0000
  C   C674      1.0  0.42820  0.14442  0.83074  1.0000
  C   C675      1.0  0.43898  0.13144  0.84479  1.0000
  H   H1055     1.0  0.40009  0.10987  0.87383  1.0000
  H   H1056     1.0  0.38118  0.13279  0.84949  1.0000
  H   H1057     1.0  0.43597  0.15414  0.81877  1.0000
  H   H1058     1.0  0.45504  0.13124  0.84366  1.0000
  C   C676      1.0  0.54381  0.15259  0.84068  1.0000
  C   C677      1.0  0.56075  0.13739  0.84138  1.0000
  C   C678      1.0  0.58020  0.14244  0.83414  1.0000
  C   C679      1.0  0.58254  0.16254  0.82586  1.0000
  C   C680      1.0  0.56558  0.17763  0.82554  1.0000
  C   C681      1.0  0.54632  0.17273  0.83322  1.0000
  H   H1059     1.0  0.55890  0.12178  0.84713  1.0000
  H   H1060     1.0  0.59335  0.13071  0.83430  1.0000
  H   H1061     1.0  0.56722  0.19316  0.81925  1.0000
  H   H1062     1.0  0.53327  0.18457  0.83277  1.0000
  C   C682      1.0  0.51002  0.02801  0.84070  1.0000
  C   C683      1.0  0.49029  0.03089  0.85100  1.0000
  C   C684      1.0  0.47912  0.01477  0.85614  1.0000
  C   C685      1.0  0.51859  0.00889  0.83555  1.0000
  H   H1063     1.0  0.48351  0.04561  0.85475  1.0000
  H   H1064     1.0  0.46388  0.01702  0.86421  1.0000
  H   H1065     1.0  0.53386  0.00658  0.82753  1.0000
  C   C686      1.0  0.52018  0.08405  0.93945  1.0000
  C   C687      1.0  0.50359  0.09962  0.93951  1.0000
  C   C688      1.0  0.50084  0.11392  0.95227  1.0000
  C   C689      1.0  0.36601  0.41250  0.97282  1.0000
  H   H1066     1.0  0.44474  0.26835  0.77273  1.0000
  C   C690      1.0  0.53352  0.08224  0.95285  1.0000
  H   H1067     1.0  0.49283  0.10067  0.92976  1.0000
  H   H1068     1.0  0.48825  0.12627  0.95194  1.0000
  C   C691      1.0  0.39712  0.33661  0.94576  1.0000
  H   H1069     1.0  0.54650  0.07031  0.95275  1.0000
  S   S275      1.0  0.40620  0.45757  0.94512  1.0000
  H   H1070     1.0  0.36130  0.22137  0.83037  1.0000
  H   H1071     1.0  0.50066  0.01024  0.89113  1.0000
  C   C692      1.0  0.60812  0.33516  0.84773  1.0000
  S   S276      1.0  0.37791  0.46884  0.91045  1.0000
  H   H1072     1.0  0.60104  0.34477  0.85929  1.0000
  H   H1073     1.0  0.60281  0.32013  0.85213  1.0000
  H   H1074     1.0  0.62464  0.33225  0.84784  1.0000
  H   H1075     1.0  0.55040  0.11692  0.79008  1.0000
  S   S277      1.0  0.57980  0.46369  0.92824  1.0000
  C   C693      1.0  0.46620  0.06152  0.81466  1.0000
  H   H1076     1.0  0.46876  0.06437  0.79825  1.0000
  H   H1077     1.0  0.53649  0.12788  0.81116  1.0000
  C   C694      1.0  0.51445  0.11248  0.96527  1.0000
  H   H1078     1.0  0.64560  0.41731  0.94537  1.0000
  H   H1079     1.0  0.41481  0.07145  0.82260  1.0000
  N   N66       1.0  0.53561  0.14773  0.78341  1.0000
  H   H1080     1.0  0.43084  0.04728  0.82159  1.0000
  H   H1081     1.0  0.62742  0.36331  0.82305  1.0000
  H   H1082     1.0  0.50857  0.15393  0.77035  1.0000
  H   H1083     1.0  0.65685  0.28465  0.77578  1.0000
  C   C695      1.0  0.62466  0.26868  0.82630  1.0000
  N   N67       1.0  0.38061  0.35415  0.94563  1.0000
  C   C696      1.0  0.58166  0.34808  0.82814  1.0000
  C   C697      1.0  0.43011  0.06395  0.81653  1.0000
  H   H1084     1.0  0.39988  0.37465  0.94891  1.0000
  N   N68       1.0  0.53862  0.14461  0.90443  1.0000
  C   C698      1.0  0.54863  0.16057  0.89080  1.0000
  C   C699      1.0  0.54411  0.12529  0.89635  1.0000
  C   C700      1.0  0.51646  0.15088  0.90673  1.0000
  C   C701      1.0  0.54527  0.14172  0.92381  1.0000
  H   H1085     1.0  0.54544  0.17510  0.89686  1.0000
  H   H1086     1.0  0.54321  0.16380  0.87635  1.0000
  H   H1087     1.0  0.56532  0.15597  0.88785  1.0000
  H   H1088     1.0  0.53906  0.12687  0.88187  1.0000
  H   H1089     1.0  0.56073  0.12015  0.89417  1.0000
  H   H1090     1.0  0.53690  0.11289  0.90637  1.0000
  H   H1091     1.0  0.50840  0.13911  0.91669  1.0000
  H   H1092     1.0  0.51100  0.15333  0.89229  1.0000
  H   H1093     1.0  0.53874  0.12918  0.93413  1.0000
  H   H1094     1.0  0.54041  0.15559  0.93099  1.0000
  H   H1095     1.0  0.56199  0.13778  0.92252  1.0000
  S   S278      1.0  0.64791  0.32751  0.87778  1.0000
  Fe  Fe142     1.0  0.40147  0.48241  0.91957  1.0000
  S   S279      1.0  0.52198  0.48056  0.94028  1.0000
  H   H1096     1.0  0.45562  0.07361  0.85013  1.0000
  H   H1097     1.0  0.57333  0.35780  0.83924  1.0000
  C   C702      1.0  0.65091  0.28687  0.80687  1.0000
  S   S280      1.0  0.47771  0.18506  0.75126  1.0000
  N   N69       1.0  0.53121  0.00143  0.89691  1.0000
  H   H1098     1.0  0.57777  0.35557  0.81348  1.0000
  H   H1099     1.0  0.47869  0.06682  0.81956  1.0000
  C   C703      1.0  0.35086  0.43223  0.89838  1.0000
  Fe  Fe143     1.0  0.40394  0.19242  0.74500  1.0000
  C   C704      1.0  0.44460  0.09397  0.81602  1.0000
  C   C705      1.0  0.60613  0.36052  0.97585  1.0000
  H   H1100     1.0  0.52316  0.04338  0.96419  1.0000
  H   H1101     1.0  0.60989  0.25287  0.81037  1.0000
  H   H1102     1.0  0.54143  0.01573  0.91742  1.0000
  N   N70       1.0  0.38755  0.21153  0.84460  1.0000
  C   C706      1.0  0.37587  0.21451  0.86423  1.0000
  C   C707      1.0  0.39707  0.22971  0.83565  1.0000
  C   C708      1.0  0.37382  0.20838  0.83182  1.0000
  C   C709      1.0  0.40337  0.19348  0.84671  1.0000
  H   H1103     1.0  0.36843  0.20107  0.87135  1.0000
  H   H1104     1.0  0.36378  0.22803  0.86317  1.0000
  H   H1105     1.0  0.38575  0.21689  0.87428  1.0000
  H   H1106     1.0  0.40515  0.22848  0.82037  1.0000
  H   H1107     1.0  0.38562  0.24375  0.83471  1.0000
  H   H1108     1.0  0.40821  0.23205  0.84441  1.0000
  S   S281      1.0  0.42394  0.16741  0.76139  1.0000
  C   C710      1.0  0.63308  0.26778  0.79102  1.0000
  C   C711      1.0  0.53057  0.09637  0.96589  1.0000
  S   S282      1.0  0.57979  0.19254  0.76985  1.0000
  H   H1109     1.0  0.51167  0.16524  0.91308  1.0000
  H   H1110     1.0  0.43148  0.06665  0.80017  1.0000
  C   C712      1.0  0.47404  0.24677  0.73460  1.0000
  H   H1111     1.0  0.63695  0.38229  0.96820  1.0000
  S   S283      1.0  0.59018  0.23710  0.74638  1.0000
  C   C713      1.0  0.63418  0.37801  0.89623  1.0000
  H   H1112     1.0  0.44451  0.05147  0.85061  1.0000
  H   H1113     1.0  0.35390  0.13312  0.73440  1.0000
  C   C714      1.0  0.62648  0.39074  0.88035  1.0000
  H   H1114     1.0  0.47131  0.20856  0.78337  1.0000
  Fe  Fe144     1.0  0.44369  0.19093  0.76041  1.0000
  H   H1115     1.0  0.51610  0.02548  0.91323  1.0000
  C   C715      1.0  0.62822  0.38281  0.91532  1.0000
  H   H1116     1.0  0.45638  0.10045  0.82081  1.0000
  H   H1117     1.0  0.61558  0.26421  0.84039  1.0000
  C   C716      1.0  0.45557  0.25653  0.76535  1.0000
  C   C717      1.0  0.38927  0.37322  0.93914  1.0000
  H   H1118     1.0  0.56343  0.15577  0.76602  1.0000
  S   S284      1.0  0.53423  0.23550  0.77828  1.0000
  H   H1119     1.0  0.54438  0.17193  0.79426  1.0000
  S   S285      1.0  0.34817  0.33194  0.87101  1.0000
  C   C718      1.0  0.63943  0.28100  0.82521  1.0000
  C   C719      1.0  0.61469  0.40051  0.91869  1.0000
  Fe  Fe145     1.0  0.65617  0.35538  0.85733  1.0000
  H   H1120     1.0  0.36360  0.42794  0.90694  1.0000
  S   S286      1.0  0.33397  0.29419  0.83909  1.0000
  C   C720      1.0  0.51872  0.22146  0.77058  1.0000
  C   C721      1.0  0.49305  0.19951  0.75868  1.0000
  C   C722      1.0  0.49906  0.22053  0.78092  1.0000
  C   C723      1.0  0.54616  0.13123  0.79655  1.0000
  H   H1121     1.0  0.46225  0.29387  0.74782  1.0000
  Fe  Fe146     1.0  0.60334  0.20412  0.74533  1.0000
  H   H1122     1.0  0.39871  0.29207  0.79355  1.0000
  H   H1123     1.0  0.50536  0.98590  0.90630  1.0000
  H   H1124     1.0  0.56063  0.98578  0.90214  1.0000
  H   H1125     1.0  0.63088  0.32926  0.81297  1.0000
  C   C724      1.0  0.61086  0.36500  0.82309  1.0000
  H   H1126     1.0  0.36168  0.34024  0.97090  1.0000
  C   C725      1.0  0.48627  0.20953  0.77505  1.0000
  C   C726      1.0  0.61422  0.33202  0.81323  1.0000
  H   H1127     1.0  0.33937  0.32291  0.79600  1.0000
  H   H1128     1.0  0.61139  0.33897  0.79811  1.0000
  C   C727      1.0  0.33036  0.41027  0.92175  1.0000
  H   H1129     1.0  0.64745  0.18298  0.79768  1.0000
  H   H1130     1.0  0.39803  0.41028  0.96196  1.0000
  S   S287      1.0  0.42518  0.21509  0.74197  1.0000
  H   H1131     1.0  0.46562  0.46232  0.96993  1.0000
  H   H1132     1.0  0.62872  0.22187  0.83084  1.0000
  H   H1133     1.0  0.60339  0.37515  0.83411  1.0000
  C   C728      1.0  0.52551  0.21144  0.75419  1.0000
  S   S288      1.0  0.40355  0.25649  0.77556  1.0000
  H   H1134     1.0  0.46777  0.04474  0.81938  1.0000
  C   C729      1.0  0.53940  0.01545  0.87963  1.0000
  H   H1135     1.0  0.37862  0.35484  0.97660  1.0000
  H   H1136     1.0  0.35399  0.36488  0.93214  1.0000
  H   H1137     1.0  0.52159  0.00105  0.92814  1.0000
  H   H1138     1.0  0.34454  0.38407  0.89651  1.0000
  H   H1139     1.0  0.54062  0.21219  0.74605  1.0000
  S   S289      1.0  0.60497  0.45287  0.96563  1.0000
  H   H1140     1.0  0.52180  0.17880  0.78365  1.0000
  S   S290      1.0  0.35872  0.42894  0.95214  1.0000
  H   H1141     1.0  0.56028  0.13546  0.79934  1.0000
  H   H1142     1.0  0.52107  0.16383  0.80739  1.0000
  C   C730      1.0  0.52739  0.01132  0.91471  1.0000
  C   C731      1.0  0.62142  0.26219  0.80931  1.0000
  H   H1143     1.0  0.65104  0.21986  0.78876  1.0000
  H   H1144     1.0  0.60922  0.31682  0.81659  1.0000
  C   C732      1.0  0.53056  0.16635  0.79260  1.0000
  C   C733      1.0  0.48780  0.99556  0.85139  1.0000
  H   H1145     1.0  0.63426  0.37277  0.92748  1.0000
  H   H1146     1.0  0.51996  0.43761  0.95377  1.0000
  S   S291      1.0  0.64265  0.28866  0.84718  1.0000
  H   H1147     1.0  0.51452  0.98868  0.88039  1.0000
  H   H1148     1.0  0.37535  0.35300  0.91646  1.0000
  N   N71       1.0  0.60370  0.34508  0.82802  1.0000
  H   H1149     1.0  0.48850  0.24223  0.74058  1.0000
  H   H1150     1.0  0.51991  0.12767  0.77367  1.0000
  H   H1151     1.0  0.48593  0.27694  0.74728  1.0000
  H   H1152     1.0  0.33344  0.34959  0.78695  1.0000
  C   C734      1.0  0.54891  0.15164  0.76421  1.0000
  S   S292      1.0  0.63364  0.38417  0.85652  1.0000
  H   H1153     1.0  0.49493  0.41642  0.95087  1.0000
  C   C735      1.0  0.63156  0.20741  0.82470  1.0000
  H   H1154     1.0  0.35844  0.40046  0.87807  1.0000
  C   C736      1.0  0.44368  0.06798  0.84474  1.0000
  C   C737      1.0  0.51209  0.99638  0.89358  1.0000
  H   H1155     1.0  0.51794  0.19295  0.73547  1.0000
  H   H1156     1.0  0.46661  0.23297  0.73717  1.0000
  C   C738      1.0  0.51266  0.20057  0.74823  1.0000
  H   H1157     1.0  0.57581  0.33331  0.83185  1.0000
  C   C739      1.0  0.64774  0.28025  0.78988  1.0000
  C   C740      1.0  0.36719  0.35248  0.93191  1.0000
  H   H1158     1.0  0.50626  0.13917  0.79457  1.0000
  H   H1159     1.0  0.44642  0.09756  0.79964  1.0000
  S   S293      1.0  0.33283  0.38061  0.85514  1.0000
  C   C741      1.0  0.44918  0.46786  0.96997  1.0000
  H   H1160     1.0  0.33834  0.25875  0.82070  1.0000
  H   H1161     1.0  0.54166  0.16443  0.75415  1.0000
  H   H1162     1.0  0.64520  0.34493  0.96997  1.0000
  H   H1163     1.0  0.42887  0.07585  0.85157  1.0000
  H   H1164     1.0  0.33927  0.33149  0.77013  1.0000
  C   C742      1.0  0.35262  0.39740  0.89409  1.0000
  H   H1165     1.0  0.44548  0.46444  0.95622  1.0000
  H   H1166     1.0  0.62566  0.19547  0.83647  1.0000
  Fe  Fe147     1.0  0.59167  0.48073  0.94696  1.0000
  H   H1167     1.0  0.61321  0.36227  0.96002  1.0000
  H   H1168     1.0  0.65309  0.41332  0.91029  1.0000
  S   S294      1.0  0.56072  0.43698  0.97026  1.0000
  H   H1169     1.0  0.44825  0.24265  0.76827  1.0000
  H   H1170     1.0  0.35747  0.43672  0.88266  1.0000
  C   C743      1.0  0.38644  0.40494  0.97363  1.0000
  H   H1171     1.0  0.52858  0.02978  0.87704  1.0000
  C   C744      1.0  0.32555  0.32287  0.96175  1.0000
  H   H1172     1.0  0.62637  0.44120  0.92161  1.0000
  H   H1173     1.0  0.40758  0.33741  0.95593  1.0000
  N   N72       1.0  0.33914  0.41539  0.90077  1.0000
  C   C745      1.0  0.49047  0.47264  0.92560  1.0000
  C   C746      1.0  0.33141  0.33414  0.78513  1.0000
  H   H1174     1.0  0.64467  0.36435  0.89386  1.0000
  H   H1175     1.0  0.43178  0.28185  0.74204  1.0000
  H   H1176     1.0  0.63874  0.45887  0.90306  1.0000
  H   H1177     1.0  0.46915  0.25292  0.77270  1.0000
  H   H1178     1.0  0.63357  0.46291  0.92826  1.0000
  H   H1179     1.0  0.49938  0.03565  0.97561  1.0000
  H   H1180     1.0  0.52063  0.01700  0.96827  1.0000
  H   H1181     1.0  0.36109  0.33786  0.93600  1.0000
  N   N73       1.0  0.65324  0.20153  0.81717  1.0000
  H   H1182     1.0  0.39108  0.32198  0.95075  1.0000
  H   H1183     1.0  0.34235  0.40496  0.93112  1.0000
  C   C747      1.0  0.65675  0.42804  0.94226  1.0000
  H   H1184     1.0  0.43366  0.25653  0.73735  1.0000
  H   H1185     1.0  0.35661  0.36756  0.96640  1.0000
  H   H1186     1.0  0.32885  0.42562  0.87287  1.0000
  H   H1187     1.0  0.54126  0.09538  0.97579  1.0000
  C   C748      1.0  0.47171  0.28105  0.74081  1.0000
  C   C749      1.0  0.51605  0.03133  0.97475  1.0000
  N   N74       1.0  0.65820  0.43889  0.92175  1.0000
  H   H1188     1.0  0.65656  0.94090  0.15256  1.0000
  H   H1189     1.0  0.61391  0.84620  0.07017  1.0000
  H   H1190     1.0  0.55046  0.52013  0.02052  1.0000
  Fe  Fe148     1.0  0.53721  0.91935  0.03465  1.0000
  S   S295      1.0  0.55971  0.92361  0.00692  1.0000
  S   S296      1.0  0.52998  0.88804  0.04707  1.0000
  Fe  Fe149     1.0  0.57399  0.94039  0.02398  1.0000
  S   S297      1.0  0.60777  0.93549  0.02170  1.0000
  Fe  Fe150     1.0  0.53976  0.95345  0.99978  1.0000
  S   S298      1.0  0.55300  0.93378  0.05228  1.0000
  S   S299      1.0  0.51598  0.94778  0.02626  1.0000
  H   H1191     1.0  0.63409  0.75617  0.13710  1.0000
  C   C750      1.0  0.44824  0.49355  0.99000  1.0000
  H   H1192     1.0  0.63191  0.62922  0.11963  1.0000
  H   H1193     1.0  0.63065  0.64676  0.02582  1.0000
  C   C751      1.0  0.35947  0.88140  0.19867  1.0000
  Fe  Fe151     1.0  0.62491  0.87199  0.11849  1.0000
  S   S300      1.0  0.60728  0.84925  0.11351  1.0000
  S   S301      1.0  0.64706  0.88669  0.09471  1.0000
  Fe  Fe152     1.0  0.60773  0.86993  0.16175  1.0000
  S   S302      1.0  0.58801  0.84679  0.16082  1.0000
  H   H1194     1.0  0.36383  0.81137  0.13451  1.0000
  Fe  Fe153     1.0  0.61543  0.83182  0.14205  1.0000
  S   S303      1.0  0.62235  0.79752  0.14462  1.0000
  Fe  Fe154     1.0  0.58111  0.86551  0.13214  1.0000
  S   S304      1.0  0.55249  0.87242  0.11856  1.0000
  S   S305      1.0  0.63567  0.85323  0.14557  1.0000
  S   S306      1.0  0.59815  0.89001  0.13459  1.0000
  Fe  Fe155     1.0  0.45097  0.83223  0.13993  1.0000
  S   S307      1.0  0.43528  0.86454  0.13545  1.0000
  S   S308      1.0  0.47911  0.82400  0.15431  1.0000
  Fe  Fe156     1.0  0.41955  0.81624  0.12277  1.0000
  S   S309      1.0  0.40230  0.84766  0.11631  1.0000
  S   S310      1.0  0.40837  0.78693  0.12083  1.0000
  Fe  Fe157     1.0  0.43270  0.85748  0.10601  1.0000
  S   S311      1.0  0.43820  0.88147  0.07953  1.0000
  Fe  Fe158     1.0  0.40640  0.85165  0.14651  1.0000
  H   H1195     1.0  0.64877  0.92120  0.02677  1.0000
  S   S312      1.0  0.44997  0.82570  0.10980  1.0000
  S   S313      1.0  0.42223  0.81973  0.15359  1.0000
  C   C752      1.0  0.38016  0.79426  0.07281  1.0000
  H   H1196     1.0  0.41253  0.48815  0.98207  1.0000
  C   C753      1.0  0.39528  0.86903  0.19685  1.0000
  H   H1197     1.0  0.56360  0.50186  0.00492  1.0000
  H   H1198     1.0  0.40938  0.86187  0.18921  1.0000
  S   S314      1.0  0.65440  0.71115  0.05947  1.0000
  H   H1199     1.0  0.39327  0.67482  0.97950  1.0000
  C   C754      1.0  0.61526  0.69686  0.02914  1.0000
  C   C755      1.0  0.50244  0.90764  0.99928  1.0000
  H   H1200     1.0  0.56919  0.86829  0.07516  1.0000
  C   C756      1.0  0.53197  0.85926  0.12897  1.0000
  C   C757      1.0  0.51654  0.86021  0.11797  1.0000
  C   C758      1.0  0.50001  0.84988  0.12581  1.0000
  C   C759      1.0  0.49895  0.83824  0.14461  1.0000
  C   C760      1.0  0.51440  0.83727  0.15562  1.0000
  C   C761      1.0  0.53079  0.84788  0.14789  1.0000
  C   C762      1.0  0.62775  0.89105  0.19662  1.0000
  H   H1201     1.0  0.48825  0.85060  0.11716  1.0000
  H   H1202     1.0  0.51357  0.82841  0.17024  1.0000
  H   H1203     1.0  0.54244  0.84731  0.15661  1.0000
  C   C763      1.0  0.38798  0.76432  0.10475  1.0000
  C   C764      1.0  0.39478  0.78308  0.10288  1.0000
  H   H1204     1.0  0.39094  0.75266  0.11715  1.0000
  H   H1205     1.0  0.39579  0.81260  0.08525  1.0000
  C   C765      1.0  0.59882  0.49540  0.01855  1.0000
  C   C766      1.0  0.63633  0.78719  0.12371  1.0000
  C   C767      1.0  0.36483  0.81558  0.18205  1.0000
  H   H1206     1.0  0.57506  0.89151  0.06010  1.0000
  C   C768      1.0  0.62511  0.90654  0.20819  1.0000
  N   N75       1.0  0.59398  0.86463  0.05115  1.0000
  H   H1207     1.0  0.38231  0.82049  0.14397  1.0000
  C   C769      1.0  0.63057  0.61081  0.09807  1.0000
  S   S315      1.0  0.60771  0.58846  0.98972  1.0000
  C   C770      1.0  0.39462  0.87506  0.21520  1.0000
  H   H1208     1.0  0.33771  0.79430  0.15755  1.0000
  H   H1209     1.0  0.57682  0.50788  0.05208  1.0000
  H   H1210     1.0  0.65272  0.74130  0.10751  1.0000
  C   C771      1.0  0.63569  0.62743  0.10423  1.0000
  C   C772      1.0  0.41032  0.63063  0.00067  1.0000
  C   C773      1.0  0.42579  0.64010  0.00364  1.0000
  C   C774      1.0  0.42143  0.65490  0.01616  1.0000
  C   C775      1.0  0.40151  0.66076  0.02522  1.0000
  C   C776      1.0  0.38593  0.65190  0.02157  1.0000
  C   C777      1.0  0.39038  0.63664  0.00956  1.0000
  H   H1211     1.0  0.58920  0.85312  0.02601  1.0000
  H   H1212     1.0  0.43356  0.66161  0.01902  1.0000
  H   H1213     1.0  0.65787  0.91673  0.16817  1.0000
  H   H1214     1.0  0.37838  0.62927  0.00739  1.0000
  H   H1215     1.0  0.56970  0.53378  0.04096  1.0000
  C   C778      1.0  0.64149  0.91075  0.21555  1.0000
  C   C779      1.0  0.34047  0.80199  0.16933  1.0000
  C   C780      1.0  0.65751  0.77025  0.09016  1.0000
  C   C781      1.0  0.50460  0.88667  0.05724  1.0000
  C   C782      1.0  0.49913  0.86801  0.06693  1.0000
  C   C783      1.0  0.47878  0.86643  0.07437  1.0000
  C   C784      1.0  0.46383  0.88342  0.07183  1.0000
  C   C785      1.0  0.46934  0.90213  0.06236  1.0000
  C   C786      1.0  0.48971  0.90381  0.05530  1.0000
  H   H1216     1.0  0.51059  0.85472  0.06863  1.0000
  H   H1217     1.0  0.47463  0.85193  0.08162  1.0000
  H   H1218     1.0  0.45779  0.91534  0.06057  1.0000
  H   H1219     1.0  0.49374  0.91832  0.04819  1.0000
  C   C787      1.0  0.61838  0.92381  0.04283  1.0000
  C   C788      1.0  0.63932  0.91773  0.04089  1.0000
  C   C789      1.0  0.64809  0.90678  0.05703  1.0000
  C   C790      1.0  0.63593  0.90164  0.07515  1.0000
  C   C791      1.0  0.61504  0.90811  0.07730  1.0000
  C   C792      1.0  0.60631  0.91931  0.06119  1.0000
  H   H1220     1.0  0.35698  0.83374  0.14649  1.0000
  H   H1221     1.0  0.51556  0.59288  0.01738  1.0000
  H   H1222     1.0  0.60560  0.90448  0.09134  1.0000
  H   H1223     1.0  0.59029  0.92437  0.06302  1.0000
  H   H1224     1.0  0.39190  0.71974  0.05900  1.0000
  H   H1225     1.0  0.37191  0.74619  0.09248  1.0000
  H   H1226     1.0  0.46414  0.92572  0.99730  1.0000
  H   H1227     1.0  0.59407  0.67604  0.06091  1.0000
  S   S316      1.0  0.61832  0.64477  0.98468  1.0000
  H   H1228     1.0  0.47445  0.86929  0.00905  1.0000
  C   C793      1.0  0.60865  0.66794  0.05401  1.0000
  S   S317      1.0  0.33800  0.73741  0.98233  1.0000
  H   H1229     1.0  0.42670  0.75568  0.03410  1.0000
  H   H1230     1.0  0.59431  0.65639  0.02517  1.0000
  S   S318      1.0  0.61183  0.56174  0.03363  1.0000
  H   H1231     1.0  0.55156  0.80311  0.10565  1.0000
  H   H1232     1.0  0.39382  0.91855  0.20604  1.0000
  H   H1233     1.0  0.59587  0.52350  0.04132  1.0000
  H   H1234     1.0  0.45277  0.73077  0.05049  1.0000
  H   H1235     1.0  0.56386  0.76460  0.14924  1.0000
  C   C794      1.0  0.37730  0.76055  0.09073  1.0000
  Fe  Fe159     1.0  0.34137  0.72685  0.01437  1.0000
  C   C795      1.0  0.63776  0.91565  0.13934  1.0000
  N   N76       1.0  0.48521  0.89782  0.99803  1.0000
  C   C796      1.0  0.35835  0.94364  0.21220  1.0000
  C   C797      1.0  0.60330  0.84456  0.06047  1.0000
  H   H1236     1.0  0.46563  0.91159  0.02154  1.0000
  H   H1237     1.0  0.62061  0.67052  0.06168  1.0000
  H   H1238     1.0  0.63412  0.90933  0.12709  1.0000
  S   S319      1.0  0.59689  0.61060  0.02943  1.0000
  H   H1239     1.0  0.62926  0.93137  0.13903  1.0000
  C   C798      1.0  0.38571  0.94912  0.22689  1.0000
  H   H1240     1.0  0.44465  0.51003  0.99126  1.0000
  C   C799      1.0  0.37845  0.96957  0.19617  1.0000
  H   H1241     1.0  0.55923  0.49440  0.03107  1.0000
  H   H1242     1.0  0.32989  0.81665  0.16915  1.0000
  C   C800      1.0  0.64580  0.64157  0.09065  1.0000
  S   S320      1.0  0.51821  0.98491  0.06157  1.0000
  C   C801      1.0  0.58712  0.52977  0.00420  1.0000
  H   H1243     1.0  0.38786  0.93303  0.18316  1.0000
  N   N77       1.0  0.51017  0.92743  0.10624  1.0000
  C   C802      1.0  0.49237  0.94305  0.10295  1.0000
  C   C803      1.0  0.51380  0.91371  0.09137  1.0000
  C   C804      1.0  0.50641  0.91549  0.12619  1.0000
  C   C805      1.0  0.52810  0.93742  0.10440  1.0000
  H   H1244     1.0  0.49488  0.95245  0.08806  1.0000
  H   H1245     1.0  0.48912  0.95368  0.11393  1.0000
  H   H1246     1.0  0.47862  0.93601  0.10398  1.0000
  H   H1247     1.0  0.50105  0.90503  0.09311  1.0000
  H   H1248     1.0  0.51548  0.92229  0.07613  1.0000
  H   H1249     1.0  0.52780  0.90243  0.09259  1.0000
  H   H1250     1.0  0.51975  0.90387  0.12922  1.0000
  H   H1251     1.0  0.49335  0.90721  0.12793  1.0000
  H   H1252     1.0  0.50320  0.92535  0.13783  1.0000
  H   H1253     1.0  0.54195  0.92603  0.10619  1.0000
  H   H1254     1.0  0.52607  0.94752  0.11572  1.0000
  H   H1255     1.0  0.53100  0.94709  0.08974  1.0000
  H   H1256     1.0  0.58161  0.68133  0.02934  1.0000
  C   C806      1.0  0.65078  0.63898  0.07076  1.0000
  S   S321      1.0  0.33876  0.69565  0.03125  1.0000
  H   H1257     1.0  0.59123  0.87807  0.07730  1.0000
  C   C807      1.0  0.58187  0.87611  0.06660  1.0000
  H   H1258     1.0  0.39150  0.78776  0.16393  1.0000
  Fe  Fe160     1.0  0.61832  0.61291  0.00080  1.0000
  C   C808      1.0  0.64364  0.79980  0.10665  1.0000
  S   S322      1.0  0.55619  0.97073  0.01426  1.0000
  H   H1259     1.0  0.40832  0.87253  0.22156  1.0000
  H   H1260     1.0  0.61027  0.91537  0.21146  1.0000
  H   H1261     1.0  0.61382  0.49950  0.01881  1.0000
  S   S323      1.0  0.39663  0.67836  0.04182  1.0000
  H   H1262     1.0  0.40110  0.95330  0.22442  1.0000
  H   H1263     1.0  0.62289  0.59986  0.10875  1.0000
  S   S324      1.0  0.34974  0.71249  0.06936  1.0000
  Fe  Fe161     1.0  0.53398  0.96270  0.04141  1.0000
  H   H1264     1.0  0.40849  0.93782  0.19343  1.0000
  C   C809      1.0  0.36626  0.81834  0.14693  1.0000
  H   H1265     1.0  0.57487  0.54308  0.00483  1.0000
  H   H1266     1.0  0.48685  0.87785  0.02565  1.0000
  C   C810      1.0  0.54582  0.58443  0.00236  1.0000
  Fe  Fe162     1.0  0.62237  0.58853  0.04074  1.0000
  C   C811      1.0  0.56307  0.50715  0.01917  1.0000
  S   S325      1.0  0.64465  0.59254  0.01275  1.0000
  H   H1267     1.0  0.61953  0.86781  0.02796  1.0000
  H   H1268     1.0  0.63584  0.66849  0.00779  1.0000
  C   C812      1.0  0.37534  0.78566  0.16623  1.0000
  C   C813      1.0  0.64696  0.87960  0.19269  1.0000
  H   H1269     1.0  0.44123  0.63541  0.99698  1.0000
  C   C814      1.0  0.63191  0.66317  0.02391  1.0000
  H   H1270     1.0  0.56806  0.85381  0.04593  1.0000
  H   H1271     1.0  0.40113  0.75078  0.03839  1.0000
  H   H1272     1.0  0.36183  0.80619  0.19681  1.0000
  H   H1273     1.0  0.57367  0.87685  0.03037  1.0000
  N   N78       1.0  0.42217  0.72653  0.05126  1.0000
  C   C815      1.0  0.42734  0.71607  0.03378  1.0000
  H   H1274     1.0  0.44580  0.70784  0.06571  1.0000
  H   H1275     1.0  0.43677  0.73198  0.07399  1.0000
  H   H1276     1.0  0.41035  0.70079  0.06966  1.0000
  H   H1277     1.0  0.41397  0.71746  0.02637  1.0000
  H   H1278     1.0  0.43248  0.69948  0.03791  1.0000
  H   H1279     1.0  0.43949  0.72244  0.02271  1.0000
  C   C816      1.0  0.39070  0.79809  0.08689  1.0000
  H   H1280     1.0  0.40221  0.72444  0.07914  1.0000
  C   C817      1.0  0.44021  0.72417  0.06077  1.0000
  C   C818      1.0  0.40598  0.71749  0.06543  1.0000
  H   H1281     1.0  0.41141  0.75681  0.05791  1.0000
  C   C819      1.0  0.41510  0.74838  0.04512  1.0000
  H   H1282     1.0  0.37058  0.65613  0.02870  1.0000
  H   H1283     1.0  0.50122  0.92342  0.99101  1.0000
  H   H1284     1.0  0.63920  0.92277  0.22437  1.0000
  C   C820      1.0  0.37351  0.77546  0.07455  1.0000
  C   C821      1.0  0.61006  0.87601  0.03974  1.0000
  C   C822      1.0  0.65015  0.75759  0.10720  1.0000
  H   H1285     1.0  0.43912  0.48524  0.00283  1.0000
  H   H1286     1.0  0.46449  0.48845  0.99133  1.0000
  H   H1287     1.0  0.58890  0.52501  0.98948  1.0000
  H   H1288     1.0  0.35281  0.94290  0.19842  1.0000
  N   N79       1.0  0.61299  0.67515  0.03256  1.0000
  S   S326      1.0  0.37031  0.72891  0.02382  1.0000
  H   H1289     1.0  0.50154  0.86767  0.00450  1.0000
  Fe  Fe163     1.0  0.35194  0.74254  0.04972  1.0000
  N   N80       1.0  0.36170  0.80537  0.16617  1.0000
  H   H1290     1.0  0.55413  0.80806  0.15750  1.0000
  C   C823      1.0  0.37768  0.87215  0.18852  1.0000
  S   S327      1.0  0.60665  0.88652  0.18755  1.0000
  H   H1291     1.0  0.60361  0.89125  0.03245  1.0000
  H   H1292     1.0  0.62779  0.69925  0.03614  1.0000
  H   H1293     1.0  0.37378  0.77782  0.15405  1.0000
  C   C824      1.0  0.37646  0.88439  0.22533  1.0000
  H   H1294     1.0  0.50329  0.90853  0.01478  1.0000
  C   C825      1.0  0.52510  0.59173  0.00323  1.0000
  S   S328      1.0  0.64861  0.53892  0.99341  1.0000
  H   H1295     1.0  0.57842  0.79225  0.15786  1.0000
  H   H1296     1.0  0.57647  0.81664  0.14273  1.0000
  Fe  Fe164     1.0  0.63180  0.56751  0.00449  1.0000
  H   H1297     1.0  0.59515  0.77568  0.12932  1.0000
  C   C826      1.0  0.56874  0.80312  0.14818  1.0000
  H   H1298     1.0  0.38062  0.81876  0.17984  1.0000
  H   H1299     1.0  0.59907  0.67803  0.00693  1.0000
  H   H1300     1.0  0.61905  0.70268  0.01310  1.0000
  N   N81       1.0  0.58255  0.51303  0.02036  1.0000
  H   H1301     1.0  0.64908  0.86729  0.18426  1.0000
  H   H1302     1.0  0.51746  0.86867  0.10320  1.0000
  H   H1303     1.0  0.53801  0.81385  0.12681  1.0000
  C   C827      1.0  0.63512  0.60837  0.07820  1.0000
  C   C828      1.0  0.58069  0.86190  0.03777  1.0000
  H   H1304     1.0  0.59167  0.83578  0.06969  1.0000
  H   H1305     1.0  0.39369  0.97425  0.19276  1.0000
  H   H1306     1.0  0.61220  0.83530  0.04923  1.0000
  H   H1307     1.0  0.59983  0.48947  0.00451  1.0000
  C   C829      1.0  0.46609  0.91010  0.00587  1.0000
  H   H1308     1.0  0.60126  0.70645  0.03527  1.0000
  S   S329      1.0  0.37769  0.86446  0.16567  1.0000
  H   H1309     1.0  0.60136  0.53509  0.00509  1.0000
  C   C830      1.0  0.58557  0.78722  0.12005  1.0000
  N   N82       1.0  0.56569  0.79395  0.13159  1.0000
  C   C831      1.0  0.55345  0.80919  0.11879  1.0000
  H   H1310     1.0  0.64152  0.81604  0.10636  1.0000
  H   H1311     1.0  0.34578  0.88382  0.19234  1.0000
  C   C832      1.0  0.59619  0.67266  0.02312  1.0000
  S   S330      1.0  0.55645  0.57811  0.02407  1.0000
  H   H1312     1.0  0.63174  0.90647  0.15344  1.0000
  H   H1313     1.0  0.37724  0.80592  0.06039  1.0000
  H   H1314     1.0  0.64441  0.49894  0.98844  1.0000
  C   C833      1.0  0.48711  0.87724  0.00979  1.0000
  C   C834      1.0  0.55504  0.77631  0.13943  1.0000
  H   H1315     1.0  0.53997  0.78094  0.14823  1.0000
  H   H1316     1.0  0.56049  0.82322  0.11351  1.0000
  C   C835      1.0  0.55801  0.58266  0.98407  1.0000
  H   H1317     1.0  0.58405  0.78029  0.10730  1.0000
  H   H1318     1.0  0.55251  0.76897  0.12733  1.0000
  Fe  Fe165     1.0  0.58848  0.58419  0.01948  1.0000
  S   S331      1.0  0.62863  0.58702  0.07142  1.0000
  C   C836      1.0  0.51686  0.59839  0.98577  1.0000
  C   C837      1.0  0.39289  0.93403  0.19714  1.0000
  H   H1319     1.0  0.64923  0.62036  0.04919  1.0000
  H   H1320     1.0  0.59419  0.80012  0.11429  1.0000
  C   C838      1.0  0.35884  0.88755  0.21698  1.0000
  Fe  Fe166     1.0  0.36657  0.69890  0.04258  1.0000
  C   C839      1.0  0.58116  0.51983  0.03954  1.0000
  S   S332      1.0  0.36128  0.77122  0.05575  1.0000
  N   N83       1.0  0.37888  0.94910  0.20807  1.0000
  H   H1321     1.0  0.60783  0.65135  0.05718  1.0000
  S   S333      1.0  0.41549  0.61082  0.98648  1.0000
  H   H1322     1.0  0.62036  0.87845  0.04936  1.0000
  C   C840      1.0  0.65417  0.79136  0.08998  1.0000
  C   C841      1.0  0.63962  0.76605  0.12393  1.0000
  C   C842      1.0  0.64524  0.62249  0.06448  1.0000
  H   H1323     1.0  0.64491  0.66456  0.03077  1.0000
  S   S334      1.0  0.65247  0.66179  0.09936  1.0000
  H   H1324     1.0  0.50101  0.60478  0.98644  1.0000
  H   H1325     1.0  0.37229  0.77530  0.18040  1.0000
  H   H1326     1.0  0.45276  0.90305  0.00530  1.0000
  H   H1327     1.0  0.36796  0.98118  0.20417  1.0000
  H   H1328     1.0  0.35480  0.83054  0.18241  1.0000
  H   H1329     1.0  0.51710  0.89902  0.99311  1.0000
  H   H1330     1.0  0.57372  0.57612  0.98326  1.0000
  H   H1331     1.0  0.37321  0.97010  0.18192  1.0000
  H   H1332     1.0  0.34473  0.89459  0.22468  1.0000
  H   H1333     1.0  0.35808  0.92849  0.22156  1.0000
  H   H1334     1.0  0.34731  0.95492  0.22014  1.0000
  H   H1335     1.0  0.33645  0.79232  0.18376  1.0000
  H   H1336     1.0  0.33200  0.69510  0.99029  1.0000
  H   H1337     1.0  0.57553  0.64050  0.97823  1.0000
  C   C843      1.0  0.63684  0.50977  0.97772  1.0000
  C   C844      1.0  0.48521  0.89635  0.97719  1.0000
  H   H1338     1.0  0.58798  0.96760  0.38267  1.0000
  S   S335      1.0  0.62536  0.96987  0.28310  1.0000
  S   S336      1.0  0.36153  0.93632  0.27684  1.0000
  C   C845      1.0  0.57939  0.96222  0.34830  1.0000
  Fe  Fe167     1.0  0.34148  0.92761  0.30532  1.0000
  S   S337      1.0  0.34936  0.92697  0.33543  1.0000
  Fe  Fe168     1.0  0.35127  0.91149  0.26574  1.0000
  C   C846      1.0  0.64238  0.96946  0.31559  1.0000
  H   H1339     1.0  0.58563  0.94772  0.35702  1.0000
  C   C847      1.0  0.64440  0.97717  0.33223  1.0000
  H   H1340     1.0  0.37525  0.96008  0.23568  1.0000
  H   H1341     1.0  0.59245  0.96846  0.33849  1.0000
  S   S338      1.0  0.42875  0.97706  0.42777  1.0000
  H   H1342     1.0  0.55644  0.95362  0.38385  1.0000
  S   S339      1.0  0.37683  0.89257  0.24786  1.0000
  H   H1343     1.0  0.38631  0.96620  0.36513  1.0000
  H   H1344     1.0  0.54036  0.96412  0.36565  1.0000
  H   H1345     1.0  0.32742  0.89157  0.34246  1.0000
  C   C848      1.0  0.37380  0.97878  0.31913  1.0000
  H   H1346     1.0  0.56981  0.95852  0.33865  1.0000
  Fe  Fe169     1.0  0.33378  0.95606  0.26757  1.0000
  H   H1347     1.0  0.35754  0.96164  0.30640  1.0000
  S   S340      1.0  0.33376  0.90059  0.29549  1.0000
  C   C849      1.0  0.62741  0.97901  0.30437  1.0000
  C   C850      1.0  0.36959  0.94907  0.35249  1.0000
  C   C851      1.0  0.36168  0.94756  0.33578  1.0000
  C   C852      1.0  0.36368  0.96258  0.31924  1.0000
  C   C853      1.0  0.37987  0.96533  0.35238  1.0000
  H   H1348     1.0  0.48062  0.97781  0.45964  1.0000
  H   H1349     1.0  0.36813  0.93744  0.36535  1.0000
  H   H1350     1.0  0.65592  0.96957  0.34096  1.0000
  H   H1351     1.0  0.43612  0.96712  0.46784  1.0000
  C   C854      1.0  0.58134  0.98151  0.37343  1.0000
  C   C855      1.0  0.55091  0.96783  0.37431  1.0000
  N   N84       1.0  0.56784  0.97679  0.36126  1.0000
  H   H1352     1.0  0.54192  0.97858  0.38421  1.0000
  C   C856      1.0  0.38214  0.98012  0.33557  1.0000
  H   H1353     1.0  0.38630  0.93382  0.23617  1.0000
  H   H1354     1.0  0.65225  0.95586  0.31166  1.0000
  C   C857      1.0  0.42456  0.98039  0.46688  1.0000
  Fe  Fe170     1.0  0.65573  0.95456  0.26974  1.0000
  N   N85       1.0  0.44656  0.85266  0.68969  1.0000
  Fe  Fe171     1.0  0.34113  0.92389  0.61914  1.0000
  H   H1355     1.0  0.58215  0.96319  0.63272  1.0000
  S   S341      1.0  0.37080  0.91820  0.59912  1.0000
  C   C858      1.0  0.63626  0.97253  0.54943  1.0000
  H   H1356     1.0  0.61473  0.91743  0.68248  1.0000
  H   H1357     1.0  0.45577  0.82144  0.70195  1.0000
  C   C859      1.0  0.38630  0.94497  0.61498  1.0000
  H   H1358     1.0  0.59866  0.98186  0.57964  1.0000
  H   H1359     1.0  0.46670  0.83744  0.66749  1.0000
  S   S342      1.0  0.64127  0.84542  0.70106  1.0000
  S   S343      1.0  0.33749  0.94483  0.64125  1.0000
  C   C860      1.0  0.62768  0.90561  0.68085  1.0000
  H   H1360     1.0  0.41467  0.96715  0.56443  1.0000
  H   H1361     1.0  0.62704  0.95029  0.61843  1.0000
  H   H1362     1.0  0.39619  0.96816  0.62651  1.0000
  H   H1363     1.0  0.60684  0.94316  0.60944  1.0000
  H   H1364     1.0  0.61240  0.88253  0.70030  1.0000
  H   H1365     1.0  0.64605  0.95638  0.70996  1.0000
  C   C861      1.0  0.34047  0.96884  0.68291  1.0000
  C   C862      1.0  0.64275  0.87025  0.68837  1.0000
  H   H1366     1.0  0.35222  0.97150  0.69078  1.0000
  H   H1367     1.0  0.36093  0.97882  0.59498  1.0000
  H   H1368     1.0  0.45624  0.86325  0.65898  1.0000
  H   H1369     1.0  0.47699  0.84843  0.69562  1.0000
  C   C863      1.0  0.62630  0.88582  0.69086  1.0000
  C   C864      1.0  0.34132  0.89681  0.70190  1.0000
  C   C865      1.0  0.35413  0.88507  0.68873  1.0000
  C   C866      1.0  0.36901  0.86947  0.69551  1.0000
  C   C867      1.0  0.40621  0.96998  0.59518  1.0000
  C   C868      1.0  0.44220  0.83348  0.70242  1.0000
  C   C869      1.0  0.46296  0.85990  0.69622  1.0000
  H   H1370     1.0  0.35240  0.88774  0.67337  1.0000
  H   H1371     1.0  0.37845  0.86006  0.68532  1.0000
  H   H1372     1.0  0.46677  0.87431  0.68695  1.0000
  C   C870      1.0  0.39635  0.96159  0.61351  1.0000
  H   H1373     1.0  0.44079  0.84354  0.66373  1.0000
  H   H1374     1.0  0.45866  0.86266  0.71181  1.0000
  H   H1375     1.0  0.34440  0.97540  0.66713  1.0000
  C   C871      1.0  0.34397  0.89332  0.72176  1.0000
  H   H1376     1.0  0.51665  0.83573  0.71927  1.0000
  H   H1377     1.0  0.37900  0.93837  0.62918  1.0000
  C   C872      1.0  0.38594  0.93678  0.59812  1.0000
  C   C873      1.0  0.39668  0.94450  0.57999  1.0000
  H   H1378     1.0  0.42285  0.87098  0.70663  1.0000
  C   C874      1.0  0.40677  0.96109  0.57853  1.0000
  H   H1379     1.0  0.39669  0.93803  0.56696  1.0000
  H   H1380     1.0  0.43742  0.83570  0.71806  1.0000
  H   H1381     1.0  0.37533  0.98069  0.55102  1.0000
  C   C875      1.0  0.45286  0.84908  0.66903  1.0000
  H   H1382     1.0  0.62375  0.96411  0.55449  1.0000
  H   H1383     1.0  0.42971  0.82761  0.69816  1.0000
  H   H1384     1.0  0.58002  0.96942  0.59687  1.0000
  H   H1385     1.0  0.34165  0.95209  0.68373  1.0000
  C   C876      1.0  0.42818  0.86815  0.69114  1.0000
  H   H1386     1.0  0.43084  0.88290  0.68183  1.0000
  H   H1387     1.0  0.41546  0.86313  0.68639  1.0000
  C   C877      1.0  0.59268  0.97454  0.62975  1.0000
  H   H1388     1.0  0.62592  0.95521  0.59252  1.0000
  C   C878      1.0  0.64569  0.91012  0.66876  1.0000
  H   H1389     1.0  0.60285  0.97017  0.64108  1.0000
  H   H1390     1.0  0.64375  0.90117  0.71989  1.0000
  N   N86       1.0  0.60438  0.97528  0.60959  1.0000
  H   H1391     1.0  0.42265  0.98442  0.49714  1.0000
  H   H1392     1.0  0.32659  0.97156  0.72113  1.0000
  H   H1393     1.0  0.33473  0.97870  0.59468  1.0000
  H   H1394     1.0  0.35388  0.96379  0.57957  1.0000
  C   C879      1.0  0.61655  0.95512  0.60741  1.0000
  C   C880      1.0  0.34987  0.97857  0.58527  1.0000
  S   S344      1.0  0.32611  0.89984  0.64028  1.0000
  C   C881      1.0  0.37165  0.86586  0.71536  1.0000
  C   C882      1.0  0.61563  0.93443  0.71864  1.0000
  H   H1395     1.0  0.65416  0.92134  0.70293  1.0000
  H   H1396     1.0  0.61909  0.94086  0.70273  1.0000
  C   C883      1.0  0.65575  0.96334  0.55250  1.0000
  S   S345      1.0  0.64771  0.93554  0.65822  1.0000
  C   C884      1.0  0.64940  0.91579  0.71888  1.0000
  H   H1397     1.0  0.60957  0.92002  0.71967  1.0000
  C   C885      1.0  0.59037  0.98078  0.59505  1.0000
  S   S346      1.0  0.39005  0.84543  0.72303  1.0000
  H   H1398     1.0  0.33890  0.98069  0.55002  1.0000
  H   H1399     1.0  0.60321  0.94515  0.72580  1.0000
  C   C886      1.0  0.64173  0.95021  0.72585  1.0000
  H   H1400     1.0  0.38301  0.55121  0.88589  1.0000
  Fe  Fe172     1.0  0.49354  0.94496  0.86229  1.0000
  S   S347      1.0  0.48089  0.91764  0.88038  1.0000
  C   C887      1.0  0.37841  0.70423  0.82532  1.0000
  Fe  Fe173     1.0  0.53589  0.92240  0.85437  1.0000
  S   S348      1.0  0.52704  0.89338  0.87171  1.0000
  S   S349      1.0  0.56878  0.92122  0.84152  1.0000
  Fe  Fe174     1.0  0.49983  0.90099  0.85653  1.0000
  S   S350      1.0  0.49427  0.87464  0.84376  1.0000
  Fe  Fe175     1.0  0.50915  0.91257  0.89381  1.0000
  S   S351      1.0  0.51148  0.90193  0.92589  1.0000
  S   S352      1.0  0.51017  0.92875  0.83723  1.0000
  S   S353      1.0  0.52029  0.94115  0.87769  1.0000
  H   H1401     1.0  0.60277  0.62429  0.93119  1.0000
  H   H1402     1.0  0.56171  0.53211  0.91687  1.0000
  H   H1403     1.0  0.60877  0.85934  0.82236  1.0000
  H   H1404     1.0  0.52210  0.86469  0.75678  1.0000
  S   S354      1.0  0.44373  0.66314  0.90411  1.0000
  H   H1405     1.0  0.57109  0.64128  0.91789  1.0000
  S   S355      1.0  0.34776  0.69838  0.87541  1.0000
  H   H1406     1.0  0.53946  0.84852  0.79505  1.0000
  C   C888      1.0  0.32653  0.71625  0.93566  1.0000
  H   H1407     1.0  0.48638  0.81032  0.77565  1.0000
  C   C889      1.0  0.52502  0.94964  0.95765  1.0000
  H   H1408     1.0  0.43339  0.50875  0.90172  1.0000
  S   S356      1.0  0.60593  0.50849  0.93403  1.0000
  H   H1409     1.0  0.41783  0.51313  0.97072  1.0000
  H   H1410     1.0  0.38997  0.73416  0.79739  1.0000
  H   H1411     1.0  0.41703  0.69321  0.83044  1.0000
  C   C890      1.0  0.40255  0.72270  0.80267  1.0000
  H   H1412     1.0  0.46269  0.52691  0.89694  1.0000
  H   H1413     1.0  0.61716  0.84445  0.84404  1.0000
  C   C891      1.0  0.38169  0.67773  0.96963  1.0000
  H   H1414     1.0  0.64329  0.61502  0.96161  1.0000
  H   H1415     1.0  0.54479  0.92498  0.97160  1.0000
  H   H1416     1.0  0.64156  0.92021  0.75721  1.0000
  C   C892      1.0  0.62828  0.92318  0.74942  1.0000
  C   C893      1.0  0.63879  0.76854  0.83521  1.0000
  Fe  Fe176     1.0  0.61971  0.84008  0.77398  1.0000
  S   S357      1.0  0.62592  0.86559  0.74927  1.0000
  Fe  Fe177     1.0  0.35068  0.67063  0.86127  1.0000
  Fe  Fe178     1.0  0.59252  0.87551  0.75354  1.0000
  S   S358      1.0  0.57785  0.90790  0.75362  1.0000
  S   S359      1.0  0.58679  0.85220  0.78017  1.0000
  Fe  Fe179     1.0  0.41874  0.85133  0.78560  1.0000
  S   S360      1.0  0.43988  0.82198  0.78970  1.0000
  S   S361      1.0  0.41691  0.87470  0.80552  1.0000
  Fe  Fe180     1.0  0.41349  0.80783  0.78676  1.0000
  S   S362      1.0  0.40805  0.78097  0.81091  1.0000
  H   H1417     1.0  0.51451  0.84655  0.79182  1.0000
  S   S363      1.0  0.39178  0.83714  0.78387  1.0000
  C   C894      1.0  0.62695  0.50290  0.96495  1.0000
  S   S364      1.0  0.38047  0.65034  0.85426  1.0000
  C   C895      1.0  0.38459  0.77205  0.81819  1.0000
  C   C896      1.0  0.38174  0.75796  0.83557  1.0000
  C   C897      1.0  0.36386  0.74936  0.84118  1.0000
  C   C898      1.0  0.34875  0.75460  0.82935  1.0000
  C   C899      1.0  0.35135  0.76916  0.81228  1.0000
  C   C900      1.0  0.36921  0.77787  0.80669  1.0000
  H   H1418     1.0  0.39351  0.75348  0.84462  1.0000
  C   C901      1.0  0.58706  0.82870  0.83643  1.0000
  H   H1419     1.0  0.39778  0.70535  0.94159  1.0000
  H   H1420     1.0  0.37123  0.78872  0.79328  1.0000
  C   C902      1.0  0.53372  0.88975  0.78989  1.0000
  C   C903      1.0  0.44817  0.54751  0.91731  1.0000
  H   H1421     1.0  0.61539  0.76567  0.81957  1.0000
  C   C904      1.0  0.62551  0.77544  0.82149  1.0000
  C   C905      1.0  0.63424  0.64721  0.96184  1.0000
  C   C906      1.0  0.43266  0.52096  0.90991  1.0000
  H   H1422     1.0  0.62796  0.67993  0.95773  1.0000
  C   C907      1.0  0.61760  0.51683  0.95072  1.0000
  C   C908      1.0  0.37329  0.60268  0.88321  1.0000
  C   C909      1.0  0.49932  0.82345  0.74660  1.0000
  N   N87       1.0  0.39101  0.67485  0.94924  1.0000
  H   H1423     1.0  0.51724  0.54404  0.95533  1.0000
  C   C910      1.0  0.61781  0.53765  0.94959  1.0000
  S   S365      1.0  0.46884  0.56037  0.91342  1.0000
  H   H1424     1.0  0.37356  0.69351  0.97023  1.0000
  H   H1425     1.0  0.57274  0.67379  0.94108  1.0000
  H   H1426     1.0  0.61074  0.54845  0.93851  1.0000
  H   H1427     1.0  0.40864  0.67270  0.82303  1.0000
  C   C911      1.0  0.42694  0.65953  0.88950  1.0000
  C   C912      1.0  0.42690  0.64027  0.88497  1.0000
  C   C913      1.0  0.41292  0.63760  0.87369  1.0000
  C   C914      1.0  0.39860  0.65402  0.86747  1.0000
  C   C915      1.0  0.39894  0.67327  0.87176  1.0000
  C   C916      1.0  0.41317  0.67607  0.88261  1.0000
  H   H1428     1.0  0.43785  0.62754  0.88988  1.0000
  H   H1429     1.0  0.41310  0.62280  0.86995  1.0000
  H   H1430     1.0  0.38853  0.68613  0.86645  1.0000
  H   H1431     1.0  0.41335  0.69103  0.88587  1.0000
  H   H1432     1.0  0.52763  0.89208  0.80542  1.0000
  C   C917      1.0  0.43075  0.55315  0.93053  1.0000
  C   C918      1.0  0.41423  0.54277  0.93331  1.0000
  C   C919      1.0  0.41513  0.52679  0.92288  1.0000
  H   H1433     1.0  0.43003  0.56547  0.93862  1.0000
  H   H1434     1.0  0.40077  0.54712  0.94358  1.0000
  H   H1435     1.0  0.56514  0.83818  0.87067  1.0000
  H   H1436     1.0  0.61515  0.79992  0.79942  1.0000
  S   S366      1.0  0.55753  0.81520  0.77256  1.0000
  H   H1437     1.0  0.38168  0.67614  0.92124  1.0000
  H   H1438     1.0  0.49154  0.87619  0.78026  1.0000
  C   C920      1.0  0.37286  0.57699  0.91222  1.0000
  H   H1439     1.0  0.53153  0.88851  0.75261  1.0000
  H   H1440     1.0  0.42677  0.68650  0.80633  1.0000
  H   H1441     1.0  0.49433  0.88978  0.79905  1.0000
  C   C921      1.0  0.44918  0.53133  0.90713  1.0000
  C   C922      1.0  0.47226  0.87507  0.83386  1.0000
  C   C923      1.0  0.45581  0.89081  0.83529  1.0000
  C   C924      1.0  0.43884  0.89061  0.82658  1.0000
  C   C925      1.0  0.43851  0.87503  0.81596  1.0000
  C   C926      1.0  0.45520  0.85963  0.81426  1.0000
  C   C927      1.0  0.47173  0.85939  0.82352  1.0000
  H   H1442     1.0  0.45610  0.90302  0.84318  1.0000
  H   H1443     1.0  0.42603  0.90266  0.82794  1.0000
  H   H1444     1.0  0.45546  0.84778  0.80590  1.0000
  H   H1445     1.0  0.48431  0.84709  0.82242  1.0000
  C   C928      1.0  0.57264  0.91968  0.81636  1.0000
  C   C929      1.0  0.58903  0.90627  0.80846  1.0000
  C   C930      1.0  0.59084  0.90282  0.78903  1.0000
  C   C931      1.0  0.57688  0.91370  0.77715  1.0000
  C   C932      1.0  0.56133  0.92823  0.78459  1.0000
  C   C933      1.0  0.55891  0.93085  0.80437  1.0000
  H   H1446     1.0  0.59994  0.89805  0.81758  1.0000
  H   H1447     1.0  0.60299  0.89167  0.78333  1.0000
  H   H1448     1.0  0.55063  0.93681  0.77536  1.0000
  H   H1449     1.0  0.54649  0.94160  0.81032  1.0000
  C   C934      1.0  0.54929  0.52983  0.92956  1.0000
  N   N88       1.0  0.63377  0.93090  0.72821  1.0000
  C   C935      1.0  0.53051  0.91496  0.95104  1.0000
  C   C936      1.0  0.51752  0.92067  0.93705  1.0000
  C   C937      1.0  0.50843  0.94096  0.93316  1.0000
  C   C938      1.0  0.51201  0.95538  0.94363  1.0000
  H   H1450     1.0  0.51244  0.52201  0.94713  1.0000
  H   H1451     1.0  0.49809  0.94535  0.92259  1.0000
  Fe  Fe181     1.0  0.61957  0.84553  0.72983  1.0000
  S   S367      1.0  0.63804  0.83217  0.79879  1.0000
  H   H1452     1.0  0.54680  0.86539  0.76159  1.0000
  H   H1453     1.0  0.51795  0.85817  0.81169  1.0000
  H   H1454     1.0  0.54997  0.88314  0.78913  1.0000
  H   H1455     1.0  0.49939  0.90083  0.77366  1.0000
  C   C939      1.0  0.53104  0.87371  0.76260  1.0000
  H   H1456     1.0  0.53289  0.90500  0.78057  1.0000
  S   S368      1.0  0.42803  0.85703  0.75276  1.0000
  C   C940      1.0  0.33021  0.70113  0.97521  1.0000
  N   N89       1.0  0.40058  0.82442  0.85037  1.0000
  C   C941      1.0  0.39450  0.80637  0.86405  1.0000
  C   C942      1.0  0.39914  0.84144  0.86133  1.0000
  C   C943      1.0  0.38708  0.83051  0.83539  1.0000
  C   C944      1.0  0.42165  0.81939  0.84054  1.0000
  H   H1457     1.0  0.37863  0.80958  0.87171  1.0000
  H   H1458     1.0  0.40442  0.80123  0.87551  1.0000
  H   H1459     1.0  0.39543  0.79338  0.85599  1.0000
  H   H1460     1.0  0.40373  0.85521  0.85121  1.0000
  H   H1461     1.0  0.38342  0.84579  0.86887  1.0000
  H   H1462     1.0  0.40921  0.83746  0.87271  1.0000
  H   H1463     1.0  0.39120  0.84415  0.82485  1.0000
  H   H1464     1.0  0.37102  0.83431  0.84225  1.0000
  H   H1465     1.0  0.38794  0.81808  0.82669  1.0000
  H   H1466     1.0  0.43235  0.81496  0.85133  1.0000
  H   H1467     1.0  0.42658  0.83264  0.82995  1.0000
  H   H1468     1.0  0.42338  0.80655  0.83215  1.0000
  H   H1469     1.0  0.48389  0.91162  0.96786  1.0000
  H   H1470     1.0  0.36688  0.69429  0.93607  1.0000
  C   C945      1.0  0.52939  0.59763  0.96751  1.0000
  H   H1471     1.0  0.48916  0.48835  0.91854  1.0000
  H   H1472     1.0  0.45248  0.51797  0.95467  1.0000
  H   H1473     1.0  0.62211  0.90872  0.75160  1.0000
  H   H1474     1.0  0.59455  0.66136  0.92648  1.0000
  C   C946      1.0  0.63834  0.80756  0.81249  1.0000
  H   H1475     1.0  0.51821  0.80569  0.78927  1.0000
  C   C947      1.0  0.59366  0.62390  0.94625  1.0000
  H   H1476     1.0  0.55720  0.62535  0.93701  1.0000
  C   C948      1.0  0.52426  0.53418  0.90835  1.0000
  S   S369      1.0  0.39404  0.51462  0.92593  1.0000
  H   H1477     1.0  0.53607  0.53581  0.89502  1.0000
  C   C949      1.0  0.40396  0.57995  0.88933  1.0000
  H   H1478     1.0  0.40884  0.65112  0.93403  1.0000
  C   C950      1.0  0.57971  0.84421  0.86596  1.0000
  H   H1479     1.0  0.55416  0.85769  0.83979  1.0000
  N   N90       1.0  0.52966  0.54143  0.92505  1.0000
  S   S370      1.0  0.46129  0.63553  0.95244  1.0000
  C   C951      1.0  0.60456  0.85580  0.83868  1.0000
  C   C952      1.0  0.53445  0.92946  0.96113  1.0000
  H   H1480     1.0  0.51647  0.57249  0.91663  1.0000
  H   H1481     1.0  0.37695  0.58702  0.92129  1.0000
  H   H1482     1.0  0.49880  0.54662  0.93948  1.0000
  C   C953      1.0  0.64790  0.66914  0.93276  1.0000
  N   N91       1.0  0.38176  0.58173  0.89121  1.0000
  H   H1483     1.0  0.60410  0.62420  0.95655  1.0000
  H   H1484     1.0  0.41230  0.68797  0.92578  1.0000
  C   C954      1.0  0.37516  0.67847  0.93668  1.0000
  H   H1485     1.0  0.47243  0.88904  0.97557  1.0000
  H   H1486     1.0  0.54986  0.65230  0.93422  1.0000
  C   C955      1.0  0.58504  0.66047  0.94137  1.0000
  C   C956      1.0  0.51782  0.81255  0.77406  1.0000
  N   N92       1.0  0.57684  0.64112  0.94713  1.0000
  H   H1487     1.0  0.59154  0.83301  0.87279  1.0000
  S   S371      1.0  0.33048  0.68488  0.83891  1.0000
  H   H1488     1.0  0.50432  0.97085  0.94122  1.0000
  H   H1489     1.0  0.57256  0.82251  0.83981  1.0000
  H   H1490     1.0  0.51434  0.97774  0.83737  1.0000
  H   H1491     1.0  0.53767  0.89930  0.95397  1.0000
  H   H1492     1.0  0.33963  0.77344  0.80315  1.0000
  H   H1493     1.0  0.41093  0.56415  0.89453  1.0000
  H   H1494     1.0  0.55940  0.58811  0.95258  1.0000
  H   H1495     1.0  0.38349  0.57022  0.86417  1.0000
  C   C957      1.0  0.64457  0.63013  0.95361  1.0000
  C   C958      1.0  0.40189  0.65386  0.94924  1.0000
  H   H1496     1.0  0.54833  0.83191  0.73317  1.0000
  H   H1497     1.0  0.58803  0.60903  0.95044  1.0000
  N   N93       1.0  0.58510  0.84793  0.84424  1.0000
  H   H1498     1.0  0.39164  0.64243  0.95555  1.0000
  C   C959      1.0  0.33274  0.72123  0.96756  1.0000
  N   N94       1.0  0.52233  0.87657  0.78312  1.0000
  C   C960      1.0  0.50096  0.88625  0.78402  1.0000
  C   C961      1.0  0.52362  0.85660  0.79599  1.0000
  Fe  Fe182     1.0  0.44736  0.82649  0.75680  1.0000
  C   C962      1.0  0.62539  0.79482  0.81003  1.0000
  C   C963      1.0  0.63595  0.66668  0.95142  1.0000
  Fe  Fe183     1.0  0.40356  0.83969  0.75119  1.0000
  H   H1499     1.0  0.40825  0.59012  0.89814  1.0000
  C   C964      1.0  0.51688  0.82950  0.73465  1.0000
  H   H1500     1.0  0.59471  0.66217  0.95192  1.0000
  C   C965      1.0  0.45631  0.50129  0.95459  1.0000
  H   H1501     1.0  0.36532  0.71471  0.81986  1.0000
  H   H1502     1.0  0.38592  0.67976  0.79808  1.0000
  S   S372      1.0  0.42338  0.80906  0.75405  1.0000
  C   C966      1.0  0.39095  0.69490  0.79313  1.0000
  Fe  Fe184     1.0  0.58318  0.83267  0.75892  1.0000
  H   H1503     1.0  0.50975  0.54285  0.90425  1.0000
  H   H1504     1.0  0.41426  0.65071  0.95822  1.0000
  C   C967      1.0  0.41294  0.68811  0.81766  1.0000
  H   H1505     1.0  0.41555  0.72220  0.79035  1.0000
  S   S373      1.0  0.46975  0.58520  0.95901  1.0000
  S   S374      1.0  0.43458  0.61006  0.93328  1.0000
  H   H1506     1.0  0.37834  0.70543  0.78686  1.0000
  C   C968      1.0  0.53535  0.81868  0.76217  1.0000
  S   S375      1.0  0.61614  0.81886  0.75431  1.0000
  C   C969      1.0  0.56553  0.64009  0.96748  1.0000
  H   H1507     1.0  0.33409  0.90234  0.73205  1.0000
  H   H1508     1.0  0.56725  0.87773  0.84160  1.0000
  H   H1509     1.0  0.55889  0.62582  0.97226  1.0000
  H   H1510     1.0  0.40728  0.72855  0.81467  1.0000
  Fe  Fe185     1.0  0.46298  0.58777  0.92851  1.0000
  S   S376      1.0  0.63903  0.74377  0.84858  1.0000
  N   N95       1.0  0.39625  0.70250  0.80967  1.0000
  S   S377      1.0  0.47728  0.82565  0.73623  1.0000
  H   H1511     1.0  0.41109  0.58405  0.87373  1.0000
  H   H1512     1.0  0.37345  0.68924  0.83107  1.0000
  S   S378      1.0  0.52057  0.60855  0.94545  1.0000
  H   H1513     1.0  0.38176  0.71003  0.83799  1.0000
  H   H1514     1.0  0.54272  0.56632  0.90646  1.0000
  H   H1515     1.0  0.62703  0.48682  0.96579  1.0000
  H   H1516     1.0  0.37817  0.56095  0.91844  1.0000
  C   C970      1.0  0.56909  0.86307  0.83591  1.0000
  S   S379      1.0  0.48198  0.61181  0.91485  1.0000
  H   H1517     1.0  0.47277  0.49685  0.95516  1.0000
  C   C971      1.0  0.51386  0.53837  0.94255  1.0000
  H   H1518     1.0  0.59182  0.83082  0.82014  1.0000
  Fe  Fe186     1.0  0.45440  0.63400  0.92277  1.0000
  H   H1519     1.0  0.37681  0.61409  0.89113  1.0000
  S   S380      1.0  0.47385  0.97545  0.85897  1.0000
  C   C972      1.0  0.40539  0.68936  0.94133  1.0000
  C   C973      1.0  0.49976  0.81523  0.76640  1.0000
  C   C974      1.0  0.53117  0.56331  0.91977  1.0000
  H   H1520     1.0  0.40406  0.69324  0.78102  1.0000
  H   H1521     1.0  0.45379  0.49844  0.94015  1.0000
  H   H1522     1.0  0.62742  0.56061  0.96170  1.0000
  C   C975      1.0  0.53482  0.82734  0.74247  1.0000
  H   H1523     1.0  0.53542  0.56920  0.93200  1.0000
  C   C976      1.0  0.62714  0.54455  0.96279  1.0000
  H   H1524     1.0  0.60388  0.86997  0.84485  1.0000
  S   S381      1.0  0.58616  0.85723  0.73253  1.0000
  H   H1525     1.0  0.54871  0.51321  0.93304  1.0000
  H   H1526     1.0  0.36382  0.66800  0.94231  1.0000
  S   S382      1.0  0.56283  0.48525  0.96800  1.0000
  H   H1527     1.0  0.52241  0.51785  0.91206  1.0000
  H   H1528     1.0  0.37953  0.60675  0.86732  1.0000
  H   H1529     1.0  0.57797  0.85850  0.87228  1.0000
  H   H1530     1.0  0.55283  0.65295  0.96879  1.0000
  C   C977      1.0  0.35925  0.87802  0.72845  1.0000
  Fe  Fe187     1.0  0.48730  0.61072  0.94564  1.0000
  C   C978      1.0  0.37692  0.56721  0.88009  1.0000
  H   H1531     1.0  0.65090  0.70253  0.97090  1.0000
  H   H1532     1.0  0.59875  0.81682  0.84275  1.0000
  C   C979      1.0  0.56319  0.64000  0.93344  1.0000
  H   H1533     1.0  0.57272  0.86647  0.81957  1.0000
  H   H1534     1.0  0.36110  0.87527  0.74380  1.0000
  C   C980      1.0  0.33097  0.72872  0.94775  1.0000
  H   H1535     1.0  0.55367  0.53443  0.94243  1.0000
  H   H1536     1.0  0.36178  0.73859  0.85463  1.0000
  H   H1537     1.0  0.41875  0.49410  0.95581  1.0000
  H   H1538     1.0  0.41799  0.68658  0.95001  1.0000
  H   H1539     1.0  0.36029  0.56817  0.88112  1.0000
  C   C981      1.0  0.65176  0.78129  0.83767  1.0000
  H   H1540     1.0  0.33294  0.74426  0.94174  1.0000
  C   C982      1.0  0.65143  0.80080  0.82640  1.0000
  S   S383      1.0  0.32676  0.74293  0.83513  1.0000
  Fe  Fe188     1.0  0.32586  0.71209  0.85452  1.0000
  H   H1541     1.0  0.35654  0.60472  0.88444  1.0000
  C   C983      1.0  0.42233  0.49661  0.96996  1.0000
  H   H1542     1.0  0.49946  0.88727  0.97070  1.0000
  H   H1543     1.0  0.61636  0.93411  0.75691  1.0000
  C   C984      1.0  0.54598  0.98258  0.89964  1.0000
  H   H1544     1.0  0.54910  0.97468  0.88649  1.0000
  Fe  Fe189     1.0  0.44296  0.61013  0.96276  1.0000
  H   H1545     1.0  0.54033  0.97163  0.91257  1.0000
  H   H1546     1.0  0.63029  0.96199  0.73264  1.0000
  C   C985      1.0  0.54982  0.58924  0.96669  1.0000
  H   H1547     1.0  0.35606  0.57897  0.91423  1.0000
  N   N96       1.0  0.44401  0.48982  0.97114  1.0000
  S   S384      1.0  0.52890  0.96769  0.97106  1.0000
  H   H1548     1.0  0.65611  0.74240  0.80503  1.0000
  C   C986      1.0  0.65654  0.63265  0.93485  1.0000
  H   H1549     1.0  0.64908  0.68421  0.92492  1.0000
  C   C987      1.0  0.63680  0.53061  0.97678  1.0000
  H   H1550     1.0  0.65543  0.94811  0.73292  1.0000
  S   S385      1.0  0.32590  0.65773  0.88278  1.0000
  H   H1551     1.0  0.32513  0.72214  0.92041  1.0000
  C   C988      1.0  0.32547  0.68877  0.96324  1.0000
  H   H1552     1.0  0.37059  0.66715  0.97601  1.0000
  H   H1553     1.0  0.86073  0.43089  0.18752  1.0000
  S   S386      1.0  0.69071  0.39480  0.01824  1.0000
  C   C989      1.0  0.86408  0.37955  0.18303  1.0000
  Fe  Fe190     1.0  0.68830  0.33867  0.04086  1.0000
  S   S387      1.0  0.71233  0.34806  0.01540  1.0000
  S   S388      1.0  0.68875  0.30525  0.05332  1.0000
  Fe  Fe191     1.0  0.71428  0.37251  0.03262  1.0000
  S   S389      1.0  0.74348  0.38392  0.03326  1.0000
  Fe  Fe192     1.0  0.68671  0.36954  0.00333  1.0000
  H   H1554     1.0  0.83012  0.35041  0.14162  1.0000
  S   S390      1.0  0.69238  0.36141  0.05890  1.0000
  H   H1555     1.0  0.67540  0.25292  0.10772  1.0000
  Fe  Fe193     1.0  0.83281  0.44153  0.09060  1.0000
  S   S391      1.0  0.80041  0.45698  0.09471  1.0000
  S   S392      1.0  0.85625  0.44696  0.06358  1.0000
  Fe  Fe194     1.0  0.82867  0.41598  0.13158  1.0000
  S   S393      1.0  0.79629  0.42978  0.13913  1.0000
  S   S394      1.0  0.84550  0.38964  0.15025  1.0000
  Fe  Fe195     1.0  0.79312  0.42584  0.10859  1.0000
  S   S395      1.0  0.76613  0.41069  0.10794  1.0000
  H   H1556     1.0  0.68518  0.27996  0.12099  1.0000
  S   S396      1.0  0.82511  0.41030  0.10188  1.0000
  S   S397      1.0  0.83931  0.44596  0.11963  1.0000
  H   H1557     1.0  0.69184  0.18732  0.17835  1.0000
  C   C990      1.0  0.79845  0.36282  0.10752  1.0000
  C   C991      1.0  0.82575  0.35434  0.12665  1.0000
  C   C992      1.0  0.86328  0.47098  0.06130  1.0000
  C   C993      1.0  0.79384  0.37321  0.13951  1.0000
  H   H1558     1.0  0.80346  0.37746  0.10009  1.0000
  H   H1559     1.0  0.77708  0.37584  0.14050  1.0000
  C   C994      1.0  0.85240  0.44518  0.19277  1.0000
  N   N97       1.0  0.84224  0.45879  0.17724  1.0000
  H   H1560     1.0  0.79752  0.36958  0.15473  1.0000
  H   H1561     1.0  0.69632  0.12881  0.11711  1.0000
  H   H1562     1.0  0.81859  0.40440  0.21751  1.0000
  C   C995      1.0  0.68158  0.12313  0.11972  1.0000
  Fe  Fe196     1.0  0.80644  0.45952  0.12462  1.0000
  H   H1563     1.0  0.79977  0.33302  0.15222  1.0000
  H   H1564     1.0  0.83366  0.34217  0.11795  1.0000
  H   H1565     1.0  0.78181  0.36498  0.10778  1.0000
  S   S398      1.0  0.66255  0.35850  0.02752  1.0000
  H   H1566     1.0  0.83190  0.36852  0.11962  1.0000
  C   C996      1.0  0.83017  0.39824  0.18790  1.0000
  C   C997      1.0  0.84663  0.38947  0.17533  1.0000
  H   H1567     1.0  0.85022  0.47458  0.14793  1.0000
  H   H1568     1.0  0.81641  0.40533  0.18227  1.0000
  H   H1569     1.0  0.87680  0.37249  0.17345  1.0000
  H   H1570     1.0  0.69242  0.26158  0.14152  1.0000
  C   C998      1.0  0.68019  0.17792  0.18412  1.0000
  C   C999      1.0  0.79617  0.33782  0.13701  1.0000
  H   H1571     1.0  0.84134  0.44062  0.20608  1.0000
  H   H1572     1.0  0.77946  0.33942  0.13803  1.0000
  C   C1000     1.0  0.74991  0.39067  0.05429  1.0000
  C   C1001     1.0  0.73824  0.38709  0.07297  1.0000
  C   C1002     1.0  0.74339  0.39339  0.08921  1.0000
  C   C1003     1.0  0.76030  0.40323  0.08697  1.0000
  C   C1004     1.0  0.77212  0.40660  0.06835  1.0000
  C   C1005     1.0  0.76692  0.40035  0.05209  1.0000
  H   H1573     1.0  0.72528  0.37941  0.07489  1.0000
  H   H1574     1.0  0.73424  0.39059  0.10360  1.0000
  H   H1575     1.0  0.78521  0.41411  0.06643  1.0000
  H   H1576     1.0  0.77606  0.40315  0.03769  1.0000
  H   H1577     1.0  0.79898  0.38791  0.13278  1.0000
  N   N98       1.0  0.80357  0.35705  0.12765  1.0000
  C   C1006     1.0  0.86986  0.46800  0.99972  1.0000
  C   C1007     1.0  0.66795  0.14989  0.20767  1.0000
  H   H1578     1.0  0.86347  0.45261  0.19759  1.0000
  H   H1579     1.0  0.69607  0.16014  0.20723  1.0000
  H   H1580     1.0  0.66353  0.14964  0.09190  1.0000
  C   C1008     1.0  0.88185  0.47507  0.05008  1.0000
  N   N99       1.0  0.69180  0.43637  0.05917  1.0000
  H   H1581     1.0  0.87893  0.37138  0.20874  1.0000
  C   C1009     1.0  0.86532  0.37887  0.20303  1.0000
  H   H1582     1.0  0.80315  0.32530  0.12839  1.0000
  H   H1583     1.0  0.81933  0.47369  0.19782  1.0000
  H   H1584     1.0  0.80566  0.35112  0.09802  1.0000
  H   H1585     1.0  0.71449  0.44783  0.03602  1.0000
  C   C1010     1.0  0.68262  0.16256  0.20050  1.0000
  C   C1011     1.0  0.67564  0.44276  0.04688  1.0000
  H   H1586     1.0  0.68013  0.15503  0.13827  1.0000
  C   C1012     1.0  0.66587  0.14858  0.14024  1.0000
  H   H1587     1.0  0.67932  0.16218  0.10216  1.0000
  C   C1013     1.0  0.82794  0.44812  0.17128  1.0000
  C   C1014     1.0  0.66621  0.29554  0.06425  1.0000
  H   H1588     1.0  0.86850  0.47266  0.16382  1.0000
  H   H1589     1.0  0.89232  0.46304  0.04372  1.0000
  C   C1015     1.0  0.66294  0.18094  0.17507  1.0000
  H   H1590     1.0  0.67339  0.41816  0.08143  1.0000
  C   C1016     1.0  0.83138  0.39755  0.20788  1.0000
  H   H1591     1.0  0.71292  0.42146  0.03723  1.0000
  H   H1592     1.0  0.72426  0.42922  0.05512  1.0000
  C   C1017     1.0  0.84897  0.38794  0.21550  1.0000
  H   H1593     1.0  0.88182  0.46021  0.98920  1.0000
  H   H1594     1.0  0.66038  0.44461  0.05613  1.0000
  C   C1018     1.0  0.71170  0.43365  0.04632  1.0000
  H   H1595     1.0  0.70011  0.41198  0.08204  1.0000
  H   H1596     1.0  0.81649  0.44313  0.18401  1.0000
  H   H1597     1.0  0.67493  0.28434  0.14577  1.0000
  N   N100      1.0  0.66443  0.13970  0.12288  1.0000
  S   S399      1.0  0.67109  0.12898  0.22672  1.0000
  H   H1598     1.0  0.66753  0.24043  0.16215  1.0000
  H   H1599     1.0  0.83596  0.43452  0.16467  1.0000
  H   H1600     1.0  0.81958  0.45810  0.16004  1.0000
  H   H1601     1.0  0.68126  0.23419  0.12853  1.0000
  H   H1602     1.0  0.68111  0.26445  0.06661  1.0000
  H   H1603     1.0  0.68092  0.11611  0.10671  1.0000
  H   H1604     1.0  0.87428  0.46352  0.01465  1.0000
  C   C1019     1.0  0.66504  0.15562  0.10527  1.0000
  H   H1605     1.0  0.68158  0.11090  0.13279  1.0000
  H   H1606     1.0  0.70775  0.03933  0.22269  1.0000
  C   C1020     1.0  0.67952  0.27240  0.13611  1.0000
  C   C1021     1.0  0.68861  0.41696  0.07209  1.0000
  Fe  Fe197     1.0  0.66867  0.38209  0.04322  1.0000
  H   H1607     1.0  0.67744  0.45741  0.03697  1.0000
  H   H1608     1.0  0.70328  0.44773  0.08087  1.0000
  H   H1609     1.0  0.69353  0.46698  0.06218  1.0000
  H   H1610     1.0  0.83568  0.48334  0.07869  1.0000
  H   H1611     1.0  0.86614  0.45078  0.15374  1.0000
  H   H1612     1.0  0.67643  0.45442  0.08140  1.0000
  S   S400      1.0  0.66098  0.19933  0.15367  1.0000
  C   C1022     1.0  0.85749  0.46445  0.15994  1.0000
  H   H1613     1.0  0.68959  0.40463  0.06327  1.0000
  C   C1023     1.0  0.69122  0.45209  0.07145  1.0000
  H   H1614     1.0  0.66528  0.13715  0.15394  1.0000
  C   C1024     1.0  0.66926  0.24619  0.12294  1.0000
  N   N101      1.0  0.66247  0.26182  0.13598  1.0000
  H   H1615     1.0  0.85564  0.46186  0.00045  1.0000
  H   H1616     1.0  0.67564  0.43120  0.03748  1.0000
  C   C1025     1.0  0.66694  0.27444  0.06971  1.0000
  C   C1026     1.0  0.83106  0.47737  0.18483  1.0000
  Fe  Fe198     1.0  0.95952  0.08609  0.43424  1.0000
  S   S401      1.0  0.93255  0.09339  0.45720  1.0000
  Fe  Fe199     1.0  0.93638  0.10400  0.40026  1.0000
  S   S402      1.0  0.90762  0.11265  0.42024  1.0000
  S   S403      1.0  0.93962  0.11107  0.36726  1.0000
  Fe  Fe200     1.0  0.92728  0.12304  0.43728  1.0000
  S   S404      1.0  0.91746  0.15392  0.44593  1.0000
  Fe  Fe201     1.0  0.91541  0.08223  0.43814  1.0000
  S   S405      1.0  0.89120  0.06344  0.45234  1.0000
  S   S406      1.0  0.95568  0.11699  0.41579  1.0000
  S   S407      1.0  0.94283  0.07229  0.41673  1.0000
  H   H1617     1.0  0.97342  0.42336  0.30185  1.0000
  S   S408      1.0  0.94316  0.45166  0.32165  1.0000
  H   H1618     1.0  0.92469  0.17579  0.40246  1.0000
  S   S409      1.0  0.95557  0.43021  0.37642  1.0000
  Fe  Fe202     1.0  0.84580  0.18567  0.34053  1.0000
  S   S410      1.0  0.82585  0.16789  0.36362  1.0000
  S   S411      1.0  0.87312  0.16977  0.32292  1.0000
  Fe  Fe203     1.0  0.81895  0.22556  0.34549  1.0000
  S   S412      1.0  0.79624  0.21067  0.36909  1.0000
  S   S413      1.0  0.81580  0.25971  0.33611  1.0000
  Fe  Fe204     1.0  0.82360  0.19287  0.38137  1.0000
  S   S414      1.0  0.82658  0.18162  0.41370  1.0000
  Fe  Fe205     1.0  0.80037  0.18688  0.34927  1.0000
  S   S415      1.0  0.77636  0.16862  0.34643  1.0000
  S   S416      1.0  0.84594  0.20924  0.35905  1.0000
  S   S417      1.0  0.82069  0.20331  0.32481  1.0000
  H   H1619     1.0  0.94546  0.98781  0.41401  1.0000
  S   S418      1.0  0.71562  0.10833  0.29768  1.0000
  H   H1620     1.0  0.91605  0.17004  0.38161  1.0000
  Fe  Fe206     1.0  0.72439  0.13104  0.27127  1.0000
  S   S419      1.0  0.74923  0.14987  0.27009  1.0000
  S   S420      1.0  0.69252  0.14727  0.26993  1.0000
  Fe  Fe207     1.0  0.87652  0.37189  0.25576  1.0000
  S   S421      1.0  0.86816  0.35655  0.28707  1.0000
  H   H1621     1.0  0.79474  0.25616  0.47006  1.0000
  Fe  Fe208     1.0  0.92176  0.35962  0.25698  1.0000
  S   S422      1.0  0.91632  0.34305  0.28783  1.0000
  H   H1622     1.0  0.84242  0.11684  0.44062  1.0000
  Fe  Fe209     1.0  0.89207  0.33086  0.27840  1.0000
  S   S423      1.0  0.89167  0.29688  0.28466  1.0000
  Fe  Fe210     1.0  0.89330  0.37031  0.29351  1.0000
  S   S424      1.0  0.89297  0.38142  0.32205  1.0000
  S   S425      1.0  0.89915  0.34529  0.24672  1.0000
  S   S426      1.0  0.89980  0.38777  0.26304  1.0000
  C   C1027     1.0  0.97359  0.35283  0.25426  1.0000
  C   C1028     1.0  0.96951  0.34791  0.27477  1.0000
  Fe  Fe211     1.0  0.68390  0.12299  0.29498  1.0000
  H   H1623     1.0  0.95538  0.28488  0.30537  1.0000
  H   H1624     1.0  0.87751  0.02455  0.46287  1.0000
  H   H1625     1.0  0.66878  0.05147  0.24655  1.0000
  H   H1626     1.0  0.95428  0.35047  0.28241  1.0000
  H   H1627     1.0  0.96796  0.40444  0.33579  1.0000
  H   H1628     1.0  0.82914  0.33725  0.29147  1.0000
  C   C1029     1.0  0.96013  0.44881  0.47041  1.0000
  C   C1030     1.0  0.71649  0.01806  0.27627  1.0000
  C   C1031     1.0  0.71351  0.00494  0.26408  1.0000
  H   H1629     1.0  0.67524  0.08278  0.33515  1.0000
  S   S427      1.0  0.98817  0.06901  0.44462  1.0000
  C   C1032     1.0  0.83742  0.26972  0.32267  1.0000
  C   C1033     1.0  0.83804  0.29060  0.32086  1.0000
  C   C1034     1.0  0.85483  0.29904  0.30966  1.0000
  C   C1035     1.0  0.87092  0.28669  0.29988  1.0000
  C   C1036     1.0  0.87038  0.26580  0.30184  1.0000
  C   C1037     1.0  0.85376  0.25731  0.31328  1.0000
  H   H1630     1.0  0.82557  0.30022  0.32831  1.0000
  H   H1631     1.0  0.85535  0.31503  0.30870  1.0000
  H   H1632     1.0  0.88279  0.25612  0.29439  1.0000
  H   H1633     1.0  0.85342  0.24121  0.31456  1.0000
  C   C1038     1.0  0.77012  0.16302  0.32474  1.0000
  C   C1039     1.0  0.77642  0.17339  0.30596  1.0000
  C   C1040     1.0  0.77028  0.16890  0.28929  1.0000
  C   C1041     1.0  0.75784  0.15401  0.29122  1.0000
  C   C1042     1.0  0.75205  0.14326  0.30995  1.0000
  C   C1043     1.0  0.75809  0.14782  0.32659  1.0000
  H   H1634     1.0  0.78564  0.18517  0.30431  1.0000
  H   H1635     1.0  0.77489  0.17726  0.27485  1.0000
  H   H1636     1.0  0.74281  0.13153  0.31162  1.0000
  H   H1637     1.0  0.75335  0.13954  0.34104  1.0000
  C   C1044     1.0  0.83579  0.22223  0.45598  1.0000
  C   C1045     1.0  0.83460  0.23038  0.43616  1.0000
  C   C1046     1.0  0.83163  0.21819  0.42301  1.0000
  C   C1047     1.0  0.82964  0.19778  0.42969  1.0000
  C   C1048     1.0  0.83061  0.18973  0.44956  1.0000
  C   C1049     1.0  0.83391  0.20179  0.46260  1.0000
  H   H1638     1.0  0.83075  0.22463  0.40777  1.0000
  H   H1639     1.0  0.82852  0.17416  0.45499  1.0000
  Fe  Fe212     1.0  0.95966  0.45033  0.34706  1.0000
  H   H1640     1.0  0.84821  0.09444  0.45824  1.0000
  S   S428      1.0  0.84963  0.38738  0.24072  1.0000
  Fe  Fe213     1.0  0.96066  0.45686  0.38874  1.0000
  H   H1641     1.0  0.83595  0.24621  0.43094  1.0000
  H   H1642     1.0  0.71923  0.01201  0.29113  1.0000
  H   H1643     1.0  0.98013  0.40637  0.44963  1.0000
  H   H1644     1.0  0.82730  0.35979  0.27334  1.0000
  H   H1645     1.0  0.94960  0.32086  0.25915  1.0000
  C   C1050     1.0  0.92928  0.43203  0.32199  1.0000
  C   C1051     1.0  0.92401  0.41876  0.33934  1.0000
  C   C1052     1.0  0.91287  0.40332  0.33917  1.0000
  C   C1053     1.0  0.90724  0.40076  0.32162  1.0000
  C   C1054     1.0  0.91279  0.41383  0.30420  1.0000
  C   C1055     1.0  0.92359  0.42954  0.30444  1.0000
  H   H1646     1.0  0.82471  0.13603  0.46748  1.0000
  H   H1647     1.0  0.90836  0.41216  0.29064  1.0000
  H   H1648     1.0  0.92756  0.43978  0.29098  1.0000
  C   C1056     1.0  0.91130  0.17277  0.39718  1.0000
  Fe  Fe214     1.0  0.71195  0.08896  0.27622  1.0000
  H   H1649     1.0  0.90714  0.15832  0.40609  1.0000
  C   C1057     1.0  0.71015  0.01256  0.24478  1.0000
  H   H1650     1.0  0.82755  0.30381  0.28246  1.0000
  C   C1058     1.0  0.92048  0.12746  0.35585  1.0000
  C   C1059     1.0  0.90197  0.13529  0.36654  1.0000
  C   C1060     1.0  0.88718  0.14831  0.35662  1.0000
  C   C1061     1.0  0.89101  0.15363  0.33605  1.0000
  C   C1062     1.0  0.90939  0.14568  0.32547  1.0000
  C   C1063     1.0  0.92404  0.13268  0.33532  1.0000
  H   H1651     1.0  0.89894  0.13112  0.38233  1.0000
  H   H1652     1.0  0.87277  0.15399  0.36481  1.0000
  H   H1653     1.0  0.91239  0.14964  0.30958  1.0000
  H   H1654     1.0  0.93824  0.12665  0.32696  1.0000
  S   S429      1.0  0.66381  0.12845  0.32351  1.0000
  H   H1655     1.0  0.72509  0.18098  0.31091  1.0000
  C   C1064     1.0  0.86335  0.14047  0.45353  1.0000
  H   H1656     1.0  0.82355  0.30243  0.25824  1.0000
  H   H1657     1.0  0.68281  0.04023  0.35957  1.0000
  H   H1658     1.0  0.90852  0.39335  0.35272  1.0000
  N   N102      1.0  0.66985  0.05289  0.33340  1.0000
  C   C1065     1.0  0.90052  0.04639  0.41851  1.0000
  C   C1066     1.0  0.89171  0.04427  0.43842  1.0000
  C   C1067     1.0  0.88448  0.02621  0.44751  1.0000
  C   C1068     1.0  0.88683  0.01000  0.43693  1.0000
  H   H1659     1.0  0.90566  0.06046  0.41124  1.0000
  H   H1660     1.0  0.70727  0.18710  0.34374  1.0000
  S   S430      1.0  0.96147  0.47791  0.35986  1.0000
  H   H1661     1.0  0.88040  0.18292  0.37647  1.0000
  N   N103      1.0  0.69470  0.17565  0.32285  1.0000
  N   N104      1.0  0.85582  0.12178  0.46450  1.0000
  C   C1069     1.0  0.82200  0.34478  0.27839  1.0000
  H   H1662     1.0  0.80540  0.34779  0.28346  1.0000
  H   H1663     1.0  0.98013  0.37858  0.34111  1.0000
  H   H1664     1.0  0.98180  0.33551  0.30141  1.0000
  H   H1665     1.0  0.95589  0.26531  0.25901  1.0000
  C   C1070     1.0  0.71026  0.18190  0.30609  1.0000
  S   S431      1.0  0.67950  0.10197  0.27571  1.0000
  H   H1666     1.0  0.85362  0.14857  0.44250  1.0000
  H   H1667     1.0  0.70593  0.19780  0.29895  1.0000
  C   C1071     1.0  0.67511  0.17794  0.31594  1.0000
  H   H1668     1.0  0.85385  0.31884  0.24452  1.0000
  N   N105      1.0  0.83412  0.12882  0.32032  1.0000
  C   C1072     1.0  0.85177  0.12442  0.33072  1.0000
  C   C1073     1.0  0.81568  0.12509  0.33460  1.0000
  C   C1074     1.0  0.83735  0.11553  0.30511  1.0000
  C   C1075     1.0  0.83166  0.15030  0.31079  1.0000
  H   H1669     1.0  0.86592  0.12731  0.32040  1.0000
  H   H1670     1.0  0.85417  0.10835  0.33810  1.0000
  H   H1671     1.0  0.84988  0.13429  0.34221  1.0000
  H   H1672     1.0  0.80209  0.12823  0.32722  1.0000
  H   H1673     1.0  0.81700  0.10909  0.34226  1.0000
  H   H1674     1.0  0.81258  0.13513  0.34612  1.0000
  H   H1675     1.0  0.85112  0.11806  0.29406  1.0000
  H   H1676     1.0  0.82428  0.11849  0.29699  1.0000
  H   H1677     1.0  0.83929  0.09918  0.31177  1.0000
  H   H1678     1.0  0.81867  0.15414  0.30255  1.0000
  H   H1679     1.0  0.84550  0.15392  0.30034  1.0000
  H   H1680     1.0  0.82880  0.16067  0.32191  1.0000
  H   H1681     1.0  0.71408  0.98889  0.26956  1.0000
  C   C1076     1.0  0.67964  0.03561  0.32300  1.0000
  C   C1077     1.0  0.85346  0.10889  0.45044  1.0000
  H   H1682     1.0  0.94673  0.02209  0.41979  1.0000
  H   H1683     1.0  0.71502  0.15196  0.33730  1.0000
  H   H1684     1.0  0.68113  0.04017  0.30672  1.0000
  S   S432      1.0  0.95365  0.36055  0.24036  1.0000
  C   C1078     1.0  0.98182  0.39351  0.33168  1.0000
  C   C1079     1.0  0.82008  0.31232  0.26988  1.0000
  C   C1080     1.0  0.94521  0.01652  0.43595  1.0000
  H   H1685     1.0  0.68112  0.18413  0.35111  1.0000
  H   H1686     1.0  0.67050  0.00606  0.26314  1.0000
  C   C1081     1.0  0.97821  0.28948  0.26924  1.0000
  C   C1082     1.0  0.97206  0.42150  0.45109  1.0000
  H   H1687     1.0  0.98356  0.99991  0.44017  1.0000
  C   C1083     1.0  0.65873  0.04238  0.24230  1.0000
  C   C1084     1.0  0.98523  0.33982  0.28558  1.0000
  C   C1085     1.0  0.90556  0.15521  0.47026  1.0000
  H   H1688     1.0  0.93187  0.29718  0.29761  1.0000
  H   H1689     1.0  0.68890  0.14863  0.34332  1.0000
  C   C1086     1.0  0.68230  0.06937  0.32777  1.0000
  C   C1087     1.0  0.71012  0.03335  0.23767  1.0000
  H   H1690     1.0  0.95252  0.31115  0.29449  1.0000
  H   H1691     1.0  0.95690  0.99643  0.46972  1.0000
  H   H1692     1.0  0.97865  0.99678  0.41663  1.0000
  H   H1693     1.0  0.89201  0.18646  0.46306  1.0000
  H   H1694     1.0  0.98256  0.30461  0.26891  1.0000
  C   C1088     1.0  0.95076  0.27012  0.27376  1.0000
  C   C1089     1.0  0.90275  0.03024  0.40792  1.0000
  H   H1695     1.0  0.90470  0.20667  0.37095  1.0000
  C   C1090     1.0  0.95129  0.46063  0.45462  1.0000
  N   N106      1.0  0.89425  0.18968  0.39906  1.0000
  H   H1696     1.0  0.93405  0.27036  0.27739  1.0000
  H   H1697     1.0  0.87893  0.13703  0.44540  1.0000
  H   H1698     1.0  0.98603  0.27853  0.28038  1.0000
  C   C1091     1.0  0.89629  0.01187  0.41720  1.0000
  H   H1699     1.0  0.67148  0.02590  0.27647  1.0000
  C   C1092     1.0  0.71270  0.04657  0.25000  1.0000
  N   N107      1.0  0.82715  0.33212  0.26250  1.0000
  C   C1093     1.0  0.90026  0.20850  0.38678  1.0000
  H   H1700     1.0  0.91331  0.21282  0.39158  1.0000
  H   H1701     1.0  0.88759  0.22149  0.38771  1.0000
  H   H1702     1.0  0.97476  0.12050  0.47384  1.0000
  S   S433      1.0  0.71907  0.05494  0.28531  1.0000
  C   C1094     1.0  0.71594  0.03892  0.26933  1.0000
  C   C1095     1.0  0.95350  0.45314  0.43683  1.0000
  H   H1703     1.0  0.88124  0.99610  0.44402  1.0000
  H   H1704     1.0  0.85505  0.34332  0.25013  1.0000
  C   C1096     1.0  0.87683  0.18468  0.39232  1.0000
  H   H1705     1.0  0.90987  0.03184  0.39260  1.0000
  H   H1706     1.0  0.69521  0.02987  0.32632  1.0000
  S   S434      1.0  0.72351  0.11033  0.24946  1.0000
  H   H1707     1.0  0.86352  0.19682  0.39418  1.0000
  H   H1708     1.0  0.95779  0.25825  0.28478  1.0000
  H   H1709     1.0  0.87211  0.17028  0.40086  1.0000
  C   C1097     1.0  0.94640  0.30542  0.25906  1.0000
  H   H1710     1.0  0.70308  0.14409  0.31983  1.0000
  N   N108      1.0  0.95602  0.29027  0.27395  1.0000
  H   H1711     1.0  0.71243  0.06262  0.24447  1.0000
  S   S435      1.0  0.83889  0.23819  0.47215  1.0000
  Fe  Fe215     1.0  0.69082  0.12494  0.25033  1.0000
  H   H1712     1.0  0.82113  0.33381  0.23311  1.0000
  H   H1713     1.0  0.98437  0.28493  0.25451  1.0000
  H   H1714     1.0  0.76485  0.23928  0.47167  1.0000
  N   N109      1.0  0.95343  0.99468  0.44018  1.0000
  C   C1098     1.0  0.96376  0.43352  0.43514  1.0000
  H   H1715     1.0  0.90142  0.19594  0.42576  1.0000
  C   C1099     1.0  0.88844  0.19283  0.41988  1.0000
  C   C1100     1.0  0.96794  0.38464  0.30579  1.0000
  H   H1716     1.0  0.87596  0.20585  0.42171  1.0000
  C   C1101     1.0  0.69270  0.18853  0.33822  1.0000
  H   H1717     1.0  0.94332  0.47581  0.45593  1.0000
  H   H1718     1.0  0.88307  0.17920  0.42945  1.0000
  H   H1719     1.0  0.98621  0.47934  0.42721  1.0000
  H   H1720     1.0  0.95355  0.39487  0.30974  1.0000
  C   C1102     1.0  0.70073  0.15416  0.33122  1.0000
  S   S436      1.0  0.94458  0.46879  0.41641  1.0000
  H   H1721     1.0  0.82225  0.35782  0.23984  1.0000
  H   H1722     1.0  0.86805  0.10447  0.44088  1.0000
  C   C1103     1.0  0.84929  0.32872  0.25617  1.0000
  H   H1723     1.0  0.92810  0.42065  0.35298  1.0000
  H   H1724     1.0  0.66308  0.17296  0.32813  1.0000
  Fe  Fe216     1.0  0.98944  0.42307  0.37093  1.0000
  H   H1725     1.0  0.68816  0.20486  0.33244  1.0000
  H   H1726     1.0  0.96611  0.36925  0.31411  1.0000
  H   H1727     1.0  0.67086  0.02270  0.32731  1.0000
  H   H1728     1.0  0.71275  0.17197  0.29452  1.0000
  H   H1729     1.0  0.80349  0.31425  0.27519  1.0000
  H   H1730     1.0  0.96534  0.42758  0.42149  1.0000
  H   H1731     1.0  0.92968  0.30623  0.26190  1.0000
  H   H1732     1.0  0.80055  0.34546  0.24971  1.0000
  C   C1104     1.0  0.97063  0.42929  0.46856  1.0000
  H   H1733     1.0  0.99019  0.41160  0.28264  1.0000
  H   H1734     1.0  0.96971  0.38392  0.28977  1.0000
  C   C1105     1.0  0.94863  0.29611  0.29373  1.0000
  H   H1735     1.0  0.88549  0.10599  0.46857  1.0000
  C   C1106     1.0  0.97540  0.99149  0.43280  1.0000
  C   C1107     1.0  0.81729  0.34273  0.24554  1.0000
  H   H1736     1.0  0.66993  0.19396  0.30963  1.0000
  H   H1737     1.0  0.69774  0.06421  0.33159  1.0000
  H   H1738     1.0  0.67615  0.16841  0.30432  1.0000
  H   H1739     1.0  0.93318  0.98971  0.46762  1.0000
  H   H1740     1.0  0.68429  0.07469  0.31162  1.0000
  H   H1741     1.0  0.95197  0.30186  0.24388  1.0000
  H   H1742     1.0  0.96851  0.16688  0.46185  1.0000
  H   H1743     1.0  0.66855  0.03146  0.23302  1.0000
  S   S437      1.0  0.90136  0.99119  0.40419  1.0000
  H   H1744     1.0  0.85728  0.32124  0.26870  1.0000
  C   C1108     1.0  0.66101  0.01766  0.27176  1.0000
  H   H1745     1.0  0.66045  0.05883  0.36321  1.0000
  H   H1746     1.0  0.86389  0.15121  0.46364  1.0000
  C   C1109     1.0  0.66781  0.04613  0.35494  1.0000
  H   H1747     1.0  0.95202  0.13685  0.46833  1.0000
  H   H1748     1.0  0.98600  0.47962  0.45290  1.0000
  C   C1110     1.0  0.89418  0.17364  0.47463  1.0000
  H   H1749     1.0  0.92884  0.01948  0.44210  1.0000
  C   C1111     1.0  0.97752  0.15993  0.47380  1.0000
  N   N110      1.0  0.98530  0.39195  0.31047  1.0000
  S   S438      1.0  0.70477  0.99675  0.22965  1.0000
  H   H1750     1.0  0.95300  0.02603  0.44253  1.0000
  C   C1112     1.0  0.94968  0.98777  0.46170  1.0000
  C   C1113     1.0  0.98738  0.41220  0.29874  1.0000
  H   H1751     1.0  0.65843  0.03374  0.35974  1.0000
  C   C1114     1.0  0.83602  0.12735  0.47673  1.0000
  H   H1752     1.0  0.90137  0.42840  0.62120  1.0000
  Fe  Fe217     1.0  0.67421  0.13284  0.60429  1.0000
  H   H1753     1.0  0.97366  0.32970  0.65009  1.0000
  C   C1115     1.0  0.75931  0.24305  0.48683  1.0000
  Fe  Fe218     1.0  0.71938  0.12760  0.60456  1.0000
  S   S439      1.0  0.71554  0.11652  0.63724  1.0000
  S   S440      1.0  0.75117  0.12929  0.58797  1.0000
  Fe  Fe219     1.0  0.69325  0.09833  0.63185  1.0000
  S   S441      1.0  0.68835  0.06670  0.64694  1.0000
  Fe  Fe220     1.0  0.68949  0.14218  0.63925  1.0000
  S   S442      1.0  0.68753  0.16469  0.66008  1.0000
  S   S443      1.0  0.69931  0.10704  0.59898  1.0000
  S   S444      1.0  0.69468  0.15431  0.60681  1.0000
  C   C1116     1.0  0.91764  0.43852  0.57880  1.0000
  C   C1117     1.0  0.71487  0.03279  0.60403  1.0000
  H   H1754     1.0  0.79537  0.21950  0.48350  1.0000
  H   H1755     1.0  0.89933  0.36214  0.71999  1.0000
  H   H1756     1.0  0.88729  0.39895  0.68037  1.0000
  Fe  Fe221     1.0  0.90975  0.31193  0.62284  1.0000
  S   S445      1.0  0.88912  0.33857  0.63470  1.0000
  S   S446      1.0  0.90113  0.28195  0.61947  1.0000
  Fe  Fe222     1.0  0.94781  0.33110  0.61936  1.0000
  S   S447      1.0  0.93053  0.35930  0.63041  1.0000
  H   H1757     1.0  0.68816  0.06807  0.56157  1.0000
  Fe  Fe223     1.0  0.91280  0.33844  0.65308  1.0000
  S   S448      1.0  0.90851  0.34424  0.68461  1.0000
  Fe  Fe224     1.0  0.90834  0.35741  0.61127  1.0000
  S   S449      1.0  0.89470  0.38615  0.59376  1.0000
  S   S450      1.0  0.93201  0.31010  0.64348  1.0000
  S   S451      1.0  0.92706  0.33103  0.59795  1.0000
  Fe  Fe225     1.0  0.85256  0.23801  0.54158  1.0000
  S   S452      1.0  0.82441  0.24403  0.52772  1.0000
  S   S453      1.0  0.86212  0.26614  0.54864  1.0000
  Fe  Fe226     1.0  0.86082  0.19414  0.53413  1.0000
  S   S454      1.0  0.83327  0.19668  0.52027  1.0000
  S   S455      1.0  0.88102  0.16380  0.53399  1.0000
  Fe  Fe227     1.0  0.84202  0.22632  0.50421  1.0000
  H   H1758     1.0  0.90207  0.41792  0.50066  1.0000
  Fe  Fe228     1.0  0.81756  0.21389  0.54474  1.0000
  S   S456      1.0  0.78441  0.21311  0.55725  1.0000
  S   S457      1.0  0.87084  0.22285  0.51640  1.0000
  S   S458      1.0  0.84446  0.20884  0.56047  1.0000
  H   H1759     1.0  0.88477  0.44219  0.66042  1.0000
  C   C1118     1.0  0.88982  0.27792  0.59993  1.0000
  C   C1119     1.0  0.88555  0.29346  0.58440  1.0000
  C   C1120     1.0  0.87711  0.28950  0.56888  1.0000
  C   C1121     1.0  0.87283  0.27002  0.56865  1.0000
  C   C1122     1.0  0.87724  0.25443  0.58412  1.0000
  C   C1123     1.0  0.88571  0.25839  0.59966  1.0000
  H   H1760     1.0  0.88862  0.30855  0.58439  1.0000
  H   H1761     1.0  0.87372  0.30165  0.55699  1.0000
  H   H1762     1.0  0.87402  0.23939  0.58415  1.0000
  H   H1763     1.0  0.88898  0.24625  0.61159  1.0000
  C   C1124     1.0  0.87971  0.39998  0.64326  1.0000
  C   C1125     1.0  0.85190  0.38403  0.71180  1.0000
  C   C1126     1.0  0.85185  0.37617  0.69459  1.0000
  C   C1127     1.0  0.86891  0.36346  0.68641  1.0000
  C   C1128     1.0  0.88615  0.35848  0.69545  1.0000
  C   C1129     1.0  0.88605  0.36597  0.71291  1.0000
  H   H1764     1.0  0.93159  0.29157  0.58200  1.0000
  H   H1765     1.0  0.83860  0.38004  0.68746  1.0000
  H   H1766     1.0  0.86877  0.35758  0.67309  1.0000
  H   H1767     1.0  0.95109  0.17031  0.50551  1.0000
  H   H1768     1.0  0.95199  0.12002  0.49146  1.0000
  C   C1130     1.0  0.75999  0.15268  0.57852  1.0000
  C   C1131     1.0  0.74694  0.17122  0.57851  1.0000
  C   C1132     1.0  0.75463  0.18962  0.57186  1.0000
  C   C1133     1.0  0.77538  0.18964  0.56509  1.0000
  C   C1134     1.0  0.78841  0.17111  0.56486  1.0000
  C   C1135     1.0  0.78072  0.15271  0.57154  1.0000
  H   H1769     1.0  0.73094  0.17140  0.58361  1.0000
  H   H1770     1.0  0.74445  0.20391  0.57197  1.0000
  H   H1771     1.0  0.80443  0.17094  0.55967  1.0000
  H   H1772     1.0  0.79091  0.13842  0.57150  1.0000
  C   C1136     1.0  0.69569  0.04677  0.63280  1.0000
  C   C1137     1.0  0.68764  0.02859  0.63926  1.0000
  C   C1138     1.0  0.70934  0.04881  0.61514  1.0000
  C   C1139     1.0  0.93571  0.39300  0.50951  1.0000
  H   H1773     1.0  0.71591  0.06259  0.61022  1.0000
  H   H1774     1.0  0.90398  0.43749  0.51412  1.0000
  H   H1775     1.0  0.98561  0.28487  0.58812  1.0000
  C   C1140     1.0  0.76839  0.24920  0.51670  1.0000
  H   H1776     1.0  0.78168  0.21204  0.50782  1.0000
  C   C1141     1.0  0.94770  0.15806  0.49861  1.0000
  C   C1142     1.0  0.78803  0.25986  0.48506  1.0000
  H   H1777     1.0  0.97556  0.25337  0.56614  1.0000
  C   C1143     1.0  0.93850  0.43195  0.57685  1.0000
  S   S459      1.0  0.97584  0.46162  0.51705  1.0000
  C   C1144     1.0  0.88928  0.15985  0.50945  1.0000
  C   C1145     1.0  0.91172  0.40353  0.58634  1.0000
  C   C1146     1.0  0.93259  0.39688  0.58412  1.0000
  C   C1147     1.0  0.87686  0.43171  0.65525  1.0000
  H   H1778     1.0  0.93840  0.38078  0.58631  1.0000
  N   N111      1.0  0.89087  0.41333  0.65014  1.0000
  S   S460      1.0  0.95481  0.44992  0.57313  1.0000
  H   H1779     1.0  0.87696  0.19008  0.49718  1.0000
  H   H1780     1.0  0.90904  0.38771  0.66492  1.0000
  H   H1781     1.0  0.77853  0.27509  0.48330  1.0000
  H   H1782     1.0  0.97699  0.29004  0.56463  1.0000
  C   C1148     1.0  0.93807  0.41925  0.52773  1.0000
  C   C1149     1.0  0.97080  0.25243  0.58238  1.0000
  H   H1783     1.0  0.86657  0.39593  0.65447  1.0000
  H   H1784     1.0  0.90258  0.12859  0.51690  1.0000
  C   C1150     1.0  0.90009  0.14109  0.50506  1.0000
  H   H1785     1.0  0.96638  0.26593  0.61707  1.0000
  C   C1151     1.0  0.88577  0.17580  0.49410  1.0000
  H   H1786     1.0  0.89893  0.39328  0.53191  1.0000
  H   H1787     1.0  0.87241  0.11959  0.48826  1.0000
  H   H1788     1.0  0.79484  0.37001  0.72478  1.0000
  H   H1789     1.0  0.94486  0.27904  0.56170  1.0000
  C   C1152     1.0  0.91281  0.42475  0.50661  1.0000
  H   H1790     1.0  0.92326  0.43141  0.49374  1.0000
  S   S461      1.0  0.98150  0.32701  0.60822  1.0000
  C   C1153     1.0  0.66422  0.18511  0.68908  1.0000
  C   C1154     1.0  0.90975  0.40084  0.53695  1.0000
  H   H1791     1.0  0.75292  0.14664  0.66796  1.0000
  N   N112      1.0  0.77630  0.24410  0.49670  1.0000
  C   C1155     1.0  0.97926  0.13668  0.50430  1.0000
  C   C1156     1.0  0.78958  0.22421  0.49824  1.0000
  Fe  Fe229     1.0  0.98007  0.44642  0.54768  1.0000
  H   H1792     1.0  0.98961  0.41680  0.58514  1.0000
  N   N113      1.0  0.96637  0.14622  0.48927  1.0000
  H   H1793     1.0  0.75833  0.26415  0.51622  1.0000
  H   H1794     1.0  0.94520  0.38166  0.51899  1.0000
  H   H1795     1.0  0.73045  0.16548  0.66813  1.0000
  C   C1157     1.0  0.66105  0.02903  0.57536  1.0000
  H   H1796     1.0  0.94607  0.39905  0.49630  1.0000
  C   C1158     1.0  0.90802  0.13868  0.48538  1.0000
  C   C1159     1.0  0.94096  0.27716  0.57805  1.0000
  H   H1797     1.0  0.73218  0.14342  0.65703  1.0000
  C   C1160     1.0  0.68498  0.05230  0.56290  1.0000
  H   H1798     1.0  0.68647  0.99881  0.63291  1.0000
  H   H1799     1.0  0.68762  0.04826  0.54779  1.0000
  H   H1800     1.0  0.92979  0.43138  0.53634  1.0000
  H   H1801     1.0  0.98682  0.39543  0.62697  1.0000
  H   H1802     1.0  0.93763  0.16544  0.48764  1.0000
  H   H1803     1.0  0.90890  0.41156  0.67274  1.0000
  H   H1804     1.0  0.76894  0.36813  0.72450  1.0000
  H   H1805     1.0  0.93883  0.14826  0.51038  1.0000
  H   H1806     1.0  0.93104  0.26521  0.58283  1.0000
  H   H1807     1.0  0.96358  0.30304  0.58453  1.0000
  H   H1808     1.0  0.91676  0.42857  0.63919  1.0000
  H   H1809     1.0  0.98375  0.14830  0.51124  1.0000
  H   H1810     1.0  0.94313  0.25806  0.61490  1.0000
  S   S462      1.0  0.83044  0.40067  0.72089  1.0000
  H   H1811     1.0  0.72562  0.03441  0.59051  1.0000
  C   C1161     1.0  0.89944  0.40242  0.66776  1.0000
  N   N114      1.0  0.95920  0.27191  0.58762  1.0000
  H   H1812     1.0  0.90068  0.41280  0.54539  1.0000
  H   H1813     1.0  0.82985  0.11361  0.48519  1.0000
  H   H1814     1.0  0.96206  0.40597  0.57712  1.0000
  H   H1815     1.0  0.88814  0.42946  0.58457  1.0000
  C   C1162     1.0  0.66100  0.05671  0.59264  1.0000
  H   H1816     1.0  0.86993  0.44024  0.64234  1.0000
  C   C1163     1.0  0.90741  0.41924  0.63431  1.0000
  C   C1164     1.0  0.94599  0.41112  0.57897  1.0000
  C   C1165     1.0  0.96104  0.13022  0.48034  1.0000
  H   H1817     1.0  0.86427  0.42771  0.66731  1.0000
  H   H1818     1.0  0.88952  0.38549  0.64014  1.0000
  C   C1166     1.0  0.70652  0.01479  0.61027  1.0000
  S   S463      1.0  0.71272  0.99580  0.59502  1.0000
  H   H1819     1.0  0.87392  0.40734  0.62937  1.0000
  N   N115      1.0  0.92408  0.40945  0.52021  1.0000
  H   H1820     1.0  0.98137  0.17247  0.47993  1.0000
  H   H1821     1.0  0.69633  0.04193  0.57107  1.0000
  H   H1822     1.0  0.91181  0.45463  0.57706  1.0000
  C   C1167     1.0  0.90428  0.42431  0.58303  1.0000
  H   H1823     1.0  0.91761  0.40565  0.62935  1.0000
  H   H1824     1.0  0.94434  0.28433  0.61362  1.0000
  S   S464      1.0  0.66677  0.12314  0.63692  1.0000
  H   H1825     1.0  0.83724  0.13701  0.48760  1.0000
  H   H1826     1.0  0.94736  0.40805  0.53750  1.0000
  H   H1827     1.0  0.67715  0.02691  0.65297  1.0000
  H   H1828     1.0  0.92558  0.38480  0.50424  1.0000
  H   H1829     1.0  0.67191  0.01866  0.58419  1.0000
  C   C1168     1.0  0.69291  0.01267  0.62796  1.0000
  H   H1830     1.0  0.80091  0.26113  0.49221  1.0000
  H   H1831     1.0  0.75972  0.23746  0.52601  1.0000
  C   C1169     1.0  0.97192  0.28812  0.58087  1.0000
  H   H1832     1.0  0.94871  0.42642  0.51547  1.0000
  N   N116      1.0  0.74998  0.16565  0.64001  1.0000
  C   C1170     1.0  0.76145  0.18080  0.64342  1.0000
  C   C1171     1.0  0.76371  0.15090  0.62851  1.0000
  C   C1172     1.0  0.73363  0.17611  0.62891  1.0000
  C   C1173     1.0  0.74109  0.15482  0.65915  1.0000
  H   H1833     1.0  0.75148  0.19226  0.65192  1.0000
  H   H1834     1.0  0.76840  0.18915  0.62920  1.0000
  H   H1835     1.0  0.77390  0.17345  0.65181  1.0000
  H   H1836     1.0  0.75551  0.13935  0.62546  1.0000
  H   H1837     1.0  0.77071  0.15857  0.61398  1.0000
  H   H1838     1.0  0.77619  0.14256  0.63643  1.0000
  H   H1839     1.0  0.72237  0.18662  0.63754  1.0000
  H   H1840     1.0  0.72527  0.16501  0.62537  1.0000
  H   H1841     1.0  0.73967  0.18515  0.61476  1.0000
  H   H1842     1.0  0.91779  0.38928  0.54753  1.0000
  H   H1843     1.0  0.86531  0.09605  0.48564  1.0000
  C   C1174     1.0  0.95309  0.26988  0.60925  1.0000
  H   H1844     1.0  0.80295  0.22491  0.50476  1.0000
  H   H1845     1.0  0.66331  0.02384  0.56080  1.0000
  C   C1175     1.0  0.66874  0.99412  0.53589  1.0000
  C   C1176     1.0  0.86901  0.37880  0.72103  1.0000
  H   H1846     1.0  0.96157  0.23991  0.58739  1.0000
  H   H1847     1.0  0.67157  0.04699  0.60207  1.0000
  H   H1848     1.0  0.97134  0.12623  0.51621  1.0000
  C   C1177     1.0  0.66554  0.16985  0.67756  1.0000
  C   C1178     1.0  0.98816  0.38620  0.61506  1.0000
  H   H1849     1.0  0.67681  0.19324  0.68747  1.0000
  H   H1850     1.0  0.91660  0.12431  0.48209  1.0000
  N   N117      1.0  0.66415  0.05041  0.57300  1.0000
  H   H1851     1.0  0.78088  0.24995  0.52461  1.0000
  H   H1852     1.0  0.98922  0.36995  0.62202  1.0000
  C   C1179     1.0  0.98976  0.32890  0.64491  1.0000
  H   H1853     1.0  0.68134  0.00240  0.53060  1.0000
  H   H1854     1.0  0.97388  0.39020  0.60877  1.0000
  H   H1855     1.0  0.75963  0.40490  0.72637  1.0000
  S   S465      1.0  0.98270  0.41453  0.48758  1.0000
  H   H1856     1.0  0.83476  0.19535  0.47782  1.0000
  H   H1857     1.0  0.75033  0.23113  0.49519  1.0000
  H   H1858     1.0  0.98466  0.24801  0.58935  1.0000
  H   H1859     1.0  0.74890  0.25779  0.48549  1.0000
  H   H1860     1.0  0.95883  0.45485  0.48390  1.0000
  Fe  Fe230     1.0  0.99140  0.43174  0.50828  1.0000
  H   H1861     1.0  0.66348  0.07271  0.59151  1.0000
  C   C1180     1.0  0.87037  0.11040  0.47734  1.0000
  H   H1862     1.0  0.77731  0.31071  0.87480  1.0000
  H   H1863     1.0  0.76510  0.32940  0.85720  1.0000
  H   H1864     1.0  0.73339  0.31470  0.91567  1.0000
  S   S466      1.0  0.97173  0.48332  0.86989  1.0000
  H   H1865     1.0  0.74856  0.29154  0.88067  1.0000
  C   C1181     1.0  0.76631  0.32502  0.87319  1.0000
  H   H1866     1.0  0.67150  0.41885  0.94525  1.0000
  H   H1867     1.0  0.73028  0.34647  0.86677  1.0000
  C   C1182     1.0  0.77083  0.40315  0.73644  1.0000
  C   C1183     1.0  0.78881  0.38081  0.76063  1.0000
  S   S467      1.0  0.91298  0.48305  0.87084  1.0000
  Fe  Fe231     1.0  0.67909  0.32374  0.88501  1.0000
  C   C1184     1.0  0.75399  0.37863  0.76044  1.0000
  S   S468      1.0  0.68818  0.31373  0.91527  1.0000
  Fe  Fe232     1.0  0.69796  0.33437  0.84230  1.0000
  H   H1868     1.0  0.66236  0.29630  0.80580  1.0000
  S   S469      1.0  0.73001  0.33465  0.82600  1.0000
  Fe  Fe233     1.0  0.66164  0.31132  0.85180  1.0000
  Fe  Fe234     1.0  0.81561  0.45815  0.75942  1.0000
  H   H1869     1.0  0.67620  0.21325  0.79449  1.0000
  H   H1870     1.0  0.83700  0.46734  0.84057  1.0000
  S   S470      1.0  0.68628  0.35302  0.86656  1.0000
  S   S471      1.0  0.69227  0.30463  0.86121  1.0000
  Fe  Fe235     1.0  0.79548  0.42259  0.78432  1.0000
  S   S472      1.0  0.82395  0.40011  0.77980  1.0000
  S   S473      1.0  0.76404  0.41823  0.80048  1.0000
  Fe  Fe236     1.0  0.83935  0.42503  0.78484  1.0000
  S   S474      1.0  0.86040  0.41902  0.80726  1.0000
  S   S475      1.0  0.81049  0.44631  0.79176  1.0000
  H   H1871     1.0  0.75416  0.32861  0.91172  1.0000
  H   H1872     1.0  0.76546  0.41489  0.74632  1.0000
  N   N118      1.0  0.77342  0.38247  0.74795  1.0000
  H   H1873     1.0  0.67459  0.35740  0.91051  1.0000
  H   H1874     1.0  0.77280  0.33713  0.87749  1.0000
  H   H1875     1.0  0.68860  0.44401  0.92060  1.0000
  S   S476      1.0  0.79825  0.43626  0.75243  1.0000
  H   H1876     1.0  0.71722  0.34049  0.89159  1.0000
  C   C1185     1.0  0.73954  0.35787  0.82017  1.0000
  C   C1186     1.0  0.76042  0.35779  0.81424  1.0000
  C   C1187     1.0  0.76831  0.37617  0.80891  1.0000
  C   C1188     1.0  0.75528  0.39472  0.80897  1.0000
  C   C1189     1.0  0.73447  0.39474  0.81529  1.0000
  C   C1190     1.0  0.72661  0.37638  0.82098  1.0000
  H   H1877     1.0  0.77051  0.34348  0.81378  1.0000
  H   H1878     1.0  0.78444  0.37599  0.80469  1.0000
  H   H1879     1.0  0.72431  0.40904  0.81549  1.0000
  H   H1880     1.0  0.71050  0.37660  0.82553  1.0000
  C   C1191     1.0  0.68599  0.33196  0.93091  1.0000
  C   C1192     1.0  0.67899  0.35249  0.92489  1.0000
  C   C1193     1.0  0.67755  0.36672  0.93757  1.0000
  C   C1194     1.0  0.68322  0.36058  0.95629  1.0000
  H   H1881     1.0  0.74854  0.38995  0.77076  1.0000
  C   C1195     1.0  0.69161  0.32579  0.94968  1.0000
  C   C1196     1.0  0.66504  0.19945  0.83329  1.0000
  H   H1882     1.0  0.67918  0.41459  0.90985  1.0000
  C   C1197     1.0  0.67345  0.45261  0.91825  1.0000
  H   H1883     1.0  0.69701  0.30992  0.95446  1.0000
  H   H1884     1.0  0.78474  0.39275  0.77028  1.0000
  C   C1198     1.0  0.74832  0.31673  0.90632  1.0000
  H   H1885     1.0  0.68149  0.19505  0.82813  1.0000
  H   H1886     1.0  0.67496  0.46103  0.90290  1.0000
  H   H1887     1.0  0.67240  0.17691  0.80400  1.0000
  C   C1199     1.0  0.73835  0.30636  0.87888  1.0000
  Fe  Fe237     1.0  0.82795  0.41549  0.74809  1.0000
  C   C1200     1.0  0.88128  0.47282  0.79585  1.0000
  H   H1888     1.0  0.86918  0.38471  0.73434  1.0000
  S   S477      1.0  0.84577  0.43865  0.75269  1.0000
  C   C1201     1.0  0.73235  0.34182  0.88249  1.0000
  H   H1889     1.0  0.74199  0.37958  0.75141  1.0000
  C   C1202     1.0  0.69023  0.34005  0.96236  1.0000
  C   C1203     1.0  0.87345  0.45580  0.79367  1.0000
  C   C1204     1.0  0.87139  0.43986  0.80939  1.0000
  C   C1205     1.0  0.87730  0.44102  0.82727  1.0000
  C   C1206     1.0  0.88461  0.45838  0.82963  1.0000
  H   H1890     1.0  0.80389  0.38270  0.75175  1.0000
  H   H1891     1.0  0.86907  0.45497  0.77981  1.0000
  H   H1892     1.0  0.87577  0.42866  0.83945  1.0000
  S   S478      1.0  0.68089  0.37898  0.97175  1.0000
  N   N119      1.0  0.74636  0.32247  0.88523  1.0000
  H   H1893     1.0  0.88865  0.45944  0.84359  1.0000
  H   H1894     1.0  0.69459  0.33516  0.97680  1.0000
  H   H1895     1.0  0.73645  0.31025  0.86309  1.0000
  H   H1896     1.0  0.75875  0.30216  0.90902  1.0000
  H   H1897     1.0  0.73801  0.35439  0.88692  1.0000
  H   H1898     1.0  0.72331  0.30400  0.88765  1.0000
  H   H1899     1.0  0.83464  0.46452  0.81621  1.0000
  H   H1900     1.0  0.79056  0.36575  0.77023  1.0000
  H   H1901     1.0  0.66530  0.43152  0.89228  1.0000
  C   C1207     1.0  0.66425  0.42395  0.90792  1.0000
  C   C1208     1.0  0.88643  0.47439  0.81392  1.0000
  H   H1902     1.0  0.75544  0.36331  0.76968  1.0000
  C   C1209     1.0  0.78016  0.36737  0.73434  1.0000
  S   S479      1.0  0.66832  0.33965  0.83085  1.0000
  H   H1903     1.0  0.81356  0.46233  0.83562  1.0000
  H   H1904     1.0  0.67184  0.38249  0.93291  1.0000
  C   C1210     1.0  0.82644  0.47085  0.82963  1.0000
  H   H1905     1.0  0.78245  0.35162  0.74258  1.0000
  H   H1906     1.0  0.66305  0.21403  0.83917  1.0000
  H   H1907     1.0  0.66925  0.46411  0.92844  1.0000
  H   H1908     1.0  0.65843  0.23227  0.80611  1.0000
  C   C1211     1.0  0.66006  0.21738  0.80095  1.0000
  H   H1909     1.0  0.66021  0.18766  0.84581  1.0000
  H   H1910     1.0  0.88299  0.48500  0.78357  1.0000
  H   H1911     1.0  0.78539  0.40676  0.72729  1.0000
  S   S480      1.0  0.93431  0.52278  0.01948  1.0000
  Fe  Fe238     1.0  0.92150  0.58144  0.00849  1.0000
  S   S481      1.0  0.92220  0.56445  0.03886  1.0000
  S   S482      1.0  0.91299  0.61531  0.00597  1.0000
  Fe  Fe239     1.0  0.95049  0.54607  0.02599  1.0000
  H   H1912     1.0  0.69760  0.72222  0.99271  1.0000
  Fe  Fe240     1.0  0.90585  0.54314  0.02944  1.0000
  S   S483      1.0  0.87803  0.53539  0.05030  1.0000
  S   S484      1.0  0.90339  0.56130  0.99950  1.0000
  Fe  Fe241     1.0  0.85809  0.62663  0.11107  1.0000
  S   S485      1.0  0.83298  0.61149  0.10691  1.0000
  S   S486      1.0  0.87824  0.64508  0.08827  1.0000
  Fe  Fe242     1.0  0.85066  0.61629  0.15578  1.0000
  S   S487      1.0  0.82466  0.59992  0.15603  1.0000
  S   S488      1.0  0.86441  0.61705  0.18269  1.0000
  Fe  Fe243     1.0  0.84395  0.58644  0.13036  1.0000
  S   S489      1.0  0.85277  0.55347  0.12622  1.0000
  Fe  Fe244     1.0  0.81530  0.62600  0.13269  1.0000
  S   S490      1.0  0.78324  0.64285  0.13433  1.0000
  S   S491      1.0  0.87073  0.60054  0.13205  1.0000
  S   S492      1.0  0.83960  0.64341  0.13485  1.0000
  H   H1913     1.0  0.65937  0.94287  0.11632  1.0000
  H   H1914     1.0  0.81181  0.68363  0.03784  1.0000
  H   H1915     1.0  0.84904  0.51687  0.00443  1.0000
  S   S493      1.0  0.90241  0.69123  0.19620  1.0000
  C   C1212     1.0  0.90136  0.63618  0.13250  1.0000
  H   H1916     1.0  0.84366  0.64310  0.06703  1.0000
  H   H1917     1.0  0.97679  0.52283  0.99988  1.0000
  C   C1213     1.0  0.66071  0.89942  0.21149  1.0000
  H   H1918     1.0  0.92156  0.64631  0.09615  1.0000
  H   H1919     1.0  0.83768  0.69235  0.20489  1.0000
  Fe  Fe245     1.0  0.71180  0.69137  0.05882  1.0000
  S   S494      1.0  0.70043  0.71921  0.03835  1.0000
  S   S495      1.0  0.74419  0.67520  0.05687  1.0000
  H   H1920     1.0  0.93488  0.66416  0.10241  1.0000
  H   H1921     1.0  0.84898  0.68187  0.03738  1.0000
  Fe  Fe246     1.0  0.67747  0.70128  0.03419  1.0000
  S   S496      1.0  0.69131  0.70074  0.08595  1.0000
  S   S497      1.0  0.69082  0.67275  0.05206  1.0000
  H   H1922     1.0  0.89541  0.55957  0.07363  1.0000
  S   S498      1.0  0.95167  0.56496  0.99606  1.0000
  H   H1923     1.0  0.92384  0.55895  0.10236  1.0000
  C   C1214     1.0  0.85144  0.50000  0.00835  1.0000
  H   H1924     1.0  0.82051  0.69059  0.08702  1.0000
  H   H1925     1.0  0.80674  0.70092  0.05547  1.0000
  H   H1926     1.0  0.83475  0.71862  0.20795  1.0000
  H   H1927     1.0  0.90436  0.64909  0.21586  1.0000
  C   C1215     1.0  0.88640  0.49772  0.99268  1.0000
  C   C1216     1.0  0.87487  0.63786  0.18612  1.0000
  C   C1217     1.0  0.87176  0.65688  0.17433  1.0000
  C   C1218     1.0  0.88035  0.67307  0.17756  1.0000
  C   C1219     1.0  0.89218  0.67037  0.19251  1.0000
  S   S499      1.0  0.66505  0.69804  0.00743  1.0000
  C   C1220     1.0  0.88657  0.63523  0.20115  1.0000
  H   H1928     1.0  0.86254  0.65915  0.16289  1.0000
  H   H1929     1.0  0.87775  0.68779  0.16849  1.0000
  H   H1930     1.0  0.88759  0.56504  0.09825  1.0000
  C   C1221     1.0  0.83072  0.65195  0.06002  1.0000
  C   C1222     1.0  0.77221  0.65122  0.11284  1.0000
  C   C1223     1.0  0.78018  0.64314  0.09547  1.0000
  C   C1224     1.0  0.77133  0.65050  0.07843  1.0000
  C   C1225     1.0  0.75442  0.66589  0.07868  1.0000
  C   C1226     1.0  0.74618  0.67364  0.09616  1.0000
  C   C1227     1.0  0.75503  0.66627  0.11321  1.0000
  H   H1931     1.0  0.79304  0.63112  0.09525  1.0000
  H   H1932     1.0  0.77756  0.64422  0.06500  1.0000
  H   H1933     1.0  0.73326  0.68561  0.09647  1.0000
  H   H1934     1.0  0.74877  0.67254  0.12664  1.0000
  C   C1228     1.0  0.83553  0.53638  0.12873  1.0000
  C   C1229     1.0  0.81654  0.53898  0.14059  1.0000
  C   C1230     1.0  0.80397  0.52402  0.14353  1.0000
  C   C1231     1.0  0.81023  0.50659  0.13442  1.0000
  C   C1232     1.0  0.82899  0.50428  0.12219  1.0000
  C   C1233     1.0  0.84166  0.51902  0.11951  1.0000
  H   H1935     1.0  0.81174  0.55225  0.14785  1.0000
  H   H1936     1.0  0.78943  0.52590  0.15299  1.0000
  C   C1234     1.0  0.70334  0.64734  0.11128  1.0000
  H   H1937     1.0  0.85618  0.51703  0.11005  1.0000
  C   C1235     1.0  0.80960  0.68456  0.05386  1.0000
  C   C1236     1.0  0.85491  0.50605  0.06679  1.0000
  C   C1237     1.0  0.89527  0.65137  0.20430  1.0000
  H   H1938     1.0  0.68369  0.92699  0.11604  1.0000
  H   H1939     1.0  0.70941  0.65466  0.98591  1.0000
  C   C1238     1.0  0.82331  0.67459  0.08425  1.0000
  H   H1940     1.0  0.71417  0.65259  0.11853  1.0000
  C   C1239     1.0  0.91934  0.65988  0.14110  1.0000
  C   C1240     1.0  0.71117  0.61305  0.12798  1.0000
  H   H1941     1.0  0.98069  0.57409  0.01725  1.0000
  C   C1241     1.0  0.90271  0.62318  0.02894  1.0000
  C   C1242     1.0  0.89148  0.61103  0.04396  1.0000
  C   C1243     1.0  0.88390  0.61750  0.06235  1.0000
  C   C1244     1.0  0.88754  0.63614  0.06568  1.0000
  C   C1245     1.0  0.89845  0.64836  0.05059  1.0000
  C   C1246     1.0  0.90586  0.64198  0.03225  1.0000
  H   H1942     1.0  0.88835  0.59681  0.04129  1.0000
  H   H1943     1.0  0.87526  0.60808  0.07387  1.0000
  H   H1944     1.0  0.90125  0.66282  0.05303  1.0000
  H   H1945     1.0  0.91441  0.65146  0.02069  1.0000
  C   C1247     1.0  0.98936  0.50981  0.00051  1.0000
  H   H1946     1.0  0.69243  0.62928  0.08506  1.0000
  H   H1947     1.0  0.84325  0.69908  0.05516  1.0000
  H   H1948     1.0  0.73451  0.60759  0.09287  1.0000
  H   H1949     1.0  0.79554  0.67829  0.06090  1.0000
  H   H1950     1.0  0.91663  0.52625  0.06789  1.0000
  S   S500      1.0  0.79483  0.48743  0.13935  1.0000
  H   H1951     1.0  0.83635  0.66644  0.09150  1.0000
  N   N120      1.0  0.65976  0.91533  0.13739  1.0000
  H   H1952     1.0  0.67813  0.87484  0.19695  1.0000
  H   H1953     1.0  0.89235  0.49298  0.00682  1.0000
  H   H1954     1.0  0.72257  0.61745  0.13522  1.0000
  H   H1955     1.0  0.84135  0.48594  0.18939  1.0000
  H   H1956     1.0  0.74130  0.62775  0.10239  1.0000
  C   C1248     1.0  0.92113  0.65670  0.10690  1.0000
  H   H1957     1.0  0.90132  0.62556  0.12216  1.0000
  H   H1958     1.0  0.68810  0.64984  0.12046  1.0000
  H   H1959     1.0  0.88823  0.52136  0.11885  1.0000
  C   C1249     1.0  0.93775  0.62957  0.12874  1.0000
  H   H1960     1.0  0.93324  0.66709  0.13785  1.0000
  H   H1961     1.0  0.85578  0.49635  0.02331  1.0000
  H   H1962     1.0  0.91803  0.65202  0.15668  1.0000
  H   H1963     1.0  0.89831  0.54073  0.12623  1.0000
  H   H1964     1.0  0.98363  0.49638  0.99788  1.0000
  H   H1965     1.0  0.65880  0.64966  0.06024  1.0000
  H   H1966     1.0  0.66428  0.90187  0.05532  1.0000
  C   C1250     1.0  0.84534  0.68279  0.05344  1.0000
  H   H1967     1.0  0.83424  0.65043  0.04410  1.0000
  H   H1968     1.0  0.85886  0.67494  0.06006  1.0000
  N   N121      1.0  0.90809  0.53696  0.09584  1.0000
  H   H1969     1.0  0.83381  0.49112  0.11481  1.0000
  C   C1251     1.0  0.91219  0.52043  0.08380  1.0000
  C   C1252     1.0  0.90204  0.52856  0.11678  1.0000
  C   C1253     1.0  0.92654  0.54623  0.09369  1.0000
  H   H1970     1.0  0.68684  0.89319  0.13739  1.0000
  H   H1971     1.0  0.69644  0.61457  0.13815  1.0000
  H   H1972     1.0  0.93175  0.55245  0.07804  1.0000
  H   H1973     1.0  0.90114  0.49789  0.03839  1.0000
  H   H1974     1.0  0.66486  0.88487  0.15303  1.0000
  C   C1254     1.0  0.88685  0.49474  0.04706  1.0000
  H   H1975     1.0  0.95207  0.63611  0.12491  1.0000
  H   H1976     1.0  0.87755  0.54593  0.09010  1.0000
  H   H1977     1.0  0.67934  0.62073  0.10905  1.0000
  H   H1978     1.0  0.81726  0.64449  0.06663  1.0000
  H   H1979     1.0  0.80984  0.66755  0.09193  1.0000
  C   C1255     1.0  0.89153  0.55257  0.08919  1.0000
  Fe  Fe247     1.0  0.67811  0.72727  0.06521  1.0000
  H   H1980     1.0  0.72899  0.63350  0.08107  1.0000
  H   H1981     1.0  0.70251  0.65738  0.09685  1.0000
  Fe  Fe248     1.0  0.93361  0.54290  0.99017  1.0000
  N   N122      1.0  0.91991  0.64561  0.12732  1.0000
  N   N123      1.0  0.82722  0.67347  0.06289  1.0000
  N   N124      1.0  0.70960  0.62583  0.10859  1.0000
  C   C1256     1.0  0.67020  0.89407  0.13874  1.0000
  Fe  Fe249     1.0  0.91527  0.69153  0.22387  1.0000
  S   S501      1.0  0.97648  0.53534  0.04268  1.0000
  H   H1982     1.0  0.71581  0.59669  0.12651  1.0000
  C   C1257     1.0  0.69442  0.61949  0.09946  1.0000
  H   H1983     1.0  0.68602  0.66946  0.98029  1.0000
  H   H1984     1.0  0.88900  0.62056  0.21036  1.0000
  H   H1985     1.0  0.93719  0.62086  0.14397  1.0000
  H   H1986     1.0  0.90619  0.67229  0.14024  1.0000
  H   H1987     1.0  0.84436  0.51804  0.07317  1.0000
  H   H1988     1.0  0.92462  0.50838  0.08834  1.0000
  C   C1258     1.0  0.67340  0.71131  0.98407  1.0000
  C   C1259     1.0  0.87315  0.51032  0.05506  1.0000
  H   H1989     1.0  0.89850  0.51321  0.08505  1.0000
  C   C1260     1.0  0.72946  0.62353  0.09564  1.0000
  H   H1990     1.0  0.90768  0.66865  0.10526  1.0000
  H   H1991     1.0  0.88754  0.64778  0.13164  1.0000
  H   H1992     1.0  0.93859  0.61851  0.11854  1.0000
  C   C1261     1.0  0.66714  0.92683  0.11803  1.0000
  H   H1993     1.0  0.89985  0.62746  0.14775  1.0000
  H   H1994     1.0  0.69876  0.60347  0.09677  1.0000
  C   C1262     1.0  0.66335  0.88380  0.20006  1.0000
  H   H1995     1.0  0.91419  0.51690  0.12246  1.0000
  C   C1263     1.0  0.69015  0.72141  0.98061  1.0000
  Fe  Fe250     1.0  0.66955  0.68388  0.07754  1.0000
  S   S502      1.0  0.67087  0.76061  0.06870  1.0000
  H   H1996     1.0  0.85947  0.70415  0.20332  1.0000
  H   H1997     1.0  0.93929  0.53489  0.09872  1.0000
  C   C1264     1.0  0.84380  0.70333  0.21130  1.0000
  H   H1998     1.0  0.83668  0.49473  0.00960  1.0000
  H   H1999     1.0  0.89825  0.49175  0.98091  1.0000
  H   H2000     1.0  0.66434  0.91994  0.10568  1.0000
  H   H2001     1.0  0.65997  0.80122  0.07691  1.0000
  H   H2002     1.0  0.68036  0.92420  0.15283  1.0000
  S   S503      1.0  0.68188  0.90432  0.22018  1.0000
  N   N125      1.0  0.86709  0.49032  0.99372  1.0000
  H   H2003     1.0  0.93658  0.78559  0.21846  1.0000
  H   H2004     1.0  0.88453  0.51461  0.98948  1.0000
  C   C1265     1.0  0.66386  0.92472  0.15339  1.0000
  H   H2005     1.0  0.82315  0.48785  0.17339  1.0000
  H   H2006     1.0  0.66741  0.88653  0.12687  1.0000
  C   C1266     1.0  0.85000  0.48639  0.06996  1.0000
  H   H2007     1.0  0.93834  0.75857  0.22593  1.0000
  Fe  Fe251     1.0  0.90147  0.96035  0.42294  1.0000
  S   S504      1.0  0.92871  0.93657  0.41714  1.0000
  H   H2008     1.0  0.93643  0.74395  0.26127  1.0000
  Fe  Fe252     1.0  0.88067  0.93262  0.45667  1.0000
  S   S505      1.0  0.90624  0.90674  0.45407  1.0000
  H   H2009     1.0  0.81869  0.90518  0.29174  1.0000
  Fe  Fe253     1.0  0.92637  0.93037  0.45004  1.0000
  Fe  Fe254     1.0  0.90602  0.91523  0.42150  1.0000
  S   S506      1.0  0.90836  0.88886  0.40524  1.0000
  S   S507      1.0  0.90065  0.95559  0.45562  1.0000
  S   S508      1.0  0.87897  0.93960  0.42436  1.0000
  N   N126      1.0  0.84354  0.69707  0.23275  1.0000
  C   C1267     1.0  0.93687  0.79479  0.25416  1.0000
  H   H2010     1.0  0.98280  0.57614  0.46474  1.0000
  S   S509      1.0  0.70996  0.93508  0.24497  1.0000
  C   C1268     1.0  0.85073  0.75851  0.36091  1.0000
  H   H2011     1.0  0.71777  0.86549  0.29080  1.0000
  H   H2012     1.0  0.68419  0.86118  0.24630  1.0000
  C   C1269     1.0  0.94566  0.55902  0.33093  1.0000
  H   H2013     1.0  0.93124  0.80823  0.24373  1.0000
  H   H2014     1.0  0.97962  0.53618  0.31522  1.0000
  H   H2015     1.0  0.85762  0.81005  0.42895  1.0000
  C   C1270     1.0  0.81196  0.90126  0.30748  1.0000
  H   H2016     1.0  0.94911  0.96633  0.43319  1.0000
  H   H2017     1.0  0.96068  0.52027  0.32598  1.0000
  H   H2018     1.0  0.93288  0.76027  0.27958  1.0000
  C   C1271     1.0  0.97131  0.52927  0.32943  1.0000
  H   H2019     1.0  0.67410  0.85437  0.27198  1.0000
  C   C1272     1.0  0.95013  0.53478  0.36042  1.0000
  H   H2020     1.0  0.84431  0.73241  0.39475  1.0000
  Fe  Fe255     1.0  0.93039  0.67134  0.26207  1.0000
  S   S510      1.0  0.93247  0.70072  0.27161  1.0000
  S   S511      1.0  0.94026  0.64032  0.27838  1.0000
  Fe  Fe256     1.0  0.90278  0.71199  0.26079  1.0000
  S   S512      1.0  0.87482  0.73261  0.27254  1.0000
  S   S513      1.0  0.89928  0.68168  0.25433  1.0000
  Fe  Fe257     1.0  0.81195  0.84504  0.32342  1.0000
  S   S514      1.0  0.81880  0.81346  0.34023  1.0000
  S   S515      1.0  0.79453  0.85335  0.29774  1.0000
  Fe  Fe258     1.0  0.83819  0.86271  0.34447  1.0000
  S   S516      1.0  0.84765  0.83283  0.36251  1.0000
  S   S517      1.0  0.84555  0.89287  0.34785  1.0000
  Fe  Fe259     1.0  0.85084  0.81945  0.33474  1.0000
  S   S518      1.0  0.87812  0.79537  0.32835  1.0000
  Fe  Fe260     1.0  0.81515  0.82905  0.36678  1.0000
  S   S519      1.0  0.79804  0.81834  0.39686  1.0000
  S   S520      1.0  0.84445  0.84996  0.31609  1.0000
  S   S521      1.0  0.80523  0.85998  0.35046  1.0000
  Fe  Fe261     1.0  0.69666  0.93034  0.27713  1.0000
  H   H2021     1.0  0.81828  0.76309  0.38919  1.0000
  S   S522      1.0  0.71147  0.91395  0.30325  1.0000
  Fe  Fe262     1.0  0.69387  0.96730  0.24477  1.0000
  C   C1273     1.0  0.84128  0.81224  0.43105  1.0000
  H   H2022     1.0  0.82463  0.89494  0.31586  1.0000
  S   S523      1.0  0.68308  0.96310  0.27725  1.0000
  H   H2023     1.0  0.69549  0.88341  0.28718  1.0000
  C   C1274     1.0  0.77178  0.87070  0.29939  1.0000
  C   C1275     1.0  0.76086  0.87479  0.31765  1.0000
  C   C1276     1.0  0.74250  0.88829  0.31856  1.0000
  C   C1277     1.0  0.73506  0.89797  0.30125  1.0000
  C   C1278     1.0  0.74621  0.89430  0.28295  1.0000
  C   C1279     1.0  0.76442  0.88052  0.28205  1.0000
  H   H2024     1.0  0.76629  0.86715  0.33110  1.0000
  H   H2025     1.0  0.73389  0.89104  0.33277  1.0000
  H   H2026     1.0  0.74075  0.90199  0.26955  1.0000
  H   H2027     1.0  0.77293  0.87753  0.26787  1.0000
  N   N127      1.0  0.85052  0.76223  0.38113  1.0000
  H   H2028     1.0  0.82614  0.78730  0.37973  1.0000
  C   C1280     1.0  0.83149  0.81411  0.41478  1.0000
  C   C1281     1.0  0.81041  0.81669  0.41724  1.0000
  C   C1282     1.0  0.79917  0.81724  0.43625  1.0000
  C   C1283     1.0  0.80898  0.81567  0.45259  1.0000
  H   H2029     1.0  0.84036  0.81308  0.40044  1.0000
  H   H2030     1.0  0.78284  0.81904  0.43831  1.0000
  C   C1284     1.0  0.83009  0.81316  0.44997  1.0000
  C   C1285     1.0  0.87596  0.74965  0.28836  1.0000
  C   C1286     1.0  0.89288  0.74818  0.29740  1.0000
  C   C1287     1.0  0.89341  0.76234  0.30961  1.0000
  C   C1288     1.0  0.87705  0.77799  0.31284  1.0000
  C   C1289     1.0  0.86011  0.77934  0.30390  1.0000
  C   C1290     1.0  0.85956  0.76519  0.29174  1.0000
  H   H2031     1.0  0.90545  0.73607  0.29511  1.0000
  H   H2032     1.0  0.90649  0.76113  0.31666  1.0000
  H   H2033     1.0  0.84744  0.79136  0.30627  1.0000
  H   H2034     1.0  0.84642  0.76639  0.28480  1.0000
  H   H2035     1.0  0.97012  0.71629  0.27341  1.0000
  H   H2036     1.0  0.82179  0.69240  0.25914  1.0000
  H   H2037     1.0  0.72971  0.83880  0.26978  1.0000
  C   C1291     1.0  0.93800  0.65761  0.31135  1.0000
  C   C1292     1.0  0.94587  0.64088  0.30165  1.0000
  C   C1293     1.0  0.95896  0.62471  0.31029  1.0000
  C   C1294     1.0  0.96486  0.62568  0.32819  1.0000
  C   C1295     1.0  0.94176  0.77271  0.22965  1.0000
  H   H2038     1.0  0.92735  0.66979  0.30510  1.0000
  H   H2039     1.0  0.96489  0.61167  0.30288  1.0000
  H   H2040     1.0  0.90363  0.78968  0.24064  1.0000
  H   H2041     1.0  0.87376  0.89424  0.43632  1.0000
  H   H2042     1.0  0.83991  0.74818  0.36066  1.0000
  C   C1296     1.0  0.98988  0.93705  0.46242  1.0000
  C   C1297     1.0  0.86544  0.85811  0.43259  1.0000
  C   C1298     1.0  0.97597  0.93024  0.45383  1.0000
  H   H2043     1.0  0.97517  0.61334  0.33460  1.0000
  N   N128      1.0  0.70409  0.86224  0.26646  1.0000
  H   H2044     1.0  0.70560  0.83018  0.27683  1.0000
  H   H2045     1.0  0.85934  0.86237  0.41846  1.0000
  H   H2046     1.0  0.88117  0.76834  0.37485  1.0000
  H   H2047     1.0  0.86401  0.84190  0.43827  1.0000
  N   N129      1.0  0.96061  0.54484  0.34165  1.0000
  C   C1299     1.0  0.89079  0.89032  0.38934  1.0000
  C   C1300     1.0  0.87813  0.90848  0.38401  1.0000
  C   C1301     1.0  0.86429  0.90914  0.37128  1.0000
  C   C1302     1.0  0.86289  0.89162  0.36397  1.0000
  C   C1303     1.0  0.87552  0.87346  0.36936  1.0000
  C   C1304     1.0  0.88947  0.87284  0.38194  1.0000
  H   H2048     1.0  0.87929  0.92213  0.38931  1.0000
  H   H2049     1.0  0.85472  0.92329  0.36703  1.0000
  H   H2050     1.0  0.87496  0.86001  0.36344  1.0000
  H   H2051     1.0  0.89935  0.85880  0.38585  1.0000
  S   S524      1.0  0.66802  0.92126  0.27258  1.0000
  C   C1305     1.0  0.85550  0.74270  0.39398  1.0000
  H   H2052     1.0  0.84644  0.77294  0.35102  1.0000
  H   H2053     1.0  0.87946  0.86601  0.46340  1.0000
  H   H2054     1.0  0.90203  0.78052  0.26655  1.0000
  H   H2055     1.0  0.80306  0.88885  0.30848  1.0000
  H   H2056     1.0  0.86571  0.77886  0.39566  1.0000
  H   H2057     1.0  0.85337  0.70700  0.25639  1.0000
  H   H2058     1.0  0.82933  0.77534  0.40423  1.0000
  Fe  Fe263     1.0  0.94652  0.70889  0.24007  1.0000
  H   H2059     1.0  0.98362  0.56403  0.33203  1.0000
  H   H2060     1.0  0.93777  0.67155  0.33671  1.0000
  H   H2061     1.0  0.70895  0.89216  0.25215  1.0000
  C   C1306     1.0  0.95742  0.64268  0.33762  1.0000
  H   H2062     1.0  0.95349  0.79416  0.25294  1.0000
  H   H2063     1.0  0.86245  0.79018  0.37095  1.0000
  H   H2064     1.0  0.85166  0.89798  0.42505  1.0000
  H   H2065     1.0  0.97120  0.91898  0.42852  1.0000
  H   H2066     1.0  0.95855  0.77104  0.22791  1.0000
  H   H2067     1.0  0.84962  0.90312  0.44980  1.0000
  S   S525      1.0  0.66556  0.96059  0.23697  1.0000
  H   H2068     1.0  0.86605  0.75167  0.35418  1.0000
  C   C1307     1.0  0.90989  0.77729  0.25171  1.0000
  C   C1308     1.0  0.83021  0.77236  0.38892  1.0000
  C   C1309     1.0  0.86563  0.77543  0.38071  1.0000
  C   C1310     1.0  0.93978  0.75848  0.26411  1.0000
  H   H2069     1.0  0.90560  0.76286  0.24956  1.0000
  N   N130      1.0  0.79925  0.91906  0.31534  1.0000
  C   C1311     1.0  0.79006  0.91282  0.33601  1.0000
  C   C1312     1.0  0.78309  0.92734  0.30331  1.0000
  C   C1313     1.0  0.81196  0.93473  0.31459  1.0000
  H   H2070     1.0  0.80187  0.90638  0.34547  1.0000
  H   H2071     1.0  0.78035  0.90100  0.33714  1.0000
  H   H2072     1.0  0.78045  0.92589  0.34247  1.0000
  H   H2073     1.0  0.78946  0.93227  0.28762  1.0000
  H   H2074     1.0  0.77341  0.91575  0.30348  1.0000
  H   H2075     1.0  0.77303  0.94067  0.30892  1.0000
  H   H2076     1.0  0.82423  0.92884  0.32365  1.0000
  H   H2077     1.0  0.80291  0.94843  0.32038  1.0000
  H   H2078     1.0  0.81934  0.93964  0.29924  1.0000
  C   C1314     1.0  0.94373  0.65847  0.32935  1.0000
  Fe  Fe264     1.0  0.68031  0.92784  0.24020  1.0000
  H   H2079     1.0  0.93736  0.57103  0.33971  1.0000
  H   H2080     1.0  0.73170  0.87447  0.25498  1.0000
  C   C1315     1.0  0.83294  0.86987  0.45098  1.0000
  C   C1316     1.0  0.71420  0.84102  0.26604  1.0000
  H   H2081     1.0  0.92981  0.79753  0.26938  1.0000
  H   H2082     1.0  0.96789  0.56806  0.35519  1.0000
  S   S526      1.0  0.95161  0.92882  0.46716  1.0000
  H   H2083     1.0  0.86137  0.84874  0.47200  1.0000
  C   C1317     1.0  0.98188  0.92431  0.43520  1.0000
  H   H2084     1.0  0.82442  0.87983  0.46177  1.0000
  H   H2085     1.0  0.85553  0.74505  0.40933  1.0000
  H   H2086     1.0  0.87072  0.73463  0.38846  1.0000
  H   H2087     1.0  0.98687  0.54601  0.35382  1.0000
  H   H2088     1.0  0.93893  0.52592  0.35784  1.0000
  H   H2089     1.0  0.95650  0.75681  0.26299  1.0000
  N   N131      1.0  0.85473  0.87136  0.44714  1.0000
  H   H2090     1.0  0.82624  0.87434  0.43719  1.0000
  C   C1318     1.0  0.85750  0.89262  0.43925  1.0000
  H   H2091     1.0  0.88188  0.85923  0.42907  1.0000
  H   H2092     1.0  0.71563  0.83673  0.25115  1.0000
  H   H2093     1.0  0.85493  0.67095  0.25253  1.0000
  H   H2094     1.0  0.83030  0.85407  0.45719  1.0000
  C   C1319     1.0  0.68360  0.86457  0.26142  1.0000
  H   H2095     1.0  0.98262  0.51827  0.33714  1.0000
  H   H2096     1.0  0.80023  0.81631  0.46718  1.0000
  S   S527      1.0  0.96584  0.64515  0.35909  1.0000
  H   H2097     1.0  0.96099  0.52391  0.36882  1.0000
  S   S528      1.0  0.84338  0.81153  0.46959  1.0000
  H   H2098     1.0  0.71694  0.87310  0.23660  1.0000
  C   C1320     1.0  0.71602  0.87604  0.25193  1.0000
  H   H2099     1.0  0.94198  0.54600  0.37013  1.0000
  C   C1321     1.0  0.70259  0.86734  0.28641  1.0000
  C   C1322     1.0  0.86308  0.86481  0.46572  1.0000
  N   N132      1.0  0.93206  0.77583  0.24990  1.0000
  H   H2100     1.0  0.98951  0.49380  0.38266  1.0000
  H   H2101     1.0  0.69336  0.85754  0.29777  1.0000
  H   H2102     1.0  0.95308  0.56685  0.31667  1.0000
  H   H2103     1.0  0.81322  0.71233  0.24041  1.0000
  H   H2104     1.0  0.67558  0.88043  0.26154  1.0000
  H   H2105     1.0  0.93426  0.55091  0.32755  1.0000
  C   C1323     1.0  0.97536  0.55628  0.34583  1.0000
  C   C1324     1.0  0.99132  0.72257  0.24681  1.0000
  S   S529      1.0  0.94635  0.67884  0.23101  1.0000
  H   H2106     1.0  0.98446  0.51951  0.40485  1.0000
  C   C1325     1.0  0.94333  0.98291  0.43029  1.0000
  H   H2107     1.0  0.95568  0.97135  0.46545  1.0000
  H   H2108     1.0  0.87126  0.67619  0.22960  1.0000
  H   H2109     1.0  0.84430  0.72720  0.23818  1.0000
  H   H2110     1.0  0.92678  0.98495  0.43559  1.0000
  C   C1326     1.0  0.82246  0.69699  0.24291  1.0000
  H   H2111     1.0  0.81509  0.68617  0.23757  1.0000
  C   C1327     1.0  0.85516  0.67643  0.23648  1.0000
  H   H2112     1.0  0.98192  0.66018  0.30061  1.0000
  H   H2113     1.0  0.98197  0.97510  0.43549  1.0000
  C   C1328     1.0  0.98548  0.71848  0.26727  1.0000
  S   S530      1.0  0.97372  0.72517  0.23063  1.0000
  H   H2114     1.0  0.98998  0.57516  0.43876  1.0000
  H   H2115     1.0  0.84920  0.66519  0.23025  1.0000
  C   C1329     1.0  0.85282  0.71150  0.24032  1.0000
  H   H2116     1.0  0.86865  0.71221  0.23269  1.0000
  H   H2117     1.0  0.85524  0.87435  0.47708  1.0000
  H   H2118     1.0  0.98528  0.94188  0.47674  1.0000
  S   S531      1.0  0.91697  0.72256  0.22988  1.0000
  Fe  Fe265     1.0  0.71274  0.92001  0.61008  1.0000
  S   S532      1.0  0.70525  0.94247  0.63147  1.0000
  S   S533      1.0  0.73885  0.89427  0.61207  1.0000
  Fe  Fe266     1.0  0.67835  0.93985  0.58827  1.0000
  S   S534      1.0  0.66800  0.96406  0.60731  1.0000
  H   H2119     1.0  0.88700  0.90695  0.49422  1.0000
  Fe  Fe267     1.0  0.70084  0.96590  0.60459  1.0000
  S   S535      1.0  0.98947  0.71483  0.61395  1.0000
  Fe  Fe268     1.0  0.67299  0.93860  0.63229  1.0000
  H   H2120     1.0  0.85368  0.70780  0.70580  1.0000
  S   S536      1.0  0.71092  0.94359  0.58314  1.0000
  S   S537      1.0  0.68089  0.91426  0.61326  1.0000
  Fe  Fe269     1.0  0.82631  0.78988  0.54318  1.0000
  S   S538      1.0  0.81646  0.81787  0.55756  1.0000
  S   S539      1.0  0.83407  0.75780  0.55860  1.0000
  Fe  Fe270     1.0  0.82842  0.81354  0.50111  1.0000
  S   S540      1.0  0.81849  0.84349  0.51187  1.0000
  H   H2121     1.0  0.72808  0.84263  0.60149  1.0000
  Fe  Fe271     1.0  0.83940  0.83145  0.53388  1.0000
  S   S541      1.0  0.86211  0.84916  0.53904  1.0000
  Fe  Fe272     1.0  0.79605  0.82775  0.53465  1.0000
  S   S542      1.0  0.76410  0.84457  0.54060  1.0000
  S   S543      1.0  0.85110  0.80269  0.52155  1.0000
  S   S544      1.0  0.80409  0.79845  0.52185  1.0000
  H   H2122     1.0  0.86161  0.57905  0.68357  1.0000
  H   H2123     1.0  0.84893  0.59306  0.72326  1.0000
  Fe  Fe273     1.0  0.93452  0.67942  0.60586  1.0000
  S   S545      1.0  0.93951  0.71193  0.59881  1.0000
  S   S546      1.0  0.93593  0.66024  0.58256  1.0000
  Fe  Fe274     1.0  0.92942  0.67835  0.64976  1.0000
  S   S547      1.0  0.93474  0.71066  0.64649  1.0000
  S   S548      1.0  0.92330  0.66043  0.68030  1.0000
  Fe  Fe275     1.0  0.91420  0.71697  0.62378  1.0000
  S   S549      1.0  0.89019  0.74484  0.62360  1.0000
  Fe  Fe276     1.0  0.95974  0.70272  0.62191  1.0000
  H   H2124     1.0  0.90613  0.76571  0.54271  1.0000
  S   S550      1.0  0.90712  0.68522  0.62881  1.0000
  S   S551      1.0  0.95647  0.66972  0.62720  1.0000
  C   C1330     1.0  0.77290  0.91888  0.57047  1.0000
  C   C1331     1.0  0.83999  0.88218  0.52002  1.0000
  H   H2125     1.0  0.80635  0.58297  0.70197  1.0000
  H   H2126     1.0  0.91584  0.79853  0.52563  1.0000
  C   C1332     1.0  0.86081  0.64192  0.70356  1.0000
  H   H2127     1.0  0.78753  0.93654  0.52199  1.0000
  C   C1333     1.0  0.89259  0.64917  0.70923  1.0000
  C   C1334     1.0  0.89932  0.65306  0.68886  1.0000
  C   C1335     1.0  0.88679  0.65122  0.67582  1.0000
  C   C1336     1.0  0.86756  0.64566  0.68316  1.0000
  H   H2128     1.0  0.76830  0.89875  0.54248  1.0000
  C   C1337     1.0  0.87335  0.64377  0.71656  1.0000
  H   H2129     1.0  0.89201  0.65381  0.66011  1.0000
  C   C1338     1.0  0.78419  0.89970  0.54346  1.0000
  H   H2130     1.0  0.98531  0.64236  0.52536  1.0000
  H   H2131     1.0  0.79319  0.89899  0.52849  1.0000
  C   C1339     1.0  0.90307  0.80619  0.53546  1.0000
  H   H2132     1.0  0.77341  0.93284  0.57649  1.0000
  C   C1340     1.0  0.80681  0.91871  0.55236  1.0000
  H   H2133     1.0  0.81670  0.91908  0.53770  1.0000
  H   H2134     1.0  0.75675  0.91860  0.56991  1.0000
  N   N133      1.0  0.78555  0.91841  0.55082  1.0000
  C   C1341     1.0  0.84890  0.75398  0.57733  1.0000
  C   C1342     1.0  0.84784  0.76900  0.58892  1.0000
  C   C1343     1.0  0.86001  0.76568  0.60367  1.0000
  C   C1344     1.0  0.87380  0.74769  0.60637  1.0000
  C   C1345     1.0  0.87472  0.73256  0.59495  1.0000
  C   C1346     1.0  0.86209  0.73562  0.58064  1.0000
  H   H2135     1.0  0.83748  0.78306  0.58666  1.0000
  H   H2136     1.0  0.85906  0.77729  0.61268  1.0000
  H   H2137     1.0  0.88530  0.71860  0.59696  1.0000
  H   H2138     1.0  0.86288  0.72392  0.57175  1.0000
  C   C1347     1.0  0.95788  0.66279  0.56510  1.0000
  C   C1348     1.0  0.74549  0.88037  0.59231  1.0000
  C   C1349     1.0  0.76291  0.86566  0.59157  1.0000
  C   C1350     1.0  0.76871  0.85453  0.57582  1.0000
  C   C1351     1.0  0.75700  0.85789  0.56082  1.0000
  C   C1352     1.0  0.73935  0.87235  0.56178  1.0000
  C   C1353     1.0  0.73370  0.88373  0.57738  1.0000
  H   H2139     1.0  0.77206  0.86298  0.60313  1.0000
  H   H2140     1.0  0.78220  0.84331  0.57534  1.0000
  H   H2141     1.0  0.73020  0.87498  0.55022  1.0000
  H   H2142     1.0  0.72022  0.89506  0.57782  1.0000
  C   C1354     1.0  0.77828  0.93637  0.53698  1.0000
  H   H2143     1.0  0.92131  0.80412  0.56684  1.0000
  H   H2144     1.0  0.76227  0.93658  0.53548  1.0000
  C   C1355     1.0  0.66214  0.89455  0.66616  1.0000
  H   H2145     1.0  0.80832  0.93232  0.55843  1.0000
  H   H2146     1.0  0.81302  0.90497  0.56214  1.0000
  H   H2147     1.0  0.91450  0.78010  0.57945  1.0000
  H   H2148     1.0  0.87972  0.77609  0.54634  1.0000
  C   C1356     1.0  0.96271  0.65139  0.54960  1.0000
  H   H2149     1.0  0.78991  0.88580  0.55332  1.0000
  H   H2150     1.0  0.99046  0.50329  0.53564  1.0000
  H   H2151     1.0  0.67621  0.89796  0.65715  1.0000
  H   H2152     1.0  0.77795  0.90556  0.58134  1.0000
  H   H2153     1.0  0.77904  0.95078  0.54210  1.0000
  H   H2154     1.0  0.85793  0.64426  0.67302  1.0000
  C   C1357     1.0  0.89393  0.77397  0.55262  1.0000
  H   H2155     1.0  0.87925  0.79608  0.58264  1.0000
  H   H2156     1.0  0.96795  0.68372  0.57941  1.0000
  H   H2157     1.0  0.86487  0.56953  0.71919  1.0000
  H   H2158     1.0  0.88458  0.81988  0.56837  1.0000
  C   C1358     1.0  0.85919  0.87287  0.52394  1.0000
  C   C1359     1.0  0.87611  0.88201  0.51491  1.0000
  C   C1360     1.0  0.87391  0.89992  0.50120  1.0000
  H   H2159     1.0  0.89096  0.87500  0.51808  1.0000
  N   N134      1.0  0.70494  0.84233  0.62720  1.0000
  C   C1361     1.0  0.69368  0.86218  0.61973  1.0000
  H   H2160     1.0  0.83583  0.73644  0.67223  1.0000
  H   H2161     1.0  0.68109  0.83571  0.65135  1.0000
  H   H2162     1.0  0.84306  0.70572  0.65603  1.0000
  C   C1362     1.0  0.84549  0.58542  0.68811  1.0000
  H   H2163     1.0  0.72985  0.85516  0.63194  1.0000
  C   C1363     1.0  0.66060  0.87461  0.67582  1.0000
  H   H2164     1.0  0.68352  0.86063  0.60958  1.0000
  H   H2165     1.0  0.68703  0.96710  0.54842  1.0000
  H   H2166     1.0  0.72587  0.81789  0.61540  1.0000
  C   C1364     1.0  0.69048  0.82898  0.63854  1.0000
  S   S552      1.0  0.83657  0.63534  0.71252  1.0000
  H   H2167     1.0  0.67992  0.82646  0.62922  1.0000
  H   H2168     1.0  0.70417  0.87274  0.61143  1.0000
  H   H2169     1.0  0.70996  0.85305  0.65270  1.0000
  H   H2170     1.0  0.83695  0.58424  0.67642  1.0000
  H   H2171     1.0  0.90674  0.82119  0.53675  1.0000
  C   C1365     1.0  0.85480  0.90866  0.49658  1.0000
  H   H2172     1.0  0.88961  0.80954  0.52791  1.0000
  C   C1366     1.0  0.83780  0.89999  0.50626  1.0000
  C   C1367     1.0  0.88187  0.80443  0.56738  1.0000
  H   H2173     1.0  0.98672  0.57088  0.59672  1.0000
  H   H2174     1.0  0.82686  0.87553  0.52753  1.0000
  N   N135      1.0  0.89899  0.79357  0.55501  1.0000
  N   N136      1.0  0.83701  0.57482  0.70754  1.0000
  C   C1368     1.0  0.71706  0.83288  0.61037  1.0000
  C   C1369     1.0  0.81572  0.58404  0.71302  1.0000
  H   H2175     1.0  0.95221  0.64213  0.54752  1.0000
  H   H2176     1.0  0.93035  0.78148  0.55574  1.0000
  H   H2177     1.0  0.70733  0.83048  0.60017  1.0000
  H   H2178     1.0  0.96325  0.58978  0.57538  1.0000
  C   C1370     1.0  0.91712  0.78968  0.56466  1.0000
  H   H2179     1.0  0.86758  0.80645  0.56123  1.0000
  N   N137      1.0  0.86190  0.71324  0.67420  1.0000
  C   C1371     1.0  0.88368  0.71185  0.67470  1.0000
  C   C1372     1.0  0.85930  0.70477  0.65699  1.0000
  C   C1373     1.0  0.85230  0.73479  0.67256  1.0000
  C   C1374     1.0  0.85235  0.70158  0.69253  1.0000
  H   H2180     1.0  0.88629  0.71745  0.68783  1.0000
  H   H2181     1.0  0.89122  0.72104  0.66143  1.0000
  H   H2182     1.0  0.89162  0.69591  0.67514  1.0000
  H   H2183     1.0  0.98885  0.62060  0.61036  1.0000
  H   H2184     1.0  0.86650  0.71311  0.64291  1.0000
  H   H2185     1.0  0.86630  0.68852  0.65774  1.0000
  H   H2186     1.0  0.85970  0.68541  0.69442  1.0000
  H   H2187     1.0  0.85913  0.74391  0.65874  1.0000
  H   H2188     1.0  0.85423  0.74180  0.68513  1.0000
  H   H2189     1.0  0.68417  0.86966  0.63201  1.0000
  C   C1375     1.0  0.96774  0.60427  0.57703  1.0000
  H   H2190     1.0  0.96956  0.63477  0.59700  1.0000
  H   H2191     1.0  0.89166  0.76380  0.56701  1.0000
  H   H2192     1.0  0.96272  0.59829  0.62695  1.0000
  H   H2193     1.0  0.82304  0.90677  0.50268  1.0000
  H   H2194     1.0  0.95208  0.58520  0.61217  1.0000
  H   H2195     1.0  0.82894  0.55088  0.69565  1.0000
  C   C1376     1.0  0.83797  0.55304  0.70657  1.0000
  C   C1377     1.0  0.71853  0.84540  0.64015  1.0000
  C   C1378     1.0  0.97133  0.67512  0.56737  1.0000
  H   H2196     1.0  0.84484  0.60194  0.68845  1.0000
  H   H2197     1.0  0.69842  0.81383  0.64442  1.0000
  H   H2198     1.0  0.72708  0.83073  0.64635  1.0000
  H   H2199     1.0  0.94514  0.61224  0.61131  1.0000
  C   C1379     1.0  0.98134  0.65163  0.53699  1.0000
  C   C1380     1.0  0.67196  0.97418  0.54594  1.0000
  C   C1381     1.0  0.95797  0.59940  0.61237  1.0000
  H   H2200     1.0  0.85379  0.54558  0.70234  1.0000
  H   H2201     1.0  0.90219  0.65063  0.71938  1.0000
  H   H2202     1.0  0.81446  0.60047  0.71405  1.0000
  N   N138      1.0  0.97487  0.60270  0.59600  1.0000
  H   H2203     1.0  0.95440  0.61640  0.57572  1.0000
  C   C1382     1.0  0.84886  0.57683  0.72250  1.0000
  H   H2204     1.0  0.83602  0.70171  0.69249  1.0000
  H   H2205     1.0  0.67343  0.86267  0.67408  1.0000
  S   S553      1.0  0.85189  0.92977  0.47811  1.0000
  C   C1383     1.0  0.98942  0.67623  0.55409  1.0000
  H   H2206     1.0  0.97976  0.60783  0.56424  1.0000
  H   H2207     1.0  0.83190  0.54460  0.72111  1.0000
  H   H2208     1.0  0.98509  0.53036  0.55655  1.0000
  C   C1384     1.0  0.98213  0.62173  0.59684  1.0000
  C   C1385     1.0  0.99154  0.58542  0.59778  1.0000
  S   S554      1.0  0.65947  0.93888  0.56584  1.0000
  H   H2209     1.0  0.66316  0.91236  0.72599  1.0000
  C   C1386     1.0  0.96897  0.53749  0.90498  1.0000
  H   H2210     1.0  0.67996  0.71183  0.81332  1.0000
  N   N139      1.0  0.95966  0.55906  0.90107  1.0000
  S   S555      1.0  0.92359  0.57248  0.84352  1.0000
  H   H2211     1.0  0.95323  0.55562  0.87299  1.0000
  S   S556      1.0  0.67427  0.65508  0.90150  1.0000
  Fe  Fe277     1.0  0.67939  0.68709  0.88804  1.0000
  H   H2212     1.0  0.94803  0.50026  0.93621  1.0000
  C   C1387     1.0  0.97092  0.57168  0.90876  1.0000
  Fe  Fe278     1.0  0.70909  0.70998  0.85770  1.0000
  S   S557      1.0  0.69325  0.74042  0.86519  1.0000
  S   S558      1.0  0.73608  0.70919  0.83326  1.0000
  Fe  Fe279     1.0  0.69070  0.72497  0.89676  1.0000
  S   S559      1.0  0.69900  0.73780  0.92115  1.0000
  C   C1388     1.0  0.67127  0.71898  0.94906  1.0000
  C   C1389     1.0  0.84652  0.51745  0.76648  1.0000
  S   S560      1.0  0.70929  0.69566  0.88923  1.0000
  S   S561      1.0  0.68087  0.69874  0.85566  1.0000
  Fe  Fe280     1.0  0.83339  0.58653  0.77526  1.0000
  S   S562      1.0  0.85563  0.60742  0.76092  1.0000
  S   S563      1.0  0.93375  0.51587  0.83498  1.0000
  Fe  Fe281     1.0  0.79932  0.62156  0.78280  1.0000
  S   S564      1.0  0.81868  0.64542  0.76858  1.0000
  S   S565      1.0  0.76713  0.62706  0.79836  1.0000
  Fe  Fe282     1.0  0.83061  0.62526  0.74546  1.0000
  Fe  Fe283     1.0  0.84191  0.62534  0.78526  1.0000
  S   S566      1.0  0.86074  0.63837  0.80116  1.0000
  S   S567      1.0  0.80907  0.60296  0.75812  1.0000
  S   S568      1.0  0.82184  0.60293  0.80117  1.0000
  C   C1390     1.0  0.98367  0.52009  0.85410  1.0000
  H   H2213     1.0  0.68021  0.67811  0.94551  1.0000
  C   C1391     1.0  0.74406  0.68651  0.82325  1.0000
  C   C1392     1.0  0.76087  0.68527  0.80819  1.0000
  C   C1393     1.0  0.76795  0.66716  0.80029  1.0000
  C   C1394     1.0  0.75810  0.65026  0.80728  1.0000
  C   C1395     1.0  0.74103  0.65165  0.82207  1.0000
  C   C1396     1.0  0.73409  0.66969  0.83014  1.0000
  H   H2214     1.0  0.76851  0.69833  0.80268  1.0000
  H   H2215     1.0  0.78090  0.66635  0.78869  1.0000
  H   H2216     1.0  0.73331  0.63863  0.82752  1.0000
  H   H2217     1.0  0.72110  0.67050  0.84176  1.0000
  N   N140      1.0  0.81951  0.49294  0.82499  1.0000
  H   H2218     1.0  0.84746  0.50097  0.82891  1.0000
  H   H2219     1.0  0.67889  0.64332  0.96412  1.0000
  C   C1397     1.0  0.68836  0.72856  0.94543  1.0000
  C   C1398     1.0  0.69759  0.73006  0.96129  1.0000
  C   C1399     1.0  0.81635  0.54236  0.76400  1.0000
  C   C1400     1.0  0.80756  0.52837  0.75722  1.0000
  H   H2220     1.0  0.73001  0.64618  0.93441  1.0000
  H   H2221     1.0  0.71074  0.73759  0.95857  1.0000
  H   H2222     1.0  0.79240  0.53255  0.75372  1.0000
  C   C1401     1.0  0.83582  0.53682  0.76874  1.0000
  S   S569      1.0  0.88760  0.52911  0.85847  1.0000
  C   C1402     1.0  0.81806  0.50874  0.75556  1.0000
  H   H2223     1.0  0.83269  0.52024  0.81379  1.0000
  H   H2224     1.0  0.87964  0.56272  0.80141  1.0000
  H   H2225     1.0  0.89482  0.54164  0.81425  1.0000
  H   H2226     1.0  0.70228  0.74156  0.76683  1.0000
  S   S570      1.0  0.84716  0.55355  0.77784  1.0000
  H   H2227     1.0  0.67967  0.74258  0.82788  1.0000
  Fe  Fe284     1.0  0.89863  0.51033  0.88549  1.0000
  C   C1403     1.0  0.83759  0.50330  0.76015  1.0000
  H   H2228     1.0  0.81738  0.49793  0.85481  1.0000
  C   C1404     1.0  0.90074  0.56151  0.76563  1.0000
  C   C1405     1.0  0.69660  0.67334  0.94061  1.0000
  H   H2229     1.0  0.80254  0.51727  0.83990  1.0000
  H   H2230     1.0  0.84247  0.56966  0.73744  1.0000
  H   H2231     1.0  0.66470  0.76473  0.79037  1.0000
  C   C1406     1.0  0.90517  0.59061  0.83290  1.0000
  C   C1407     1.0  0.88738  0.58528  0.82959  1.0000
  C   C1408     1.0  0.87371  0.59981  0.81961  1.0000
  C   C1409     1.0  0.87753  0.61983  0.81356  1.0000
  C   C1410     1.0  0.89495  0.62526  0.81754  1.0000
  C   C1411     1.0  0.90884  0.61064  0.82698  1.0000
  H   H2232     1.0  0.88427  0.56996  0.83454  1.0000
  H   H2233     1.0  0.86015  0.59557  0.81682  1.0000
  H   H2234     1.0  0.89795  0.64072  0.81295  1.0000
  H   H2235     1.0  0.92254  0.61486  0.82956  1.0000
  C   C1412     1.0  0.92702  0.52222  0.95166  1.0000
  C   C1413     1.0  0.90712  0.53241  0.95446  1.0000
  C   C1414     1.0  0.89293  0.52862  0.94398  1.0000
  H   H2236     1.0  0.85820  0.51229  0.96924  1.0000
  C   C1415     1.0  0.89866  0.51471  0.93064  1.0000
  H   H2237     1.0  0.86169  0.51330  0.76990  1.0000
  H   H2238     1.0  0.97058  0.56716  0.92496  1.0000
  H   H2239     1.0  0.91121  0.52134  0.77695  1.0000
  H   H2240     1.0  0.89146  0.57660  0.76738  1.0000
  H   H2241     1.0  0.89109  0.55231  0.76094  1.0000
  C   C1416     1.0  0.72729  0.65215  0.94865  1.0000
  Fe  Fe285     1.0  0.91735  0.54036  0.85219  1.0000
  N   N141      1.0  0.68843  0.74006  0.79727  1.0000
  H   H2242     1.0  0.70613  0.74235  0.81891  1.0000
  S   S571      1.0  0.92697  0.52384  0.88027  1.0000
  C   C1417     1.0  0.91849  0.50435  0.92809  1.0000
  C   C1418     1.0  0.92005  0.56428  0.79031  1.0000
  C   C1419     1.0  0.66783  0.74779  0.79269  1.0000
  C   C1420     1.0  0.69154  0.71758  0.80108  1.0000
  C   C1421     1.0  0.89013  0.54826  0.79974  1.0000
  Fe  Fe286     1.0  0.90458  0.50305  0.84307  1.0000
  C   C1422     1.0  0.80793  0.50062  0.84295  1.0000
  H   H2243     1.0  0.96435  0.58807  0.90602  1.0000
  H   H2244     1.0  0.93367  0.53315  0.76978  1.0000
  H   H2245     1.0  0.66554  0.74262  0.77921  1.0000
  H   H2246     1.0  0.92300  0.49348  0.91790  1.0000
  C   C1423     1.0  0.70357  0.74709  0.78049  1.0000
  H   H2247     1.0  0.70664  0.71124  0.80541  1.0000
  C   C1424     1.0  0.80653  0.49677  0.80960  1.0000
  H   H2248     1.0  0.95247  0.58137  0.87608  1.0000
  H   H2249     1.0  0.68828  0.76470  0.81280  1.0000
  H   H2250     1.0  0.97061  0.52319  0.84677  1.0000
  H   H2251     1.0  0.81466  0.49049  0.79613  1.0000
  H   H2252     1.0  0.84582  0.48821  0.75877  1.0000
  H   H2253     1.0  0.91363  0.56399  0.75351  1.0000
  H   H2254     1.0  0.91123  0.57954  0.79230  1.0000
  H   H2255     1.0  0.66458  0.61946  0.92846  1.0000
  H   H2256     1.0  0.96828  0.53198  0.92109  1.0000
  H   H2257     1.0  0.92517  0.55734  0.80462  1.0000
  H   H2258     1.0  0.70397  0.68721  0.93757  1.0000
  H   H2259     1.0  0.98511  0.53517  0.89793  1.0000
  C   C1425     1.0  0.66386  0.71033  0.96830  1.0000
  H   H2260     1.0  0.98709  0.57013  0.90158  1.0000
  C   C1426     1.0  0.98791  0.50148  0.86621  1.0000
  H   H2261     1.0  0.92964  0.55141  0.90639  1.0000
  H   H2262     1.0  0.90280  0.54364  0.96424  1.0000
  C   C1427     1.0  0.69077  0.74778  0.81496  1.0000
  N   N142      1.0  0.80834  0.65083  0.84119  1.0000
  C   C1428     1.0  0.82547  0.63446  0.84480  1.0000
  C   C1429     1.0  0.80515  0.66467  0.85591  1.0000
  C   C1430     1.0  0.78982  0.64184  0.84278  1.0000
  C   C1431     1.0  0.81291  0.66242  0.82120  1.0000
  H   H2263     1.0  0.83979  0.64069  0.84337  1.0000
  H   H2264     1.0  0.82825  0.62379  0.83390  1.0000
  H   H2265     1.0  0.82271  0.62543  0.85977  1.0000
  H   H2266     1.0  0.81882  0.67178  0.85501  1.0000
  H   H2267     1.0  0.79229  0.67720  0.85355  1.0000
  H   H2268     1.0  0.80166  0.65646  0.87119  1.0000
  H   H2269     1.0  0.77647  0.65383  0.84083  1.0000
  H   H2270     1.0  0.78625  0.63238  0.85742  1.0000
  H   H2271     1.0  0.79134  0.63198  0.83130  1.0000
  H   H2272     1.0  0.80060  0.67526  0.81813  1.0000
  H   H2273     1.0  0.81487  0.65256  0.80970  1.0000
  H   H2274     1.0  0.82721  0.66882  0.81919  1.0000
  N   N143      1.0  0.90780  0.55139  0.78424  1.0000
  C   C1432     1.0  0.93265  0.50817  0.93850  1.0000
  C   C1433     1.0  0.93837  0.56152  0.91102  1.0000
  H   H2275     1.0  0.69817  0.66760  0.92641  1.0000
  H   H2276     1.0  0.92547  0.52333  0.79516  1.0000
  H   H2277     1.0  0.70898  0.68002  0.97240  1.0000
  C   C1434     1.0  0.92014  0.53149  0.78132  1.0000
  H   H2278     1.0  0.93375  0.56667  0.77919  1.0000
  H   H2279     1.0  0.88128  0.53754  0.79626  1.0000
  H   H2280     1.0  0.96116  0.52744  0.89911  1.0000
  S   S572      1.0  0.88147  0.51108  0.91634  1.0000
  H   H2281     1.0  0.84634  0.49796  0.80434  1.0000
  H   H2282     1.0  0.80792  0.55724  0.76588  1.0000
  H   H2283     1.0  0.86817  0.64137  0.73228  1.0000
  H   H2284     1.0  0.87775  0.53703  0.94564  1.0000
  H   H2285     1.0  0.93730  0.55770  0.92732  1.0000
  H   H2286     1.0  0.66388  0.71802  0.93701  1.0000
  N   N144      1.0  0.70544  0.65768  0.95560  1.0000
  C   C1435     1.0  0.69538  0.63955  0.95871  1.0000
  S   S573      1.0  0.94550  0.52777  0.96334  1.0000
  H   H2287     1.0  0.93059  0.57740  0.90764  1.0000
  S   S574      1.0  0.80647  0.49132  0.74776  1.0000
  S   S575      1.0  0.89341  0.49740  0.81642  1.0000
  H   H2288     1.0  0.70167  0.76400  0.77734  1.0000
  H   H2289     1.0  0.71924  0.74145  0.78365  1.0000
  H   H2290     1.0  0.80165  0.51332  0.80505  1.0000
  C   C1436     1.0  0.83722  0.50353  0.81774  1.0000
  H   H2291     1.0  0.98969  0.53119  0.96400  1.0000
  H   H2292     1.0  0.73521  0.66560  0.94621  1.0000
  H   H2293     1.0  0.79274  0.48942  0.81469  1.0000
  H   H2294     1.0  0.97634  0.56518  0.87181  1.0000
  C   C1437     1.0  0.70239  0.66577  0.97436  1.0000
  H   H2295     1.0  0.69697  0.63333  0.94472  1.0000
  C   C1438     1.0  0.96047  0.56559  0.87958  1.0000
  H   H2296     1.0  0.70176  0.62726  0.96978  1.0000
  Fe  Fe287     1.0  0.66481  0.72839  0.86492  1.0000
  H   H2297     1.0  0.69052  0.71113  0.78787  1.0000
  H   H2298     1.0  0.87229  0.48883  0.96258  1.0000
  H   H2299     1.0  0.66190  0.77619  0.84836  1.0000
  Fe  Fe288     1.0  0.94077  0.49818  0.86384  1.0000
  H   H2300     1.0  0.73451  0.64028  0.95954  1.0000
  C   C1439     1.0  0.65834  0.65220  0.92444  1.0000
  H   H2301     1.0  0.79445  0.49295  0.84886  1.0000
  C   C1440     1.0  0.86067  0.49555  0.97412  1.0000
  H   H2302     1.0  0.66140  0.81066  0.82845  1.0000
  H   H2303     1.0  0.84632  0.48996  0.97420  1.0000
  S   S576      1.0  0.66067  0.71571  0.89725  1.0000
  H   H2304     1.0  0.80878  0.57635  0.72757  1.0000
