data_image0
_chemical_formula_structural       FeS2CHCH3FeS2FeS2FeSFeS3NSFeC8H4C4H3CH4CH2CHC6H4C3FeC2HNHCSH3CH2CHC2HCHCH7NC4H18CHNCSH5CH2SH2SH2CSC4FeS2FeS2FeSFeS4HFeS2FeS2FeS2FeHFeS3FeS2FeS2FeSFeHS2FeS2CHFeS2HFeHFeS2NCH2C7SH3C6H4C6H4FeC6H4C6H6C6H4C6H4C6H2FeC2H8C2H5C2HCNC4H15NC3H7N2CH2CH7CHCH5CHCH8CHNCHCH2CFeH3FeNH7CH2CH3CH2SH7C2NH4CH3C3HCH2CH2C2NHSC3HCH3CH2SHSH2CH3CH3C3HC2NH10FeHCH3SH2CFeSCFeS2FeS2FeSFeS3FeS2NH7C6H4C2HCH3C3HC6H4SHNC2H4CH3NC4H2C2H2SCFeCH8CH3C3HC2H6NSCH2CH3CH6SNCH3C2H3NFeHCH5CSHC3H2SHFeSCSFeS2FeS2FeSFeS3C2SC6H4C5H2C6H6CH4CHNH2C2HCHSH2FeHCHNC4H7CHCH2SCH2FeHCH3FeSNCHCH7C2HCH2NH6CH4NC2H2CH3SH3C2H2CH3SH7CNCFeS2FeS2FeSFeS3HSH3FeSFeSCHCSHCHFeSCFeS2FeS2FeCFeS3FeS2FeS2FeCFeS3FeS2FeS2FeS2NHFeSHSH5CHC7HCH2C6H4C6H3FeCFeC6H4C6H4C2HNHCHC2S2H3SCHCH2C6H4C6H5NC3H2SNC4H12FeCHC2H4CH2CHCHFeH2CHNC4H6SH5SH2C2H2C3H3NH5CH4C3H4SH3CHCH5NC2H4CHSCNH4CH3CH5CH6SHC2NSHCHCH8SCNCH3CSCHFeSHSHFeS2FeS2FeSFeS3HCSCH5C6H9C3H2C6H4C2HSCSH6CHC2HNSC2NC2H6NHCFeHCHCH4CH3FeH3CNCH3FeHCH5FeHSCH2FeCS2FeHSH2CH2SHFeS2FeS2FeSFeS3FeS2FeS2FeSFeS3HSHSFeHFeS2C6H4CH4C6H9CSHC6H8CHC6H4CH4NH3NCH7CHCHCHNH2C2H2NC4H4SH3C2H3NH5CHCHCH3CH2CHCFe3CH3C2H2CSC3H2NCSH2C3H2CSCH2CNH3CH2SCSH2SHCHC3H2C6H3C4HFeH3C6H5SHNHCSH2CSCHSHSH2FeH2C2H6FeSCH3C2H2C2NHSH3CH3NHCHCSHC2H5CHCH2SFeCSFeSFeS5FeS2FeS2FeSFeS3FeS2FeS2FeSFeS3FeS2CSHFeSFeSNSH4C6H5SHCH2CHC7H4C2NH2CH2FeC6H4C8H5SHCH2FeCH4SHCH2C4H5CHC2H3C2NHFeSH4NC4H12NH2CHCH4CHC3H4C2H3C2H4CH3CSH4CSH3CSHCSCH2SHFeS2FeS2FeSFeS3FeS2FeS2FeSFeS5FeSFeS2HC10H7CHC6H5C2H5C6H5CHFeHSC7H5FeNC4H12NC4H12NC2HCHCH2CH3FeCH2CH6C2H6CNHFeH2FeH3CSHNH4SC2HSH3NC3FeHSCHC3H4SCHFeSHFeH3C6H2CHNCH5CH2C8H3C2H2C5HCHC2SHSH2SH2CH5CHC2H4NHCH3CHCHCNCHC2H8CHNSH2SHC2HCH8SH2S2HNSFeSCSFeS2FeS2FeSFeS3FeS2FeS2FeSFeS3HSH2SHFeHFeSCS2CH2C2HC6H4CHC6H4CHCH2C2H3C6H4CSH3SC7H5NH2CHC2H5FeHCHCNC4H12C2H2CNC4H16NH4NH2NH2CNHCHC2H6CH4FeH3C4HCH2C2H3C2H2C2HCH2CH2FeHFeHCSH3CH3CH2CH3Fe2SH2SH2FeS2FeHSHFeS2FeS2FeSFeS3HSHSHFeSFeHCFeS2FeS2FeSFeHS2C2H3SH3CH2C6H4C6H4C4HC6H6SCH5SC6H5SHCHC2NH2CNH3CH2C2H6NC4H13CNHCHCHCNC2H4NC4H12NC4H12C3H2CHCH4FeC2HCHCH4CH3CH3CH2FeHS4H2SFeHSH2S2HCHC3SHCSCHC4HCH4C6H3CFeH5SH2SH4CHCHC3NSCH5C4HC3H2NH2FeH2SH3CHC2HNCHC2SH2C2NC2H2FeHC2HCH2C2H5SHFeSH2SFeS2FeS2FeSFeS3HSNHSHFeSFeSCSFeS2FeS2FeSFeHS2HC3HCH3CH3C6H4C6H4C3HCH2SC6H4C6H7C2HSH3CHCH2SHCHCHCH2NC4H14CHFeC2Fe3CH2CH3SHSHN2H2CHCH2CH2C3HCNC2H6C2HSCH3CHFeC2H5NCHCH2FeH11S2HFeSHSCFeSHSFeSCFeSFeS2FeS2FeS2FeSFeS3FeS2FeS2FeSFeHS2CNHC2H4FeCHC8H4C2H2CNHC6H4C4SC7H5SCHSHC6H4CH2CH3C2H3S2C2H8CHNC4H14NC4H16CHNHNH3CH3NCH3C2H2NH2CHFeHCH6CH4SCH2CHCH4CFeHCHFeCH2C2SCHCHCFe2SFeSHCSH2FeHSFeS2HSC2H6CH3C8H2C4HC5H3FeHC3H3SH4SC2HCH4SCH3NHSC2SC2HCNSHC2H3SH3C2SHCNHNC4H2CH4CH7CH2C2HFeH5CHSH2NH2FeHSCHSH2SHS2HFeSFeHSNFeS2FeS2FeSFeS3FeSCFeS2FeSFeS3HC6H4CH3C2SHC6H4C2H2C7H6C2H2CSH2C6H6CH3CNC3H3CH7C2H4NC4H13CH7SNH3CFeC2H4C2HFeC2HSHSCH3NH3CH2C2H4C2H4FeHNHCSHC2S2H2SFeS2FeS2FeSFeS3C3SH2C5H2C6H4CHC6H6FeH2NC4H22C3NC3NCH10FeH2SCHCH3CHFeS2FeS2FeSFeS4HSHSCH3FeS2FeHFeHC2FeS2FeS2FeSFeS3FeS2FeS2FeSFeHS2FeS2FeHFeCS2HC8H4SNHC6H4C6H5SHC6H6C7H7C7H4C6H5SHNHC4H2FeH5NH3CH3NC6HSHCH5CH3CNH2C3H16C2HSHCHNC5HCH8CSCHSH2SH6CH3NCHCH4C2HCH5SC2HNCH4NC2H2FeSH3CFeSHSH2SFeS2FeS2FeSFeS3HC4H3C4H5C6H6CHC6H10NC4H2C2H6NHFeH3C2H3CHCH2N2C4H3NH7C2H4C2H5CHCH4CH2CH2SH2CH3CSCHFeS2FeS2FeSFeS4C4H2C6H5CHC7H6CH4NC4H12CFeCNHCH4CH10NCH2FeHSH4S2CHCH2CSCH2SCH4NH2FeS2FeS2FeSFeS3FeS2H2FeNHSCS2FeSNFeS2FeS2FeS2FeS2FeSFeS3FeS2FeS2FeSFeS3FeS2HCH2FeSHSHNSHC6H4C6H4C6H4SFeH2C2HC6H6C6H4C2H2C3H2C6H4C6H4CHCH4CHNC4H12NC3H9NC2H2CH3CH5SHC2HNH5C2H2NHCNHCHSCH3C4H5CH3CH4CH4CHC2H3CFeH3CH5FeH3C2HCHCH4C2H2CHSH8CHC2H2FeH2C2H2C2FeCH3C2HSFeS2FeS2FeSFeS3H3CSH4C7H6C7H3C6H7NHCNHCFeCH3CHSCNCNCH2FeH2CH8SH4CHC2NH2CSC2H2SCHCH2C
_chemical_formula_sum              "Fe288 S576 C1440 H2304 N144"
_cell_length_a       71.4655
_cell_length_b       71.3941
_cell_length_c       71.1901
_cell_angle_alpha    84.7203
_cell_angle_beta     85.5774
_cell_angle_gamma    85.3394

_space_group_name_H-M_alt    "P 1"
_space_group_IT_number       1

loop_
  _space_group_symop_operation_xyz
  'x, y, z'

loop_
  _atom_site_type_symbol
  _atom_site_label
  _atom_site_symmetry_multiplicity
  _atom_site_fract_x
  _atom_site_fract_y
  _atom_site_fract_z
  _atom_site_occupancy
  Fe  Fe1       1.0  0.03183  0.39477  0.09874  1.0000
  S   S1        1.0  0.02768  0.40831  0.06945  1.0000
  S   S2        1.0  0.06027  0.37992  0.10530  1.0000
  C   C1        1.0  0.16994  0.48519  0.21488  1.0000
  H   H1        1.0  0.13871  0.39003  0.28521  1.0000
  C   C2        1.0  0.14834  0.42569  0.27532  1.0000
  H   H2        1.0  0.17864  0.48241  0.22674  1.0000
  H   H3        1.0  0.20163  0.46583  0.18752  1.0000
  H   H4        1.0  0.15641  0.43641  0.26643  1.0000
  Fe  Fe2       1.0  0.14015  0.40584  0.17098  1.0000
  S   S3        1.0  0.13462  0.41011  0.20183  1.0000
  S   S4        1.0  0.11525  0.41785  0.15447  1.0000
  Fe  Fe3       1.0  0.18139  0.39095  0.17620  1.0000
  S   S5        1.0  0.17761  0.39342  0.20774  1.0000
  S   S6        1.0  0.21252  0.38799  0.16520  1.0000
  Fe  Fe4       1.0  0.14955  0.38142  0.20706  1.0000
  S   S7        1.0  0.13170  0.36228  0.22761  1.0000
  Fe  Fe5       1.0  0.16280  0.42177  0.20002  1.0000
  S   S8        1.0  0.17007  0.44651  0.21533  1.0000
  S   S9        1.0  0.15415  0.37651  0.17595  1.0000
  S   S10       1.0  0.16737  0.41992  0.16882  1.0000
  N   N1        1.0  0.13994  0.41310  0.26348  1.0000
  S   S11       1.0  0.13553  0.33212  0.31495  1.0000
  Fe  Fe6       1.0  0.00210  0.39203  0.07066  1.0000
  C   C3        1.0  0.12937  0.39908  0.27568  1.0000
  C   C4        1.0  0.21859  0.43587  0.15463  1.0000
  C   C5        1.0  0.13335  0.35368  0.25179  1.0000
  C   C6        1.0  0.11776  0.34551  0.26164  1.0000
  C   C7        1.0  0.11821  0.33874  0.28088  1.0000
  C   C8        1.0  0.13430  0.34006  0.29057  1.0000
  C   C9        1.0  0.14990  0.34822  0.28070  1.0000
  C   C10       1.0  0.14950  0.35487  0.26142  1.0000
  H   H5        1.0  0.10521  0.34438  0.25437  1.0000
  H   H6        1.0  0.10610  0.33251  0.28825  1.0000
  H   H7        1.0  0.16249  0.34911  0.28800  1.0000
  H   H8        1.0  0.16182  0.36054  0.25395  1.0000
  C   C11       1.0  0.22751  0.37430  0.14948  1.0000
  C   C12       1.0  0.20246  0.45921  0.17388  1.0000
  C   C13       1.0  0.23372  0.34941  0.12802  1.0000
  C   C14       1.0  0.22113  0.35989  0.14014  1.0000
  H   H9        1.0  0.13476  0.43475  0.24097  1.0000
  H   H10       1.0  0.05793  0.33628  0.03379  1.0000
  H   H11       1.0  0.20654  0.35672  0.14230  1.0000
  C   C15       1.0  0.16359  0.47000  0.20647  1.0000
  H   H12       1.0  0.03437  0.36806  0.06808  1.0000
  H   H13       1.0  0.16346  0.41339  0.24276  1.0000
  H   H14       1.0  0.11792  0.40598  0.28472  1.0000
  H   H15       1.0  0.01525  0.45780  0.11140  1.0000
  C   C16       1.0  0.15239  0.47377  0.19112  1.0000
  H   H16       1.0  0.08153  0.37797  0.04536  1.0000
  H   H17       1.0  0.12019  0.41527  0.24195  1.0000
  C   C17       1.0  0.99946  0.37555  0.00700  1.0000
  H   H18       1.0  0.14741  0.46225  0.18449  1.0000
  C   C18       1.0  0.07554  0.39052  0.11893  1.0000
  C   C19       1.0  0.07039  0.40789  0.12616  1.0000
  C   C20       1.0  0.08278  0.41599  0.13696  1.0000
  C   C21       1.0  0.10038  0.40679  0.14079  1.0000
  C   C22       1.0  0.10558  0.38939  0.13356  1.0000
  C   C23       1.0  0.09320  0.38132  0.12264  1.0000
  H   H19       1.0  0.05691  0.41519  0.12332  1.0000
  H   H20       1.0  0.07870  0.42953  0.14234  1.0000
  H   H21       1.0  0.11926  0.38235  0.13605  1.0000
  H   H22       1.0  0.09737  0.36795  0.11695  1.0000
  C   C24       1.0  0.00393  0.40524  0.01922  1.0000
  C   C25       1.0  0.01521  0.48656  0.11824  1.0000
  C   C26       1.0  0.01068  0.47732  0.08701  1.0000
  Fe  Fe7       1.0  0.00863  0.42998  0.08366  1.0000
  C   C27       1.0  0.07029  0.37314  0.05597  1.0000
  C   C28       1.0  0.23609  0.45255  0.17456  1.0000
  H   H23       1.0  0.22651  0.41793  0.18824  1.0000
  N   N2        1.0  0.05710  0.36188  0.04761  1.0000
  H   H24       1.0  0.03783  0.36539  0.02553  1.0000
  C   C29       1.0  0.04800  0.37343  0.03204  1.0000
  S   S12       1.0  0.00714  0.37701  0.09936  1.0000
  H   H25       1.0  0.06291  0.38592  0.06176  1.0000
  H   H26       1.0  0.21438  0.43537  0.20262  1.0000
  H   H27       1.0  0.20408  0.47059  0.16224  1.0000
  C   C30       1.0  0.04257  0.35576  0.06229  1.0000
  H   H28       1.0  0.06253  0.26062  0.31674  1.0000
  H   H29       1.0  0.03986  0.38615  0.03716  1.0000
  C   C31       1.0  0.14736  0.49254  0.18444  1.0000
  H   H30       1.0  0.24812  0.44163  0.17386  1.0000
  C   C32       1.0  0.24661  0.37812  0.14641  1.0000
  C   C33       1.0  0.06753  0.34509  0.04015  1.0000
  H   H31       1.0  0.04524  0.23201  0.31651  1.0000
  C   C34       1.0  0.21511  0.42953  0.18859  1.0000
  H   H32       1.0  0.01116  0.29964  0.31202  1.0000
  C   C35       1.0  0.12708  0.42442  0.25080  1.0000
  H   H33       1.0  0.16495  0.39432  0.26103  1.0000
  H   H34       1.0  0.07718  0.36496  0.06799  1.0000
  H   H35       1.0  0.18861  0.45343  0.17287  1.0000
  H   H36       1.0  0.01764  0.48277  0.13297  1.0000
  H   H37       1.0  0.07455  0.33607  0.05155  1.0000
  H   H38       1.0  0.08313  0.24666  0.32471  1.0000
  H   H39       1.0  0.11573  0.43249  0.25893  1.0000
  N   N3        1.0  0.09152  0.36167  0.18772  1.0000
  C   C36       1.0  0.08032  0.36193  0.20606  1.0000
  C   C37       1.0  0.07885  0.36182  0.17223  1.0000
  C   C38       1.0  0.10459  0.34450  0.18787  1.0000
  C   C39       1.0  0.10245  0.37850  0.18477  1.0000
  H   H40       1.0  0.07046  0.37481  0.20647  1.0000
  H   H41       1.0  0.08960  0.36179  0.21799  1.0000
  H   H42       1.0  0.07186  0.34943  0.20883  1.0000
  H   H43       1.0  0.06991  0.34965  0.17425  1.0000
  H   H44       1.0  0.06936  0.37499  0.17115  1.0000
  H   H45       1.0  0.08696  0.36106  0.15830  1.0000
  H   H46       1.0  0.11436  0.34399  0.19942  1.0000
  H   H47       1.0  0.11345  0.34398  0.17433  1.0000
  H   H48       1.0  0.09686  0.33147  0.19006  1.0000
  H   H49       1.0  0.11175  0.37836  0.17153  1.0000
  H   H50       1.0  0.11162  0.37919  0.19654  1.0000
  H   H51       1.0  0.09318  0.39182  0.18373  1.0000
  H   H52       1.0  0.13735  0.43341  0.28422  1.0000
  H   H53       1.0  0.15822  0.41759  0.28498  1.0000
  H   H54       1.0  0.14920  0.39381  0.24267  1.0000
  H   H55       1.0  0.12277  0.38943  0.26711  1.0000
  H   H56       1.0  0.23005  0.42438  0.15353  1.0000
  H   H57       1.0  0.20171  0.42293  0.18769  1.0000
  C   C40       1.0  0.00906  0.29838  0.32729  1.0000
  H   H58       1.0  0.20524  0.42939  0.15292  1.0000
  N   N4        1.0  0.21805  0.44430  0.17290  1.0000
  C   C41       1.0  0.15507  0.40322  0.25199  1.0000
  S   S13       1.0  0.01509  0.41811  0.11292  1.0000
  H   H59       1.0  0.04887  0.34725  0.07445  1.0000
  H   H60       1.0  0.22082  0.44654  0.14243  1.0000
  H   H61       1.0  0.03224  0.34732  0.05652  1.0000
  H   H62       1.0  0.00475  0.41361  0.03101  1.0000
  H   H63       1.0  0.07860  0.34918  0.02899  1.0000
  C   C42       1.0  0.01384  0.47242  0.10605  1.0000
  H   H64       1.0  0.13852  0.49530  0.17267  1.0000
  H   H65       1.0  0.22862  0.33824  0.12096  1.0000
  S   S14       1.0  0.00756  0.46019  0.07162  1.0000
  H   H66       1.0  0.23617  0.45899  0.18822  1.0000
  H   H67       1.0  0.23876  0.46377  0.16295  1.0000
  S   S15       1.0  0.10139  0.28985  0.32660  1.0000
  H   H68       1.0  0.06577  0.21776  0.32378  1.0000
  H   H69       1.0  0.05847  0.37836  0.02066  1.0000
  C   C43       1.0  0.00911  0.49634  0.08015  1.0000
  S   S16       1.0  0.04739  0.30028  0.32670  1.0000
  C   C44       1.0  0.05273  0.22584  0.32906  1.0000
  C   C45       1.0  0.06937  0.25383  0.32945  1.0000
  C   C46       1.0  0.00047  0.38620  0.02252  1.0000
  C   C47       1.0  0.00621  0.41359  0.00058  1.0000
  Fe  Fe8       1.0  0.10646  0.39416  0.47561  1.0000
  S   S17       1.0  0.08144  0.38092  0.49040  1.0000
  S   S18       1.0  0.11833  0.38634  0.44650  1.0000
  Fe  Fe9       1.0  0.10832  0.42115  0.50700  1.0000
  S   S19       1.0  0.08332  0.40947  0.52388  1.0000
  S   S20       1.0  0.12115  0.44353  0.52163  1.0000
  Fe  Fe10      1.0  0.09656  0.38109  0.51702  1.0000
  S   S21       1.0  0.10068  0.35424  0.53641  1.0000
  Fe  Fe11      1.0  0.07101  0.41057  0.49578  1.0000
  S   S22       1.0  0.04286  0.42447  0.48877  1.0000
  S   S23       1.0  0.12253  0.39251  0.50182  1.0000
  S   S24       1.0  0.09504  0.42406  0.47930  1.0000
  S   S25       1.0  0.10073  0.04211  0.42327  1.0000
  H   H70       1.0  0.17281  0.07678  0.42512  1.0000
  Fe  Fe12      1.0  0.10368  0.02037  0.60115  1.0000
  S   S26       1.0  0.10684  0.04714  0.61508  1.0000
  S   S27       1.0  0.08390  0.02083  0.57798  1.0000
  Fe  Fe13      1.0  0.17744  0.11710  0.40268  1.0000
  S   S28       1.0  0.19995  0.10703  0.42227  1.0000
  S   S29       1.0  0.16522  0.09414  0.38822  1.0000
  Fe  Fe14      1.0  0.18400  0.15872  0.40533  1.0000
  S   S30       1.0  0.20686  0.15082  0.42559  1.0000
  S   S31       1.0  0.18146  0.19053  0.39601  1.0000
  Fe  Fe15      1.0  0.21746  0.12858  0.40598  1.0000
  H   H71       1.0  0.14636  0.05316  0.46684  1.0000
  Fe  Fe16      1.0  0.18753  0.12995  0.44019  1.0000
  S   S32       1.0  0.18196  0.12014  0.47155  1.0000
  S   S33       1.0  0.19576  0.13739  0.38510  1.0000
  S   S34       1.0  0.16379  0.13903  0.42131  1.0000
  Fe  Fe17      1.0  0.18804  0.11705  0.60503  1.0000
  S   S35       1.0  0.21504  0.12369  0.58829  1.0000
  S   S36       1.0  0.18468  0.08548  0.60749  1.0000
  Fe  Fe18      1.0  0.17821  0.15876  0.61203  1.0000
  S   S37       1.0  0.20509  0.16742  0.59637  1.0000
  S   S38       1.0  0.15314  0.17999  0.61876  1.0000
  Fe  Fe19      1.0  0.19844  0.14844  0.57454  1.0000
  S   S39       1.0  0.20043  0.16068  0.54375  1.0000
  Fe  Fe20      1.0  0.21948  0.14166  0.61168  1.0000
  H   H72       1.0  0.08687  0.23280  0.64441  1.0000
  S   S40       1.0  0.17114  0.14056  0.58951  1.0000
  S   S41       1.0  0.19294  0.13411  0.62914  1.0000
  Fe  Fe21      1.0  0.09915  0.32131  0.64437  1.0000
  S   S42       1.0  0.09433  0.29158  0.63834  1.0000
  S   S43       1.0  0.09829  0.34928  0.62623  1.0000
  C   C48       1.0  0.24138  0.08202  0.60503  1.0000
  H   H73       1.0  0.22702  0.08156  0.60004  1.0000
  Fe  Fe22      1.0  0.10829  0.27649  0.35548  1.0000
  S   S44       1.0  0.12332  0.30128  0.36228  1.0000
  S   S45       1.0  0.11348  0.24450  0.36237  1.0000
  H   H74       1.0  0.06507  0.05428  0.40089  1.0000
  Fe  Fe23      1.0  0.11421  0.31562  0.33423  1.0000
  H   H75       1.0  0.04140  0.06089  0.37650  1.0000
  Fe  Fe24      1.0  0.09517  0.31299  0.37427  1.0000
  S   S46       1.0  0.08873  0.32039  0.40471  1.0000
  S   S47       1.0  0.08060  0.28734  0.36909  1.0000
  N   N5        1.0  0.17240  0.05812  0.45048  1.0000
  C   C49       1.0  0.02164  0.29725  0.35796  1.0000
  H   H76       1.0  0.03340  0.29770  0.36656  1.0000
  H   H77       1.0  0.14360  0.04555  0.54195  1.0000
  C   C50       1.0  0.03955  0.25121  0.34738  1.0000
  C   C51       1.0  0.14511  0.23821  0.64325  1.0000
  C   C52       1.0  0.16224  0.22711  0.64473  1.0000
  C   C53       1.0  0.16507  0.20939  0.63719  1.0000
  C   C54       1.0  0.15066  0.20239  0.62827  1.0000
  C   C55       1.0  0.13360  0.21359  0.62658  1.0000
  C   C56       1.0  0.13092  0.23149  0.63378  1.0000
  S   S48       1.0  0.11544  0.01680  0.53303  1.0000
  H   H78       1.0  0.17829  0.20102  0.63859  1.0000
  H   H79       1.0  0.12242  0.20845  0.61951  1.0000
  H   H80       1.0  0.11791  0.24007  0.63207  1.0000
  C   C57       1.0  0.16221  0.20532  0.38701  1.0000
  C   C58       1.0  0.14509  0.19832  0.38390  1.0000
  C   C59       1.0  0.13040  0.21054  0.37644  1.0000
  C   C60       1.0  0.13254  0.22992  0.37200  1.0000
  C   C61       1.0  0.14961  0.23698  0.37524  1.0000
  C   C62       1.0  0.16432  0.22475  0.38269  1.0000
  H   H81       1.0  0.14321  0.18345  0.38710  1.0000
  H   H82       1.0  0.11731  0.20486  0.37398  1.0000
  H   H83       1.0  0.15163  0.25176  0.37165  1.0000
  H   H84       1.0  0.17752  0.23033  0.38490  1.0000
  C   C63       1.0  0.18750  0.13158  0.49138  1.0000
  C   C64       1.0  0.18424  0.12262  0.50967  1.0000
  C   C65       1.0  0.18826  0.13123  0.52583  1.0000
  C   C66       1.0  0.19552  0.14898  0.52386  1.0000
  C   C67       1.0  0.19873  0.15796  0.50558  1.0000
  C   C68       1.0  0.19481  0.14931  0.48942  1.0000
  H   H85       1.0  0.17862  0.10892  0.51135  1.0000
  H   H86       1.0  0.18573  0.12416  0.53979  1.0000
  H   H87       1.0  0.20436  0.17167  0.50389  1.0000
  H   H88       1.0  0.19739  0.15638  0.47546  1.0000
  Fe  Fe25      1.0  0.07456  0.30222  0.34102  1.0000
  C   C69       1.0  0.12850  0.05781  0.61271  1.0000
  C   C70       1.0  0.14541  0.04755  0.60789  1.0000
  C   C71       1.0  0.16249  0.05623  0.60654  1.0000
  C   C72       1.0  0.16279  0.07537  0.60948  1.0000
  C   C73       1.0  0.14587  0.08577  0.61403  1.0000
  C   C74       1.0  0.12880  0.07693  0.61584  1.0000
  H   H89       1.0  0.14545  0.03286  0.60547  1.0000
  H   H90       1.0  0.17553  0.04810  0.60302  1.0000
  H   H91       1.0  0.14595  0.10051  0.61645  1.0000
  H   H92       1.0  0.11578  0.08497  0.61966  1.0000
  C   C75       1.0  0.11890  0.05624  0.41349  1.0000
  C   C76       1.0  0.11916  0.07463  0.41897  1.0000
  C   C77       1.0  0.13342  0.08631  0.41159  1.0000
  C   C78       1.0  0.14722  0.07987  0.39820  1.0000
  C   C79       1.0  0.14682  0.06156  0.39255  1.0000
  C   C80       1.0  0.13290  0.04967  0.40036  1.0000
  H   H93       1.0  0.10833  0.07985  0.42906  1.0000
  H   H94       1.0  0.13351  0.10044  0.41594  1.0000
  H   H95       1.0  0.15741  0.05651  0.38213  1.0000
  H   H96       1.0  0.13280  0.03558  0.39594  1.0000
  H   H97       1.0  0.05745  0.36738  0.46083  1.0000
  H   H98       1.0  0.14723  0.04678  0.44293  1.0000
  C   C81       1.0  0.11023  0.36778  0.43508  1.0000
  C   C82       1.0  0.11587  0.36589  0.41593  1.0000
  C   C83       1.0  0.10944  0.35148  0.40635  1.0000
  C   C84       1.0  0.09731  0.33881  0.41589  1.0000
  C   C85       1.0  0.09178  0.34061  0.43506  1.0000
  C   C86       1.0  0.09819  0.35500  0.44461  1.0000
  H   H99       1.0  0.12521  0.37569  0.40845  1.0000
  H   H100      1.0  0.11382  0.35025  0.39159  1.0000
  H   H101      1.0  0.08249  0.33080  0.44259  1.0000
  H   H102      1.0  0.09399  0.35608  0.45941  1.0000
  C   C87       1.0  0.09874  0.35300  0.56140  1.0000
  C   C88       1.0  0.10319  0.33565  0.57166  1.0000
  C   C89       1.0  0.10270  0.33423  0.59154  1.0000
  C   C90       1.0  0.09796  0.35024  0.60133  1.0000
  C   C91       1.0  0.09342  0.36760  0.59108  1.0000
  C   C92       1.0  0.09360  0.36894  0.57120  1.0000
  H   H103      1.0  0.10712  0.32325  0.56417  1.0000
  H   H104      1.0  0.10624  0.32080  0.59927  1.0000
  H   H105      1.0  0.08954  0.38000  0.59857  1.0000
  H   H106      1.0  0.08974  0.38226  0.56344  1.0000
  C   C93       1.0  0.23476  0.05988  0.63198  1.0000
  C   C94       1.0  0.12104  0.47189  0.49232  1.0000
  C   C95       1.0  0.12048  0.48184  0.52392  1.0000
  C   C96       1.0  0.12051  0.46730  0.51186  1.0000
  C   C97       1.0  0.00350  0.29465  0.36658  1.0000
  C   C98       1.0  0.05333  0.04930  0.41084  1.0000
  H   H107      1.0  0.12025  0.47840  0.53905  1.0000
  H   H108      1.0  0.24640  0.09612  0.59996  1.0000
  Fe  Fe26      1.0  0.10065  0.01057  0.42085  1.0000
  C   C99       1.0  0.02712  0.39450  0.50908  1.0000
  C   C100      1.0  0.02405  0.41123  0.49755  1.0000
  H   H109      1.0  0.00034  0.02920  0.61013  1.0000
  H   H110      1.0  0.04113  0.38989  0.51318  1.0000
  H   H111      1.0  0.11026  0.06911  0.57647  1.0000
  H   H112      1.0  0.11461  0.09796  0.55518  1.0000
  H   H113      1.0  0.14838  0.01233  0.63625  1.0000
  H   H114      1.0  0.23227  0.16833  0.35593  1.0000
  H   H115      1.0  0.10653  0.29403  0.43299  1.0000
  H   H116      1.0  0.07745  0.39203  0.44542  1.0000
  C   C101      1.0  0.04810  0.02506  0.39074  1.0000
  C   C102      1.0  0.12003  0.08876  0.54383  1.0000
  H   H117      1.0  0.06888  0.00071  0.53007  1.0000
  H   H118      1.0  0.12325  0.26729  0.39192  1.0000
  H   H119      1.0  0.02883  0.41306  0.45441  1.0000
  H   H120      1.0  0.01431  0.37076  0.52434  1.0000
  H   H121      1.0  0.15233  0.26512  0.43338  1.0000
  C   C103      1.0  0.02455  0.29891  0.33824  1.0000
  C   C104      1.0  0.07999  0.37656  0.66390  1.0000
  H   H122      1.0  0.14649  0.28993  0.39671  1.0000
  C   C105      1.0  0.04520  0.37799  0.45965  1.0000
  N   N6        1.0  0.14233  0.39836  0.55716  1.0000
  C   C106      1.0  0.12329  0.40796  0.55959  1.0000
  C   C107      1.0  0.15228  0.39916  0.57448  1.0000
  C   C108      1.0  0.15291  0.40792  0.54087  1.0000
  C   C109      1.0  0.14078  0.37843  0.55376  1.0000
  H   H123      1.0  0.11524  0.40712  0.54697  1.0000
  H   H124      1.0  0.12387  0.42323  0.56137  1.0000
  H   H125      1.0  0.11505  0.40153  0.57208  1.0000
  H   H126      1.0  0.16672  0.39208  0.57313  1.0000
  H   H127      1.0  0.15358  0.41402  0.57748  1.0000
  H   H128      1.0  0.14463  0.39203  0.58702  1.0000
  H   H129      1.0  0.14571  0.40768  0.52760  1.0000
  H   H130      1.0  0.16736  0.40112  0.53852  1.0000
  H   H131      1.0  0.15410  0.42307  0.54284  1.0000
  H   H132      1.0  0.15483  0.37084  0.55124  1.0000
  H   H133      1.0  0.13271  0.37725  0.54120  1.0000
  H   H134      1.0  0.13330  0.37066  0.56600  1.0000
  H   H135      1.0  0.13556  0.24845  0.43003  1.0000
  H   H136      1.0  0.17070  0.08704  0.45700  1.0000
  H   H137      1.0  0.10957  0.27011  0.44312  1.0000
  N   N7        1.0  0.17232  0.20982  0.56587  1.0000
  C   C110      1.0  0.16074  0.22401  0.55449  1.0000
  C   C111      1.0  0.16331  0.19175  0.56804  1.0000
  C   C112      1.0  0.19129  0.20708  0.55621  1.0000
  H   H138      1.0  0.16707  0.23786  0.55266  1.0000
  H   H139      1.0  0.14630  0.22632  0.56138  1.0000
  H   H140      1.0  0.15930  0.21943  0.54017  1.0000
  H   H141      1.0  0.17167  0.18080  0.57657  1.0000
  H   H142      1.0  0.14904  0.19318  0.57546  1.0000
  H   H143      1.0  0.19858  0.22037  0.55432  1.0000
  H   H144      1.0  0.19063  0.20189  0.54199  1.0000
  N   N8        1.0  0.03905  0.04092  0.40091  1.0000
  N   N9        1.0  0.05716  0.24069  0.34080  1.0000
  C   C113      1.0  0.10990  0.00151  0.51674  1.0000
  H   H145      1.0  0.03019  0.02327  0.42557  1.0000
  H   H146      1.0  0.23194  0.15328  0.37751  1.0000
  C   C114      1.0  0.14567  0.07556  0.56223  1.0000
  H   H147      1.0  0.15351  0.06251  0.56814  1.0000
  H   H148      1.0  0.15588  0.08383  0.55298  1.0000
  H   H149      1.0  0.14076  0.08402  0.57429  1.0000
  H   H150      1.0  0.12320  0.01326  0.63642  1.0000
  H   H151      1.0  0.03200  0.25842  0.33528  1.0000
  H   H152      1.0  0.14449  0.07113  0.44761  1.0000
  H   H153      1.0  0.12639  0.28675  0.44652  1.0000
  C   C115      1.0  0.11550  0.27088  0.40542  1.0000
  H   H154      1.0  0.03589  0.30822  0.64482  1.0000
  C   C116      1.0  0.17390  0.21643  0.58473  1.0000
  H   H155      1.0  0.16211  0.18614  0.55412  1.0000
  H   H156      1.0  0.18190  0.20571  0.59400  1.0000
  H   H157      1.0  0.15978  0.21915  0.59215  1.0000
  H   H158      1.0  0.20037  0.19635  0.56434  1.0000
  H   H159      1.0  0.21340  0.09215  0.63095  1.0000
  C   C117      1.0  0.02367  0.30096  0.65038  1.0000
  H   H160      1.0  0.03236  0.41541  0.42912  1.0000
  C   C118      1.0  0.01196  0.38370  0.51539  1.0000
  H   H161      1.0  0.03782  0.37281  0.42423  1.0000
  H   H162      1.0  0.07245  0.26541  0.33784  1.0000
  H   H163      1.0  0.12969  0.09700  0.53384  1.0000
  H   H164      1.0  0.05981  0.03887  0.42151  1.0000
  H   H165      1.0  0.23953  0.12442  0.65840  1.0000
  H   H166      1.0  0.18116  0.22972  0.58379  1.0000
  H   H167      1.0  0.12335  0.04745  0.57157  1.0000
  H   H168      1.0  0.05826  0.22210  0.36635  1.0000
  C   C119      1.0  0.22814  0.09320  0.63452  1.0000
  H   H169      1.0  0.08050  0.22410  0.35287  1.0000
  N   N10       1.0  0.12973  0.07107  0.55181  1.0000
  C   C120      1.0  0.11635  0.06058  0.56483  1.0000
  H   H170      1.0  0.19446  0.06300  0.42860  1.0000
  C   C121      1.0  0.17888  0.06265  0.43049  1.0000
  H   H171      1.0  0.12520  0.05604  0.52791  1.0000
  H   H172      1.0  0.10782  0.08588  0.53600  1.0000
  C   C122      1.0  0.13684  0.05935  0.53634  1.0000
  Fe  Fe27      1.0  0.10807  0.00522  0.56285  1.0000
  H   H173      1.0  0.17786  0.02825  0.44898  1.0000
  H   H174      1.0  0.10449  0.05631  0.55730  1.0000
  H   H175      1.0  0.03335  0.01601  0.60379  1.0000
  Fe  Fe28      1.0  0.11774  0.28276  0.65761  1.0000
  N   N11       1.0  0.04773  0.39144  0.44274  1.0000
  H   H176      1.0  0.10829  0.25819  0.41138  1.0000
  H   H177      1.0  0.06287  0.37084  0.42596  1.0000
  H   H178      1.0  0.14738  0.06654  0.52650  1.0000
  H   H179      1.0  0.17301  0.07017  0.47709  1.0000
  H   H180      1.0  0.17685  0.03581  0.47245  1.0000
  H   H181      1.0  0.17464  0.05225  0.42119  1.0000
  H   H182      1.0  0.19295  0.07449  0.46070  1.0000
  C   C123      1.0  0.18146  0.03970  0.45740  1.0000
  H   H183      1.0  0.02974  0.24181  0.35578  1.0000
  H   H184      1.0  0.24421  0.04859  0.62568  1.0000
  C   C124      1.0  0.17750  0.07301  0.46186  1.0000
  H   H185      1.0  0.03646  0.01181  0.52039  1.0000
  H   H186      1.0  0.08373  0.49501  0.49578  1.0000
  H   H187      1.0  0.09646  0.00240  0.47176  1.0000
  C   C125      1.0  0.15173  0.05723  0.45206  1.0000
  H   H188      1.0  0.19707  0.03992  0.45639  1.0000
  H   H189      1.0  0.02356  0.06752  0.39438  1.0000
  S   S49       1.0  0.12412  0.31272  0.66155  1.0000
  H   H190      1.0  0.23440  0.05705  0.64764  1.0000
  H   H191      1.0  0.05942  0.02972  0.38014  1.0000
  H   H192      1.0  0.01974  0.04940  0.37947  1.0000
  H   H193      1.0  0.12766  0.30541  0.40595  1.0000
  H   H194      1.0  0.21540  0.17352  0.37517  1.0000
  H   H195      1.0  0.00435  0.31927  0.63397  1.0000
  H   H196      1.0  0.14749  0.29845  0.41959  1.0000
  C   C126      1.0  0.06705  0.23203  0.35731  1.0000
  C   C127      1.0  0.00300  0.01547  0.60479  1.0000
  N   N12       1.0  0.24118  0.07877  0.62585  1.0000
  H   H197      1.0  0.01792  0.39767  0.44079  1.0000
  H   H198      1.0  0.05202  0.39072  0.41257  1.0000
  H   H199      1.0  0.06316  0.41008  0.45671  1.0000
  H   H200      1.0  0.06719  0.41185  0.43148  1.0000
  C   C128      1.0  0.03098  0.99945  0.52916  1.0000
  H   H201      1.0  0.04715  0.06152  0.41845  1.0000
  H   H202      1.0  0.23192  0.10765  0.62941  1.0000
  H   H203      1.0  0.15084  0.25683  0.41048  1.0000
  C   C129      1.0  0.13794  0.29335  0.40986  1.0000
  C   C130      1.0  0.10588  0.00867  0.49840  1.0000
  C   C131      1.0  0.06460  0.40180  0.44412  1.0000
  H   H204      1.0  0.22828  0.09184  0.65020  1.0000
  C   C132      1.0  0.03056  0.05534  0.38720  1.0000
  H   H205      1.0  0.04367  0.38541  0.47282  1.0000
  H   H206      1.0  0.22028  0.05859  0.62760  1.0000
  C   C133      1.0  0.03097  0.40497  0.44165  1.0000
  H   H207      1.0  0.12130  0.46082  0.48287  1.0000
  H   H208      1.0  0.05464  0.01396  0.40065  1.0000
  C   C134      1.0  0.13612  0.00351  0.63765  1.0000
  C   C135      1.0  0.00574  0.30718  0.64423  1.0000
  N   N13       1.0  0.12827  0.27687  0.41872  1.0000
  H   H209      1.0  0.06387  0.24058  0.65415  1.0000
  S   S50       1.0  0.08693  0.32896  0.34694  1.0000
  C   C136      1.0  0.14238  0.26115  0.42340  1.0000
  C   C137      1.0  0.05018  0.38100  0.42562  1.0000
  C   C138      1.0  0.02172  0.00802  0.60121  1.0000
  H   H210      1.0  0.10693  0.02349  0.49406  1.0000
  C   C139      1.0  0.11724  0.28212  0.43614  1.0000
  H   H211      1.0  0.04249  0.26239  0.35643  1.0000
  H   H212      1.0  0.01678  0.04555  0.42253  1.0000
  H   H213      1.0  0.03234  0.37024  0.45935  1.0000
  C   C140      1.0  0.02421  0.03394  0.41482  1.0000
  H   H214      1.0  0.01341  0.02707  0.40788  1.0000
  H   H215      1.0  0.10440  0.28223  0.40193  1.0000
  S   S51       1.0  0.14215  0.26012  0.65373  1.0000
  H   H216      1.0  0.08740  0.38213  0.65045  1.0000
  S   S52       1.0  0.12826  0.00666  0.58502  1.0000
  H   H217      1.0  0.22606  0.20531  0.37508  1.0000
  H   H218      1.0  0.22592  0.18383  0.40450  1.0000
  C   C141      1.0  0.23023  0.16822  0.37159  1.0000
  H   H219      1.0  0.07080  0.24295  0.36631  1.0000
  H   H220      1.0  0.17337  0.23220  0.65192  1.0000
  H   H221      1.0  0.03774  0.01818  0.38324  1.0000
  C   C142      1.0  0.12214  0.49078  0.48490  1.0000
  H   H222      1.0  0.00146  0.29308  0.38184  1.0000
  H   H223      1.0  0.24353  0.12718  0.35942  1.0000
  H   H224      1.0  0.07552  0.36250  0.66132  1.0000
  C   C143      1.0  0.24071  0.19946  0.37135  1.0000
  C   C144      1.0  0.24059  0.17864  0.40006  1.0000
  C   C145      1.0  0.07909  0.23885  0.65686  1.0000
  H   H225      1.0  0.08369  0.25329  0.65752  1.0000
  C   C146      1.0  0.00589  0.41718  0.49235  1.0000
  C   C147      1.0  0.02578  0.28517  0.66341  1.0000
  N   N14       1.0  0.24370  0.17965  0.37923  1.0000
  H   H226      1.0  0.06142  0.48068  0.51954  1.0000
  H   H227      1.0  0.24288  0.20071  0.35565  1.0000
  H   H228      1.0  0.24292  0.16385  0.40644  1.0000
  H   H229      1.0  0.04354  0.21564  0.33721  1.0000
  H   H230      1.0  0.00348  0.43017  0.48350  1.0000
  H   H231      1.0  0.12310  0.49414  0.46974  1.0000
  H   H232      1.0  0.08472  0.20112  0.66087  1.0000
  H   H233      1.0  0.04257  0.48882  0.50489  1.0000
  H   H234      1.0  0.02629  0.00408  0.54343  1.0000
  H   H235      1.0  0.11695  0.36752  0.66203  1.0000
  Fe  Fe29      1.0  0.07533  0.29130  0.66523  1.0000
  H   H236      1.0  0.04141  0.49461  0.52902  1.0000
  C   C148      1.0  0.05107  0.49283  0.51616  1.0000
  H   H237      1.0  0.06701  0.38591  0.66657  1.0000
  H   H238      1.0  0.11139  0.21871  0.66675  1.0000
  H   H239      1.0  0.23268  0.33397  0.91380  1.0000
  S   S53       1.0  0.02812  0.41349  0.90992  1.0000
  H   H240      1.0  0.24145  0.39161  0.87364  1.0000
  H   H241      1.0  0.04250  0.44796  0.85568  1.0000
  C   C149      1.0  0.20837  0.43962  0.83448  1.0000
  Fe  Fe30      1.0  0.02365  0.38659  0.89751  1.0000
  S   S54       1.0  0.04717  0.36864  0.88305  1.0000
  C   C150      1.0  0.05279  0.43444  0.82153  1.0000
  Fe  Fe31      1.0  0.18278  0.38349  0.81843  1.0000
  S   S55       1.0  0.18443  0.39675  0.78863  1.0000
  S   S56       1.0  0.20824  0.36321  0.82596  1.0000
  Fe  Fe32      1.0  0.14216  0.40038  0.82464  1.0000
  S   S57       1.0  0.14136  0.41421  0.79482  1.0000
  S   S58       1.0  0.11911  0.40892  0.84668  1.0000
  Fe  Fe33      1.0  0.15576  0.38668  0.78595  1.0000
  S   S59       1.0  0.15583  0.37288  0.75786  1.0000
  Fe  Fe34      1.0  0.16992  0.42296  0.79987  1.0000
  S   S60       1.0  0.18103  0.45135  0.78897  1.0000
  S   S61       1.0  0.15454  0.37221  0.81559  1.0000
  S   S62       1.0  0.17036  0.41042  0.82991  1.0000
  Fe  Fe35      1.0  0.10314  0.31147  0.68675  1.0000
  S   S63       1.0  0.09856  0.28098  0.68422  1.0000
  S   S64       1.0  0.10320  0.32411  0.71536  1.0000
  N   N15       1.0  0.24799  0.34805  0.93257  1.0000
  H   H242      1.0  0.09090  0.36590  0.70953  1.0000
  H   H243      1.0  0.17833  0.33517  0.75563  1.0000
  H   H244      1.0  0.21715  0.45693  0.80021  1.0000
  H   H245      1.0  0.20500  0.42723  0.84447  1.0000
  H   H246      1.0  0.04949  0.42956  0.80784  1.0000
  H   H247      1.0  0.05584  0.23655  0.68819  1.0000
  H   H248      1.0  0.16812  0.34539  0.78712  1.0000
  C   C151      1.0  0.14091  0.35925  0.74645  1.0000
  C   C152      1.0  0.14714  0.35303  0.72864  1.0000
  C   C153      1.0  0.13598  0.34212  0.71899  1.0000
  C   C154      1.0  0.11831  0.33734  0.72700  1.0000
  C   C155      1.0  0.11210  0.34354  0.74482  1.0000
  C   C156      1.0  0.12330  0.35437  0.75451  1.0000
  H   H249      1.0  0.16074  0.35668  0.72223  1.0000
  H   H250      1.0  0.14108  0.33735  0.70541  1.0000
  H   H251      1.0  0.09850  0.33990  0.75122  1.0000
  H   H252      1.0  0.11827  0.35897  0.76819  1.0000
  C   C157      1.0  0.22643  0.36460  0.84147  1.0000
  C   C158      1.0  0.13410  0.00359  0.67159  1.0000
  H   H253      1.0  0.23897  0.41682  0.84288  1.0000
  C   C159      1.0  0.22653  0.37938  0.85307  1.0000
  H   H254      1.0  0.07752  0.35304  0.69565  1.0000
  H   H255      1.0  0.21501  0.39018  0.85311  1.0000
  H   H256      1.0  0.20116  0.32321  0.75148  1.0000
  C   C160      1.0  0.17595  0.47273  0.80003  1.0000
  C   C161      1.0  0.16644  0.47312  0.81793  1.0000
  C   C162      1.0  0.00519  0.40302  0.98504  1.0000
  H   H257      1.0  0.16133  0.46030  0.82509  1.0000
  C   C163      1.0  0.06808  0.37893  0.87399  1.0000
  C   C164      1.0  0.07262  0.39603  0.87987  1.0000
  C   C165      1.0  0.08864  0.40463  0.87168  1.0000
  C   C166      1.0  0.10020  0.39637  0.85738  1.0000
  C   C167      1.0  0.09594  0.37905  0.85168  1.0000
  C   C168      1.0  0.07997  0.37030  0.86008  1.0000
  H   H258      1.0  0.06386  0.40262  0.89081  1.0000
  H   H259      1.0  0.09202  0.41788  0.87634  1.0000
  H   H260      1.0  0.10481  0.37251  0.84073  1.0000
  H   H261      1.0  0.07659  0.35700  0.85552  1.0000
  S   S65       1.0  0.00345  0.37658  0.92174  1.0000
  H   H262      1.0  0.06907  0.37644  0.70101  1.0000
  N   N16       1.0  0.22521  0.43530  0.82177  1.0000
  C   C169      1.0  0.20360  0.35124  0.77371  1.0000
  C   C170      1.0  0.18932  0.32533  0.76235  1.0000
  H   H263      1.0  0.21509  0.32511  0.80069  1.0000
  H   H264      1.0  0.18975  0.48948  0.77710  1.0000
  H   H265      1.0  0.20982  0.42378  0.80136  1.0000
  H   H266      1.0  0.10718  0.39346  0.69471  1.0000
  C   C171      1.0  0.10924  0.36262  0.67555  1.0000
  H   H267      1.0  0.15636  0.49025  0.84060  1.0000
  H   H268      1.0  0.06809  0.43075  0.82318  1.0000
  H   H269      1.0  0.03745  0.48129  0.90047  1.0000
  N   N17       1.0  0.04113  0.42570  0.83752  1.0000
  C   C172      1.0  0.04606  0.43252  0.85535  1.0000
  C   C173      1.0  0.04475  0.40497  0.83836  1.0000
  C   C174      1.0  0.16360  0.49015  0.82669  1.0000
  C   C175      1.0  0.02099  0.43088  0.83486  1.0000
  H   H270      1.0  0.21816  0.40682  0.81959  1.0000
  H   H271      1.0  0.05803  0.47651  0.88510  1.0000
  C   C176      1.0  0.07116  0.23518  0.69051  1.0000
  C   C177      1.0  0.24421  0.34360  0.91340  1.0000
  H   H272      1.0  0.24186  0.32054  0.94552  1.0000
  H   H273      1.0  0.03682  0.39785  0.85074  1.0000
  S   S66       1.0  0.07835  0.32142  0.66978  1.0000
  C   C178      1.0  0.18238  0.48961  0.79095  1.0000
  Fe  Fe36      1.0  0.00608  0.40481  0.93271  1.0000
  C   C179      1.0  0.08196  0.36737  0.69725  1.0000
  H   H274      1.0  0.01667  0.42593  0.82160  1.0000
  H   H275      1.0  0.10548  0.21773  0.69174  1.0000
  H   H276      1.0  0.18307  0.31157  0.76601  1.0000
  H   H277      1.0  0.17304  0.32196  0.79774  1.0000
  H   H278      1.0  0.20463  0.30565  0.79235  1.0000
  H   H279      1.0  0.07885  0.19836  0.68593  1.0000
  H   H280      1.0  0.03827  0.42544  0.86781  1.0000
  H   H281      1.0  0.19306  0.36160  0.76707  1.0000
  C   C180      1.0  0.17939  0.33550  0.79317  1.0000
  H   H282      1.0  0.20823  0.35751  0.78617  1.0000
  H   H283      1.0  0.05048  0.45009  0.82052  1.0000
  H   H284      1.0  0.01771  0.44644  0.83437  1.0000
  C   C181      1.0  0.22174  0.41973  0.81045  1.0000
  C   C182      1.0  0.00970  0.27587  0.67040  1.0000
  C   C183      1.0  0.21016  0.31962  0.78788  1.0000
  H   H285      1.0  0.21596  0.34980  0.76334  1.0000
  C   C184      1.0  0.23096  0.35766  0.94152  1.0000
  C   C185      1.0  0.09795  0.39409  0.68270  1.0000
  H   H286      1.0  0.04061  0.39917  0.82544  1.0000
  H   H287      1.0  0.18360  0.34134  0.80607  1.0000
  H   H288      1.0  0.05993  0.47653  0.91015  1.0000
  H   H289      1.0  0.22267  0.31732  0.77783  1.0000
  H   H290      1.0  0.05994  0.40068  0.83972  1.0000
  H   H291      1.0  0.07512  0.24964  0.69224  1.0000
  N   N18       1.0  0.19563  0.33290  0.77926  1.0000
  S   S67       1.0  0.04825  0.27615  0.67080  1.0000
  C   C186      1.0  0.00095  0.47094  0.89295  1.0000
  H   H292      1.0  0.10779  0.24006  0.67829  1.0000
  H   H293      1.0  0.11908  0.36163  0.68703  1.0000
  C   C187      1.0  0.00221  0.46592  0.91231  1.0000
  H   H294      1.0  0.23170  0.46436  0.81703  1.0000
  H   H295      1.0  0.01187  0.42462  0.84679  1.0000
  H   H296      1.0  0.21025  0.45160  0.84294  1.0000
  C   C188      1.0  0.05266  0.48369  0.89788  1.0000
  H   H297      1.0  0.06134  0.42977  0.85732  1.0000
  H   H298      1.0  0.00535  0.45138  0.91744  1.0000
  H   H299      1.0  0.08549  0.40397  0.68591  1.0000
  H   H300      1.0  0.19578  0.44368  0.82630  1.0000
  H   H301      1.0  0.21887  0.34862  0.94275  1.0000
  H   H302      1.0  0.12125  0.01355  0.67123  1.0000
  S   S68       1.0  0.00763  0.41467  0.96203  1.0000
  N   N19       1.0  0.09227  0.37516  0.67985  1.0000
  C   C189      1.0  0.22920  0.45226  0.80899  1.0000
  H   H303      1.0  0.07312  0.22654  0.70412  1.0000
  H   H304      1.0  0.01115  0.26364  0.68047  1.0000
  H   H305      1.0  0.24174  0.44953  0.79909  1.0000
  C   C190      1.0  0.99992  0.47982  0.92513  1.0000
  C   C191      1.0  0.24149  0.38008  0.86478  1.0000
  H   H306      1.0  0.10552  0.34807  0.67408  1.0000
  H   H307      1.0  0.00123  0.47587  0.94004  1.0000
  H   H308      1.0  0.24015  0.35660  0.90430  1.0000
  N   N20       1.0  0.08237  0.22691  0.67456  1.0000
  Fe  Fe37      1.0  0.00397  0.42541  0.89334  1.0000
  H   H309      1.0  0.23341  0.36119  0.95601  1.0000
  C   C192      1.0  0.10260  0.22579  0.67801  1.0000
  H   H310      1.0  0.06136  0.20817  0.67019  1.0000
  H   H311      1.0  0.00128  0.37556  0.97645  1.0000
  H   H312      1.0  0.10590  0.40029  0.66987  1.0000
  H   H313      1.0  0.22670  0.37106  0.93314  1.0000
  H   H314      1.0  0.24448  0.44098  0.84195  1.0000
  C   C193      1.0  0.07657  0.20777  0.67282  1.0000
  S   S69       1.0  0.00476  0.45366  0.87685  1.0000
  H   H315      1.0  0.23426  0.41581  0.80094  1.0000
  C   C194      1.0  0.24150  0.42961  0.83315  1.0000
  C   C195      1.0  0.00187  0.38390  0.98830  1.0000
  C   C196      1.0  0.24130  0.35038  0.84207  1.0000
  H   H316      1.0  0.00878  0.42838  0.99820  1.0000
  H   H317      1.0  0.24136  0.33880  0.83327  1.0000
  S   S70       1.0  0.00069  0.39923  0.87930  1.0000
  H   H318      1.0  0.14644  0.01225  0.67102  1.0000
  Fe  Fe38      1.0  0.03898  0.58384  0.09884  1.0000
  S   S71       1.0  0.06948  0.59046  0.09929  1.0000
  C   C197      1.0  0.24352  0.60282  0.14472  1.0000
  S   S72       1.0  0.03688  0.55625  0.08690  1.0000
  Fe  Fe39      1.0  0.17956  0.59277  0.17750  1.0000
  S   S73       1.0  0.17810  0.57162  0.20317  1.0000
  S   S74       1.0  0.20881  0.59452  0.16167  1.0000
  Fe  Fe40      1.0  0.13635  0.59969  0.17931  1.0000
  S   S75       1.0  0.13268  0.57942  0.20501  1.0000
  S   S76       1.0  0.10798  0.61316  0.17079  1.0000
  Fe  Fe41      1.0  0.15658  0.59297  0.21577  1.0000
  S   S77       1.0  0.15534  0.59891  0.24710  1.0000
  Fe  Fe42      1.0  0.15414  0.56012  0.19018  1.0000
  S   S78       1.0  0.14617  0.53104  0.18401  1.0000
  S   S79       1.0  0.15925  0.61463  0.19087  1.0000
  S   S80       1.0  0.15669  0.57997  0.16382  1.0000
  C   C198      1.0  0.02342  0.69025  0.33310  1.0000
  C   C199      1.0  0.22833  0.61776  0.23512  1.0000
  S   S81       1.0  0.12641  0.66991  0.29377  1.0000
  C   C200      1.0  0.13405  0.64985  0.28108  1.0000
  C   C201      1.0  0.13501  0.63141  0.28973  1.0000
  C   C202      1.0  0.14154  0.61608  0.27912  1.0000
  C   C203      1.0  0.14696  0.61885  0.25968  1.0000
  C   C204      1.0  0.14602  0.63730  0.25102  1.0000
  C   C205      1.0  0.13960  0.65264  0.26165  1.0000
  H   H319      1.0  0.13091  0.62897  0.30465  1.0000
  H   H320      1.0  0.14235  0.60193  0.28609  1.0000
  H   H321      1.0  0.15052  0.63983  0.23623  1.0000
  H   H322      1.0  0.13906  0.66683  0.25481  1.0000
  C   C206      1.0  0.22687  0.61006  0.15429  1.0000
  C   C207      1.0  0.16850  0.72442  0.29665  1.0000
  C   C208      1.0  0.15358  0.50777  0.19286  1.0000
  C   C209      1.0  0.22529  0.62912  0.15780  1.0000
  C   C210      1.0  0.08208  0.63901  0.21964  1.0000
  H   H323      1.0  0.22026  0.62025  0.19882  1.0000
  H   H324      1.0  0.21255  0.63501  0.16492  1.0000
  C   C211      1.0  0.07965  0.59555  0.11997  1.0000
  C   C212      1.0  0.06882  0.60315  0.13505  1.0000
  C   C213      1.0  0.07764  0.60825  0.15067  1.0000
  C   C214      1.0  0.09726  0.60533  0.15159  1.0000
  C   C215      1.0  0.10797  0.59706  0.13683  1.0000
  C   C216      1.0  0.09923  0.59245  0.12098  1.0000
  H   H325      1.0  0.05375  0.60574  0.13436  1.0000
  H   H326      1.0  0.06924  0.61475  0.16196  1.0000
  H   H327      1.0  0.12309  0.59484  0.13730  1.0000
  H   H328      1.0  0.10773  0.58664  0.10936  1.0000
  H   H329      1.0  0.08440  0.55193  0.11673  1.0000
  H   H330      1.0  0.13087  0.72629  0.29672  1.0000
  C   C217      1.0  0.16502  0.50401  0.20807  1.0000
  H   H331      1.0  0.03660  0.62245  0.04024  1.0000
  H   H332      1.0  0.06773  0.63668  0.22623  1.0000
  H   H333      1.0  0.11907  0.64378  0.22133  1.0000
  H   H334      1.0  0.03285  0.55405  0.00190  1.0000
  C   C218      1.0  0.09635  0.62824  0.24884  1.0000
  H   H335      1.0  0.08192  0.63734  0.20421  1.0000
  N   N21       1.0  0.09648  0.62570  0.22844  1.0000
  H   H336      1.0  0.07946  0.59156  0.05173  1.0000
  H   H337      1.0  0.08483  0.65391  0.22114  1.0000
  C   C219      1.0  0.19567  0.62544  0.22911  1.0000
  C   C220      1.0  0.11520  0.62939  0.21920  1.0000
  H   H338      1.0  0.09285  0.60363  0.21070  1.0000
  C   C221      1.0  0.00555  0.69518  0.32606  1.0000
  H   H339      1.0  0.22556  0.62064  0.25023  1.0000
  S   S82       1.0  0.01880  0.56123  0.03924  1.0000
  H   H340      1.0  0.07820  0.60294  0.23243  1.0000
  H   H341      1.0  0.06939  0.53335  0.11421  1.0000
  Fe  Fe43      1.0  0.01440  0.57063  0.06916  1.0000
  H   H342      1.0  0.10285  0.59573  0.23270  1.0000
  C   C222      1.0  0.09238  0.60614  0.22597  1.0000
  H   H343      1.0  0.12628  0.61903  0.22485  1.0000
  N   N22       1.0  0.15491  0.72659  0.31317  1.0000
  C   C223      1.0  0.02283  0.56624  0.00071  1.0000
  C   C224      1.0  0.01062  0.51044  0.09226  1.0000
  C   C225      1.0  0.07129  0.61784  0.02342  1.0000
  C   C226      1.0  0.24647  0.64756  0.06292  1.0000
  H   H344      1.0  0.22750  0.59613  0.20581  1.0000
  H   H345      1.0  0.08237  0.62579  0.25629  1.0000
  H   H346      1.0  0.00670  0.50020  0.06543  1.0000
  H   H347      1.0  0.05947  0.55558  0.12157  1.0000
  H   H348      1.0  0.11564  0.62830  0.20370  1.0000
  H   H349      1.0  0.10697  0.61822  0.25587  1.0000
  H   H350      1.0  0.09976  0.64274  0.25129  1.0000
  C   C227      1.0  0.24026  0.64062  0.15205  1.0000
  H   H351      1.0  0.16986  0.51559  0.21470  1.0000
  C   C228      1.0  0.07169  0.54497  0.12299  1.0000
  H   H352      1.0  0.23891  0.65530  0.15496  1.0000
  H   H353      1.0  0.05424  0.57451  0.02642  1.0000
  S   S83       1.0  0.01763  0.57790  0.12300  1.0000
  C   C229      1.0  0.07632  0.55401  0.15404  1.0000
  H   H354      1.0  0.16314  0.73225  0.28365  1.0000
  H   H355      1.0  0.05380  0.51695  0.14234  1.0000
  Fe  Fe44      1.0  0.01405  0.55137  0.10949  1.0000
  H   H356      1.0  0.23367  0.63151  0.10827  1.0000
  C   C230      1.0  0.20654  0.59335  0.23872  1.0000
  H   H357      1.0  0.18224  0.72984  0.29896  1.0000
  H   H358      1.0  0.03486  0.61397  0.01740  1.0000
  H   H359      1.0  0.08854  0.51183  0.13615  1.0000
  Fe  Fe45      1.0  0.11465  0.67227  0.32466  1.0000
  S   S84       1.0  0.01804  0.59883  0.07952  1.0000
  N   N23       1.0  0.05940  0.60275  0.03167  1.0000
  C   C231      1.0  0.06246  0.58642  0.02014  1.0000
  H   H360      1.0  0.16461  0.75295  0.31951  1.0000
  C   C232      1.0  0.06440  0.59680  0.05121  1.0000
  H   H361      1.0  0.08649  0.61292  0.02300  1.0000
  H   H362      1.0  0.06189  0.60861  0.06051  1.0000
  H   H363      1.0  0.19901  0.63901  0.22106  1.0000
  H   H364      1.0  0.05800  0.59012  0.00552  1.0000
  H   H365      1.0  0.13894  0.70366  0.30753  1.0000
  H   H366      1.0  0.14569  0.75518  0.30391  1.0000
  H   H367      1.0  0.20299  0.59559  0.25390  1.0000
  C   C233      1.0  0.21593  0.60738  0.20757  1.0000
  C   C234      1.0  0.03939  0.60993  0.03194  1.0000
  H   H368      1.0  0.19172  0.62823  0.24410  1.0000
  C   C235      1.0  0.05638  0.52897  0.15052  1.0000
  H   H369      1.0  0.05589  0.58519  0.05774  1.0000
  H   H370      1.0  0.19393  0.58790  0.23353  1.0000
  N   N24       1.0  0.07363  0.53800  0.14299  1.0000
  H   H371      1.0  0.18291  0.62078  0.22341  1.0000
  H   H372      1.0  0.12630  0.72074  0.32158  1.0000
  H   H373      1.0  0.05723  0.52346  0.16558  1.0000
  H   H374      1.0  0.07776  0.54933  0.16924  1.0000
  H   H375      1.0  0.17117  0.70932  0.29376  1.0000
  H   H376      1.0  0.21875  0.64180  0.09029  1.0000
  C   C236      1.0  0.01357  0.50559  0.11134  1.0000
  H   H377      1.0  0.23245  0.61988  0.08716  1.0000
  H   H378      1.0  0.24062  0.60716  0.23416  1.0000
  H   H379      1.0  0.09202  0.51860  0.15927  1.0000
  H   H380      1.0  0.21816  0.58203  0.23789  1.0000
  N   N25       1.0  0.21162  0.61098  0.22763  1.0000
  C   C237      1.0  0.01399  0.57340  0.01714  1.0000
  C   C238      1.0  0.13701  0.71899  0.30956  1.0000
  H   H381      1.0  0.24497  0.58810  0.14197  1.0000
  H   H382      1.0  0.14112  0.74890  0.32866  1.0000
  C   C239      1.0  0.15148  0.74679  0.31639  1.0000
  H   H383      1.0  0.04367  0.53907  0.14958  1.0000
  H   H384      1.0  0.08926  0.56110  0.14874  1.0000
  H   H385      1.0  0.23484  0.67158  0.08927  1.0000
  S   S85       1.0  0.01513  0.52331  0.12652  1.0000
  H   H386      1.0  0.03010  0.59905  0.03856  1.0000
  H   H387      1.0  0.10333  0.53052  0.13874  1.0000
  H   H388      1.0  0.06426  0.56489  0.15314  1.0000
  C   C240      1.0  0.09009  0.52411  0.14434  1.0000
  C   C241      1.0  0.23258  0.63395  0.09268  1.0000
  H   H389      1.0  0.07751  0.58102  0.01911  1.0000
  H   H390      1.0  0.20350  0.60276  0.20127  1.0000
  C   C242      1.0  0.16266  0.71609  0.33008  1.0000
  H   H391      1.0  0.06933  0.63034  0.03185  1.0000
  H   H392      1.0  0.16572  0.70084  0.32805  1.0000
  H   H393      1.0  0.23257  0.63104  0.22703  1.0000
  S   S86       1.0  0.09350  0.69684  0.33049  1.0000
  H   H394      1.0  0.03562  0.69713  0.32684  1.0000
  H   H395      1.0  0.00944  0.52506  0.08677  1.0000
  H   H396      1.0  0.24662  0.63396  0.05639  1.0000
  H   H397      1.0  0.23319  0.65604  0.05963  1.0000
  H   H398      1.0  0.06779  0.62266  0.00868  1.0000
  H   H399      1.0  0.00944  0.52848  0.00188  1.0000
  H   H400      1.0  0.00419  0.70588  0.31435  1.0000
  C   C243      1.0  0.00128  0.58932  0.01542  1.0000
  N   N26       1.0  0.24834  0.64444  0.08354  1.0000
  C   C244      1.0  0.24819  0.66283  0.09157  1.0000
  Fe  Fe46      1.0  0.09544  0.59471  0.49054  1.0000
  S   S87       1.0  0.12473  0.58326  0.49640  1.0000
  S   S88       1.0  0.08769  0.61993  0.46997  1.0000
  Fe  Fe47      1.0  0.07873  0.57001  0.52411  1.0000
  S   S89       1.0  0.10679  0.55734  0.53295  1.0000
  S   S90       1.0  0.05194  0.56040  0.53886  1.0000
  Fe  Fe48      1.0  0.11569  0.58712  0.52701  1.0000
  S   S91       1.0  0.13256  0.60575  0.54261  1.0000
  Fe  Fe49      1.0  0.11279  0.55476  0.50175  1.0000
  S   S92       1.0  0.12363  0.52882  0.48690  1.0000
  S   S93       1.0  0.08691  0.59970  0.52082  1.0000
  S   S94       1.0  0.08414  0.56610  0.49332  1.0000
  H   H401      1.0  0.02475  0.65151  0.61002  1.0000
  S   S95       1.0  0.09285  0.95690  0.42291  1.0000
  H   H402      1.0  0.03596  0.98672  0.42773  1.0000
  H   H403      1.0  0.07540  0.61320  0.37918  1.0000
  H   H404      1.0  0.07452  0.61518  0.42146  1.0000
  Fe  Fe50      1.0  0.11811  0.97171  0.41091  1.0000
  S   S96       1.0  0.14434  0.95618  0.39814  1.0000
  Fe  Fe51      1.0  0.09315  0.97533  0.44665  1.0000
  S   S97       1.0  0.08913  0.96300  0.47658  1.0000
  C   C245      1.0  0.02850  0.97917  0.40087  1.0000
  H   H405      1.0  0.12213  0.80388  0.59819  1.0000
  C   C246      1.0  0.08088  0.92608  0.38779  1.0000
  S   S98       1.0  0.09948  0.97649  0.57397  1.0000
  H   H406      1.0  0.08225  0.50324  0.52949  1.0000
  C   C247      1.0  0.07171  0.51497  0.52545  1.0000
  H   H407      1.0  0.09141  0.92216  0.39847  1.0000
  Fe  Fe52      1.0  0.11754  0.97924  0.59779  1.0000
  S   S99       1.0  0.13881  0.95798  0.61155  1.0000
  C   C248      1.0  0.03925  0.62189  0.39150  1.0000
  Fe  Fe53      1.0  0.18324  0.85686  0.59007  1.0000
  S   S100      1.0  0.21297  0.86077  0.57904  1.0000
  S   S101      1.0  0.15730  0.87602  0.58324  1.0000
  Fe  Fe54      1.0  0.19272  0.81706  0.60815  1.0000
  S   S102      1.0  0.22380  0.81786  0.59875  1.0000
  S   S103      1.0  0.17478  0.79666  0.62743  1.0000
  Fe  Fe55      1.0  0.22167  0.84772  0.60749  1.0000
  C   C249      1.0  0.02091  0.59172  0.50074  1.0000
  Fe  Fe56      1.0  0.21366  0.83113  0.57075  1.0000
  S   S104      1.0  0.22914  0.82563  0.54223  1.0000
  S   S105      1.0  0.19147  0.84602  0.61903  1.0000
  S   S106      1.0  0.18316  0.82807  0.57957  1.0000
  Fe  Fe57      1.0  0.18652  0.80337  0.40082  1.0000
  S   S107      1.0  0.21260  0.80572  0.41621  1.0000
  S   S108      1.0  0.17943  0.77261  0.39864  1.0000
  Fe  Fe58      1.0  0.17779  0.84678  0.39964  1.0000
  S   S109      1.0  0.20319  0.85169  0.41488  1.0000
  S   S110      1.0  0.15187  0.86712  0.39635  1.0000
  Fe  Fe59      1.0  0.21844  0.83096  0.39553  1.0000
  C   C250      1.0  0.05121  0.97757  0.51137  1.0000
  Fe  Fe60      1.0  0.19569  0.82615  0.43417  1.0000
  S   S111      1.0  0.18747  0.82455  0.46597  1.0000
  S   S112      1.0  0.19320  0.82742  0.37906  1.0000
  S   S113      1.0  0.16948  0.82249  0.41989  1.0000
  Fe  Fe61      1.0  0.10997  0.65633  0.63857  1.0000
  S   S114      1.0  0.10202  0.68488  0.62440  1.0000
  S   S115      1.0  0.10644  0.62897  0.62551  1.0000
  Fe  Fe62      1.0  0.12542  0.69541  0.63924  1.0000
  S   S116      1.0  0.14809  0.71340  0.62369  1.0000
  S   S117      1.0  0.13504  0.66605  0.65130  1.0000
  Fe  Fe63      1.0  0.11476  0.65962  0.36707  1.0000
  S   S118      1.0  0.09402  0.68313  0.37553  1.0000
  S   S119      1.0  0.12688  0.63637  0.38761  1.0000
  N   N27       1.0  0.06060  0.51024  0.51010  1.0000
  H   H408      1.0  0.01844  0.71141  0.63013  1.0000
  Fe  Fe64      1.0  0.11114  0.70167  0.35457  1.0000
  S   S120      1.0  0.11751  0.73224  0.35855  1.0000
  H   H409      1.0  0.02705  0.62152  0.40222  1.0000
  S   S121      1.0  0.13301  0.67839  0.34749  1.0000
  H   H410      1.0  0.14192  0.89990  0.46207  1.0000
  H   H411      1.0  0.14653  0.80839  0.59805  1.0000
  H   H412      1.0  0.13972  0.83963  0.58032  1.0000
  H   H413      1.0  0.04144  0.64530  0.41875  1.0000
  H   H414      1.0  0.17929  0.86351  0.47689  1.0000
  C   C251      1.0  0.09967  0.95013  0.37173  1.0000
  H   H415      1.0  0.06471  0.94889  0.36074  1.0000
  C   C252      1.0  0.00311  0.58486  0.50454  1.0000
  C   C253      1.0  0.16208  0.76177  0.38725  1.0000
  C   C254      1.0  0.14810  0.77220  0.37716  1.0000
  C   C255      1.0  0.13460  0.76292  0.36865  1.0000
  C   C256      1.0  0.13479  0.74307  0.37005  1.0000
  C   C257      1.0  0.14884  0.73262  0.38004  1.0000
  C   C258      1.0  0.16233  0.74191  0.38857  1.0000
  H   H416      1.0  0.14761  0.78745  0.37598  1.0000
  C   C259      1.0  0.00586  0.98926  0.42584  1.0000
  H   H417      1.0  0.14926  0.71738  0.38133  1.0000
  H   H418      1.0  0.17304  0.73361  0.39628  1.0000
  C   C260      1.0  0.16706  0.77376  0.62550  1.0000
  C   C261      1.0  0.15273  0.76703  0.63850  1.0000
  C   C262      1.0  0.14631  0.74890  0.63783  1.0000
  C   C263      1.0  0.15447  0.73701  0.62439  1.0000
  C   C264      1.0  0.16876  0.74376  0.61136  1.0000
  C   C265      1.0  0.17489  0.76205  0.61177  1.0000
  H   H419      1.0  0.14655  0.77592  0.64921  1.0000
  H   H420      1.0  0.13518  0.74408  0.64783  1.0000
  H   H421      1.0  0.17519  0.73474  0.60087  1.0000
  H   H422      1.0  0.18594  0.76692  0.60168  1.0000
  C   C266      1.0  0.21746  0.82591  0.52097  1.0000
  C   C267      1.0  0.22813  0.82460  0.50359  1.0000
  C   C268      1.0  0.21929  0.82447  0.48651  1.0000
  C   C269      1.0  0.19964  0.82542  0.48671  1.0000
  C   C270      1.0  0.18901  0.82674  0.50407  1.0000
  C   C271      1.0  0.19783  0.82711  0.52107  1.0000
  H   H423      1.0  0.10697  0.95565  0.35822  1.0000
  H   H424      1.0  0.22768  0.82342  0.47329  1.0000
  H   H425      1.0  0.08168  0.94341  0.34169  1.0000
  Fe  Fe65      1.0  0.07645  0.99231  0.59096  1.0000
  C   C272      1.0  0.12096  0.50081  0.51652  1.0000
  Fe  Fe66      1.0  0.08366  0.68925  0.65104  1.0000
  C   C273      1.0  0.14415  0.93544  0.60312  1.0000
  C   C274      1.0  0.13344  0.92883  0.58984  1.0000
  C   C275      1.0  0.13772  0.91063  0.58383  1.0000
  C   C276      1.0  0.15285  0.89896  0.59087  1.0000
  C   C277      1.0  0.16367  0.90561  0.60405  1.0000
  C   C278      1.0  0.15926  0.92374  0.61022  1.0000
  H   H426      1.0  0.12175  0.93765  0.58432  1.0000
  H   H427      1.0  0.12929  0.90560  0.57364  1.0000
  H   H428      1.0  0.17534  0.89673  0.60960  1.0000
  H   H429      1.0  0.16762  0.92873  0.62050  1.0000
  C   C279      1.0  0.15094  0.89164  0.39828  1.0000
  C   C280      1.0  0.16585  0.90247  0.39145  1.0000
  C   C281      1.0  0.16380  0.92225  0.39175  1.0000
  C   C282      1.0  0.14702  0.93125  0.39925  1.0000
  C   C283      1.0  0.13249  0.92028  0.40686  1.0000
  C   C284      1.0  0.13429  0.90062  0.40603  1.0000
  H   H430      1.0  0.17868  0.89571  0.38527  1.0000
  H   H431      1.0  0.17514  0.93063  0.38585  1.0000
  H   H432      1.0  0.11976  0.92695  0.41313  1.0000
  H   H433      1.0  0.12272  0.89230  0.41139  1.0000
  C   C285      1.0  0.09800  0.97769  0.49157  1.0000
  C   C286      1.0  0.00041  0.57037  0.51889  1.0000
  H   H434      1.0  0.19379  0.86610  0.45530  1.0000
  N   N28       1.0  0.05645  0.62661  0.39977  1.0000
  H   H435      1.0  0.06535  0.50419  0.48097  1.0000
  C   C287      1.0  0.10245  0.97047  0.50974  1.0000
  H   H436      1.0  0.13736  0.99485  0.62534  1.0000
  C   C288      1.0  0.01536  0.56308  0.52967  1.0000
  C   C289      1.0  0.07541  0.93786  0.35569  1.0000
  S   S122      1.0  0.10648  0.70196  0.66487  1.0000
  S   S123      1.0  0.11973  0.98852  0.43589  1.0000
  H   H437      1.0  0.19520  0.68640  0.65624  1.0000
  H   H438      1.0  0.07054  0.93699  0.39361  1.0000
  H   H439      1.0  0.17174  0.68635  0.64887  1.0000
  S   S124      1.0  0.04736  0.66969  0.35812  1.0000
  C   C290      1.0  0.10859  0.98234  0.52222  1.0000
  H   H440      1.0  0.11051  0.94719  0.38221  1.0000
  C   C291      1.0  0.12203  0.50533  0.49694  1.0000
  H   H441      1.0  0.06254  0.51804  0.53834  1.0000
  H   H442      1.0  0.04963  0.58963  0.50823  1.0000
  C   C292      1.0  0.09998  0.62468  0.44780  1.0000
  C   C293      1.0  0.11316  0.61147  0.44003  1.0000
  C   C294      1.0  0.12166  0.61540  0.42172  1.0000
  C   C295      1.0  0.11703  0.63250  0.41109  1.0000
  C   C296      1.0  0.10427  0.64590  0.41914  1.0000
  C   C297      1.0  0.09577  0.64199  0.43741  1.0000
  H   H443      1.0  0.11651  0.59808  0.44791  1.0000
  H   H444      1.0  0.13159  0.60498  0.41561  1.0000
  H   H445      1.0  0.10083  0.65922  0.41122  1.0000
  H   H446      1.0  0.08566  0.65231  0.44339  1.0000
  C   C298      1.0  0.12427  0.61285  0.56518  1.0000
  C   C299      1.0  0.13111  0.62882  0.57174  1.0000
  C   C300      1.0  0.12538  0.63433  0.58996  1.0000
  C   C301      1.0  0.11315  0.62358  0.60197  1.0000
  C   C302      1.0  0.10628  0.60766  0.59536  1.0000
  C   C303      1.0  0.11156  0.60249  0.57697  1.0000
  H   H447      1.0  0.14108  0.63683  0.56279  1.0000
  H   H448      1.0  0.13088  0.64652  0.59492  1.0000
  H   H449      1.0  0.09709  0.59903  0.60462  1.0000
  H   H450      1.0  0.10636  0.59006  0.57218  1.0000
  H   H451      1.0  0.16699  0.86127  0.43652  1.0000
  N   N29       1.0  0.08996  0.93308  0.36939  1.0000
  C   C304      1.0  0.03594  0.58421  0.51127  1.0000
  C   C305      1.0  0.03314  0.56997  0.52582  1.0000
  C   C306      1.0  0.18380  0.87393  0.46513  1.0000
  H   H452      1.0  0.06577  0.64951  0.41335  1.0000
  H   H453      1.0  0.02502  0.65921  0.63322  1.0000
  S   S125      1.0  0.24247  0.86518  0.62054  1.0000
  N   N30       1.0  0.12443  0.64791  0.49873  1.0000
  C   C307      1.0  0.13729  0.65590  0.51066  1.0000
  C   C308      1.0  0.13359  0.63034  0.49172  1.0000
  C   C309      1.0  0.12000  0.66149  0.48244  1.0000
  C   C310      1.0  0.10684  0.64379  0.51013  1.0000
  H   H454      1.0  0.13086  0.66914  0.51631  1.0000
  H   H455      1.0  0.15079  0.65906  0.50260  1.0000
  H   H456      1.0  0.14076  0.64577  0.52304  1.0000
  H   H457      1.0  0.14682  0.63291  0.48292  1.0000
  H   H458      1.0  0.13725  0.61979  0.50362  1.0000
  H   H459      1.0  0.12423  0.62377  0.48283  1.0000
  H   H460      1.0  0.11027  0.65565  0.47332  1.0000
  H   H461      1.0  0.13290  0.66479  0.47337  1.0000
  H   H462      1.0  0.11305  0.67495  0.48712  1.0000
  H   H463      1.0  0.09681  0.63764  0.50167  1.0000
  H   H464      1.0  0.09958  0.65672  0.51568  1.0000
  H   H465      1.0  0.10962  0.63351  0.52250  1.0000
  Fe  Fe67      1.0  0.07586  0.98124  0.40882  1.0000
  C   C311      1.0  0.00928  0.66776  0.35626  1.0000
  H   H466      1.0  0.01636  0.97208  0.37586  1.0000
  C   C312      1.0  0.07212  0.62714  0.38496  1.0000
  C   C313      1.0  0.06139  0.61218  0.41522  1.0000
  H   H467      1.0  0.12110  0.51187  0.52592  1.0000
  H   H468      1.0  0.02522  0.96254  0.53620  1.0000
  H   H469      1.0  0.00029  0.60843  0.54845  1.0000
  H   H470      1.0  0.10122  0.95567  0.51413  1.0000
  C   C314      1.0  0.02458  0.98512  0.41900  1.0000
  H   H471      1.0  0.06780  0.92532  0.35350  1.0000
  H   H472      1.0  0.08960  0.96163  0.37672  1.0000
  C   C315      1.0  0.10381  0.91833  0.36240  1.0000
  H   H473      1.0  0.12384  0.77123  0.36100  1.0000
  C   C316      1.0  0.04637  0.52593  0.50573  1.0000
  H   H474      1.0  0.07318  0.91338  0.38651  1.0000
  Fe  Fe68      1.0  0.07813  0.67644  0.35102  1.0000
  H   H475      1.0  0.16528  0.76927  0.44241  1.0000
  H   H476      1.0  0.03659  0.52857  0.51831  1.0000
  C   C317      1.0  0.01678  0.70032  0.64142  1.0000
  H   H477      1.0  0.15255  0.71701  0.34271  1.0000
  N   N31       1.0  0.04952  0.64181  0.62451  1.0000
  C   C318      1.0  0.05456  0.63595  0.64405  1.0000
  C   C319      1.0  0.06004  0.65816  0.61688  1.0000
  C   C320      1.0  0.02909  0.64715  0.62455  1.0000
  C   C321      1.0  0.05445  0.62599  0.61259  1.0000
  H   H478      1.0  0.03289  0.97153  0.55678  1.0000
  H   H479      1.0  0.05151  0.64768  0.65333  1.0000
  H   H480      1.0  0.06983  0.63150  0.64450  1.0000
  H   H481      1.0  0.05647  0.66315  0.60224  1.0000
  H   H482      1.0  0.05696  0.67025  0.62571  1.0000
  H   H483      1.0  0.07550  0.65458  0.61645  1.0000
  S   S126      1.0  0.04837  0.97951  0.59053  1.0000
  H   H484      1.0  0.00296  0.99423  0.43976  1.0000
  H   H485      1.0  0.18261  0.70809  0.64784  1.0000
  H   H486      1.0  0.05110  0.62993  0.59767  1.0000
  H   H487      1.0  0.04681  0.61338  0.61793  1.0000
  H   H488      1.0  0.06978  0.62165  0.61242  1.0000
  S   S127      1.0  0.10117  0.99504  0.39469  1.0000
  H   H489      1.0  0.01253  0.96582  0.58686  1.0000
  H   H490      1.0  0.04664  0.62387  0.65042  1.0000
  C   C322      1.0  0.05302  0.64527  0.40737  1.0000
  C   C323      1.0  0.03240  0.69339  0.65159  1.0000
  H   H491      1.0  0.02067  0.63528  0.63056  1.0000
  H   H492      1.0  0.04127  0.60791  0.38562  1.0000
  C   C324      1.0  0.02538  0.67648  0.34828  1.0000
  C   C325      1.0  0.11880  0.98028  0.65703  1.0000
  C   C326      1.0  0.15768  0.86861  0.44720  1.0000
  H   H493      1.0  0.18224  0.90767  0.44555  1.0000
  H   H494      1.0  0.15298  0.85757  0.45824  1.0000
  H   H495      1.0  0.14514  0.87492  0.43990  1.0000
  N   N32       1.0  0.16750  0.88308  0.45535  1.0000
  H   H496      1.0  0.13357  0.80243  0.61996  1.0000
  H   H497      1.0  0.01054  0.65717  0.36805  1.0000
  H   H498      1.0  0.05763  0.98911  0.50208  1.0000
  H   H499      1.0  0.20960  0.78710  0.45533  1.0000
  H   H500      1.0  0.21597  0.76697  0.47120  1.0000
  C   C327      1.0  0.17411  0.89695  0.44007  1.0000
  H   H501      1.0  0.18332  0.88998  0.42899  1.0000
  H   H502      1.0  0.19174  0.88438  0.47127  1.0000
  H   H503      1.0  0.07952  0.52773  0.52113  1.0000
  H   H504      1.0  0.06382  0.59787  0.41008  1.0000
  C   C328      1.0  0.03760  0.96747  0.54236  1.0000
  C   C329      1.0  0.00998  0.97982  0.59159  1.0000
  C   C330      1.0  0.20384  0.77590  0.46555  1.0000
  H   H505      1.0  0.16211  0.90471  0.43296  1.0000
  H   H506      1.0  0.14913  0.88276  0.48074  1.0000
  H   H507      1.0  0.05800  0.99463  0.55316  1.0000
  H   H508      1.0  0.16759  0.78527  0.46026  1.0000
  S   S128      1.0  0.05435  0.70329  0.64586  1.0000
  H   H509      1.0  0.17370  0.74162  0.46444  1.0000
  H   H510      1.0  0.08522  0.63118  0.39045  1.0000
  H   H511      1.0  0.19639  0.78321  0.47747  1.0000
  C   C331      1.0  0.15440  0.89283  0.46901  1.0000
  H   H512      1.0  0.02307  0.60298  0.48970  1.0000
  C   C332      1.0  0.14146  0.83872  0.61788  1.0000
  H   H513      1.0  0.09708  0.90511  0.36074  1.0000
  H   H514      1.0  0.16133  0.90387  0.47543  1.0000
  H   H515      1.0  0.18078  0.78767  0.43791  1.0000
  H   H516      1.0  0.12218  0.85619  0.58966  1.0000
  H   H517      1.0  0.05008  0.61162  0.42688  1.0000
  N   N33       1.0  0.19105  0.76465  0.45660  1.0000
  C   C333      1.0  0.17542  0.77722  0.44908  1.0000
  C   C334      1.0  0.12595  0.84082  0.58876  1.0000
  H   H518      1.0  0.11529  0.83520  0.58064  1.0000
  H   H519      1.0  0.06872  0.63759  0.37292  1.0000
  H   H520      1.0  0.15543  0.83739  0.61002  1.0000
  H   H521      1.0  0.03531  0.63254  0.37972  1.0000
  C   C335      1.0  0.13250  0.81047  0.60588  1.0000
  H   H522      1.0  0.20752  0.76561  0.42995  1.0000
  S   S129      1.0  0.09821  0.65168  0.34373  1.0000
  C   C336      1.0  0.01348  0.97672  0.38990  1.0000
  N   N34       1.0  0.12713  0.83069  0.60776  1.0000
  H   H523      1.0  0.17588  0.72178  0.33361  1.0000
  H   H524      1.0  0.21334  0.74542  0.44597  1.0000
  H   H525      1.0  0.13809  0.85404  0.61943  1.0000
  H   H526      1.0  0.04827  0.95529  0.54410  1.0000
  C   C337      1.0  0.20151  0.75519  0.44091  1.0000
  H   H527      1.0  0.24333  0.82363  0.50334  1.0000
  H   H528      1.0  0.24541  0.87140  0.37496  1.0000
  H   H529      1.0  0.11242  0.97658  0.53605  1.0000
  C   C338      1.0  0.10869  0.83280  0.61855  1.0000
  H   H530      1.0  0.10431  0.84793  0.62022  1.0000
  H   H531      1.0  0.09751  0.82687  0.61134  1.0000
  H   H532      1.0  0.05307  0.53934  0.50133  1.0000
  H   H533      1.0  0.19213  0.74700  0.43352  1.0000
  H   H534      1.0  0.17528  0.75710  0.48271  1.0000
  C   C339      1.0  0.18337  0.75034  0.47080  1.0000
  H   H535      1.0  0.19480  0.74066  0.47685  1.0000
  H   H536      1.0  0.10919  0.82536  0.63298  1.0000
  H   H537      1.0  0.14308  0.83127  0.63218  1.0000
  H   H538      1.0  0.17381  0.82743  0.50443  1.0000
  H   H539      1.0  0.18942  0.82809  0.53429  1.0000
  H   H540      1.0  0.01318  0.55197  0.54085  1.0000
  S   S130      1.0  0.05200  0.97563  0.39126  1.0000
  H   H541      1.0  0.04906  0.65647  0.39616  1.0000
  C   C340      1.0  0.18115  0.69434  0.65643  1.0000
  C   C341      1.0  0.02527  0.99005  0.59475  1.0000
  N   N35       1.0  0.04544  0.98345  0.53047  1.0000
  S   S131      1.0  0.09402  0.99311  0.61579  1.0000
  H   H542      1.0  0.11514  0.91466  0.37231  1.0000
  C   C342      1.0  0.09994  0.99674  0.48579  1.0000
  H   H543      1.0  0.15404  0.96930  0.64463  1.0000
  C   C343      1.0  0.99906  0.69293  0.64567  1.0000
  H   H544      1.0  0.01826  0.99556  0.52274  1.0000
  H   H545      1.0  0.03774  0.52298  0.49414  1.0000
  H   H546      1.0  0.03908  0.97334  0.50426  1.0000
  H   H547      1.0  0.11081  0.92307  0.34846  1.0000
  H   H548      1.0  0.24822  0.85877  0.55397  1.0000
  H   H549      1.0  0.06191  0.96531  0.51193  1.0000
  H   H550      1.0  0.07273  0.97727  0.54127  1.0000
  H   H551      1.0  0.16557  0.98657  0.65532  1.0000
  S   S132      1.0  0.09062  0.66022  0.66478  1.0000
  C   C344      1.0  0.06198  0.98929  0.53909  1.0000
  N   N36       1.0  0.13543  0.99149  0.65570  1.0000
  C   C345      1.0  0.15270  0.97863  0.65647  1.0000
  H   H552      1.0  0.11933  0.97102  0.64519  1.0000
  H   H553      1.0  0.10549  0.98951  0.65641  1.0000
  H   H554      1.0  0.08133  0.51977  0.48851  1.0000
  C   C346      1.0  0.07327  0.50719  0.49307  1.0000
  S   S133      1.0  0.07395  0.99845  0.43379  1.0000
  C   C347      1.0  0.03008  0.67911  0.66619  1.0000
  H   H555      1.0  0.18440  0.66973  0.68720  1.0000
  Fe  Fe69      1.0  0.03196  0.56836  0.90127  1.0000
  S   S134      1.0  0.06169  0.56035  0.88926  1.0000
  H   H556      1.0  0.06994  0.61674  0.81151  1.0000
  S   S135      1.0  0.02461  0.55849  0.93168  1.0000
  H   H557      1.0  0.19302  0.65546  0.76497  1.0000
  Fe  Fe70      1.0  0.19165  0.59397  0.82398  1.0000
  S   S136      1.0  0.19113  0.57385  0.80119  1.0000
  S   S137      1.0  0.22114  0.60352  0.82790  1.0000
  Fe  Fe71      1.0  0.14844  0.59620  0.82966  1.0000
  S   S138      1.0  0.14534  0.57684  0.80719  1.0000
  S   S139      1.0  0.12220  0.61079  0.84338  1.0000
  Fe  Fe72      1.0  0.16930  0.55909  0.82017  1.0000
  S   S140      1.0  0.16639  0.52790  0.82976  1.0000
  Fe  Fe73      1.0  0.16717  0.59346  0.79008  1.0000
  S   S141      1.0  0.16655  0.60220  0.75824  1.0000
  S   S142      1.0  0.17128  0.57785  0.84382  1.0000
  S   S143      1.0  0.16878  0.61406  0.81172  1.0000
  H   H558      1.0  0.08390  0.62294  0.76951  1.0000
  C   C348      1.0  0.18640  0.70754  0.68545  1.0000
  S   S144      1.0  0.12393  0.66884  0.70720  1.0000
  C   C349      1.0  0.08425  0.62151  0.80741  1.0000
  H   H559      1.0  0.08264  0.63620  0.80072  1.0000
  H   H560      1.0  0.05019  0.52825  0.91147  1.0000
  H   H561      1.0  0.10490  0.57941  0.79497  1.0000
  H   H562      1.0  0.01064  0.66100  0.68208  1.0000
  H   H563      1.0  0.09133  0.62200  0.82075  1.0000
  C   C350      1.0  0.13508  0.64968  0.72123  1.0000
  C   C351      1.0  0.14360  0.63353  0.71346  1.0000
  C   C352      1.0  0.15297  0.61914  0.72503  1.0000
  C   C353      1.0  0.15377  0.62050  0.74457  1.0000
  C   C354      1.0  0.14520  0.63662  0.75238  1.0000
  C   C355      1.0  0.13602  0.65112  0.74076  1.0000
  H   H564      1.0  0.14309  0.63214  0.69850  1.0000
  H   H565      1.0  0.15961  0.60680  0.71877  1.0000
  H   H566      1.0  0.14593  0.63810  0.76728  1.0000
  H   H567      1.0  0.12961  0.66360  0.74694  1.0000
  H   H568      1.0  0.19470  0.63374  0.75365  1.0000
  H   H569      1.0  0.11332  0.63002  0.78263  1.0000
  H   H570      1.0  0.08281  0.58404  0.80826  1.0000
  H   H571      1.0  0.18426  0.51960  0.79245  1.0000
  H   H572      1.0  0.00167  0.54138  0.96960  1.0000
  C   C356      1.0  0.23145  0.61375  0.84632  1.0000
  C   C357      1.0  0.22105  0.61922  0.86265  1.0000
  C   C358      1.0  0.22988  0.62751  0.87661  1.0000
  H   H573      1.0  0.20616  0.61716  0.86450  1.0000
  H   H574      1.0  0.22162  0.63167  0.88914  1.0000
  C   C359      1.0  0.07794  0.57486  0.87625  1.0000
  C   C360      1.0  0.09500  0.56631  0.86887  1.0000
  C   C361      1.0  0.10861  0.57719  0.85877  1.0000
  C   C362      1.0  0.10534  0.59678  0.85609  1.0000
  C   C363      1.0  0.08820  0.60537  0.86328  1.0000
  C   C364      1.0  0.07449  0.59445  0.87330  1.0000
  H   H575      1.0  0.09782  0.55119  0.87110  1.0000
  H   H576      1.0  0.12174  0.57040  0.85329  1.0000
  H   H577      1.0  0.08557  0.62053  0.86128  1.0000
  H   H578      1.0  0.06142  0.60118  0.87896  1.0000
  C   C365      1.0  0.16992  0.50707  0.81760  1.0000
  C   C366      1.0  0.19552  0.63988  0.76739  1.0000
  H   H579      1.0  0.12282  0.60620  0.78031  1.0000
  S   S145      1.0  0.01326  0.59528  0.90231  1.0000
  C   C367      1.0  0.21630  0.61357  0.77851  1.0000
  S   S146      1.0  0.00983  0.55229  0.89060  1.0000
  H   H580      1.0  0.07105  0.60356  0.78012  1.0000
  H   H581      1.0  0.15269  0.96929  0.66987  1.0000
  H   H582      1.0  0.03263  0.51161  0.91531  1.0000
  H   H583      1.0  0.20041  0.69963  0.68634  1.0000
  H   H584      1.0  0.02558  0.56885  0.97020  1.0000
  H   H585      1.0  0.11787  0.97096  0.67043  1.0000
  C   C368      1.0  0.08540  0.60860  0.77709  1.0000
  H   H586      1.0  0.18076  0.71013  0.70008  1.0000
  C   C369      1.0  0.11411  0.61551  0.78987  1.0000
  C   C370      1.0  0.09684  0.58948  0.80418  1.0000
  H   H587      1.0  0.10429  0.58909  0.81739  1.0000
  N   N37       1.0  0.09515  0.60877  0.79464  1.0000
  S   S147      1.0  0.99948  0.60043  0.95837  1.0000
  C   C371      1.0  0.04800  0.51294  0.91268  1.0000
  C   C372      1.0  0.01866  0.57454  0.98269  1.0000
  N   N38       1.0  0.21378  0.63434  0.77557  1.0000
  C   C373      1.0  0.15499  0.70808  0.67524  1.0000
  C   C374      1.0  0.22923  0.64133  0.76247  1.0000
  H   H588      1.0  0.20516  0.60805  0.78870  1.0000
  H   H589      1.0  0.22756  0.63823  0.80065  1.0000
  H   H590      1.0  0.18358  0.63467  0.77686  1.0000
  H   H591      1.0  0.00143  0.50727  0.97776  1.0000
  H   H592      1.0  0.18863  0.72154  0.67764  1.0000
  H   H593      1.0  0.04753  0.52830  0.87673  1.0000
  N   N39       1.0  0.05556  0.50407  0.89543  1.0000
  H   H594      1.0  0.20269  0.63734  0.80422  1.0000
  C   C375      1.0  0.07589  0.50674  0.89217  1.0000
  Fe  Fe74      1.0  0.11521  0.67211  0.67649  1.0000
  H   H595      1.0  0.22997  0.60873  0.78454  1.0000
  C   C376      1.0  0.17088  0.67857  0.68656  1.0000
  H   H596      1.0  0.03024  0.51138  0.88108  1.0000
  C   C377      1.0  0.21409  0.64244  0.79393  1.0000
  H   H597      1.0  0.21229  0.65811  0.79238  1.0000
  H   H598      1.0  0.16494  0.68015  0.70132  1.0000
  H   H599      1.0  0.22778  0.65698  0.75992  1.0000
  H   H600      1.0  0.09334  0.59915  0.76715  1.0000
  C   C378      1.0  0.00563  0.59017  0.98088  1.0000
  H   H601      1.0  0.07849  0.52202  0.89027  1.0000
  H   H602      1.0  0.12186  0.61592  0.80278  1.0000
  H   H603      1.0  0.15643  0.72253  0.66826  1.0000
  Fe  Fe75      1.0  0.00098  0.54482  0.92096  1.0000
  H   H604      1.0  0.14791  0.70934  0.68962  1.0000
  H   H605      1.0  0.16085  0.67048  0.67995  1.0000
  H   H606      1.0  0.05090  0.50654  0.86576  1.0000
  C   C379      1.0  0.04563  0.51292  0.87902  1.0000
  N   N40       1.0  0.17338  0.69710  0.67593  1.0000
  C   C380      1.0  0.17926  0.50673  0.79960  1.0000
  H   H607      1.0  0.22943  0.63534  0.74855  1.0000
  H   H608      1.0  0.21550  0.60678  0.76515  1.0000
  H   H609      1.0  0.05488  0.50641  0.92542  1.0000
  Fe  Fe76      1.0  0.00429  0.58400  0.93222  1.0000
  H   H610      1.0  0.24317  0.63732  0.76829  1.0000
  C   C381      1.0  0.01234  0.67188  0.67058  1.0000
  H   H611      1.0  0.04186  0.67391  0.67437  1.0000
  H   H612      1.0  0.08209  0.50030  0.87923  1.0000
  H   H613      1.0  0.13343  0.99504  0.68548  1.0000
  H   H614      1.0  0.08383  0.50035  0.90431  1.0000
  H   H615      1.0  0.14538  0.70125  0.66694  1.0000
  Fe  Fe77      1.0  0.41754  0.46949  0.08078  1.0000
  H   H616      1.0  0.41240  0.10838  0.30344  1.0000
  S   S148      1.0  0.41226  0.43925  0.07598  1.0000
  C   C382      1.0  0.37986  0.45867  0.04327  1.0000
  H   H617      1.0  0.46863  0.01317  0.01593  1.0000
  H   H618      1.0  0.35730  0.33922  0.14150  1.0000
  Fe  Fe78      1.0  0.42303  0.04067  0.00721  1.0000
  C   C383      1.0  0.41231  0.47515  0.00634  1.0000
  S   S149      1.0  0.41938  0.48288  0.10794  1.0000
  S   S150      1.0  0.44571  0.47879  0.06849  1.0000
  Fe  Fe79      1.0  0.43117  0.08141  0.01343  1.0000
  H   H619      1.0  0.37756  0.29426  0.06772  1.0000
  S   S151      1.0  0.42582  0.10890  0.02789  1.0000
  H   H620      1.0  0.35115  0.42428  0.03726  1.0000
  H   H621      1.0  0.46805  0.15143  0.07979  1.0000
  C   C384      1.0  0.34811  0.19739  0.15940  1.0000
  H   H622      1.0  0.40941  0.46078  0.01095  1.0000
  H   H623      1.0  0.36708  0.01447  0.29285  1.0000
  S   S152      1.0  0.44467  0.05287  0.02303  1.0000
  H   H624      1.0  0.39349  0.45008  0.04146  1.0000
  Fe  Fe80      1.0  0.33276  0.36627  0.09724  1.0000
  S   S153      1.0  0.30937  0.36437  0.07818  1.0000
  S   S154      1.0  0.34135  0.39389  0.10655  1.0000
  Fe  Fe81      1.0  0.33948  0.32297  0.10480  1.0000
  S   S155      1.0  0.31639  0.31782  0.08652  1.0000
  S   S156      1.0  0.36210  0.30338  0.11954  1.0000
  Fe  Fe82      1.0  0.32774  0.34070  0.06581  1.0000
  S   S157      1.0  0.33926  0.33710  0.03545  1.0000
  Fe  Fe83      1.0  0.29934  0.34192  0.10030  1.0000
  S   S158      1.0  0.26812  0.33933  0.10969  1.0000
  S   S159      1.0  0.35182  0.34449  0.08337  1.0000
  S   S160      1.0  0.32166  0.34520  0.12007  1.0000
  Fe  Fe84      1.0  0.41899  0.15050  0.13019  1.0000
  S   S161      1.0  0.42868  0.17798  0.11676  1.0000
  S   S162      1.0  0.41952  0.12311  0.11570  1.0000
  Fe  Fe85      1.0  0.41298  0.16554  0.16992  1.0000
  S   S163      1.0  0.42352  0.19390  0.15885  1.0000
  S   S164      1.0  0.40087  0.16360  0.20084  1.0000
  Fe  Fe86      1.0  0.40525  0.19233  0.13467  1.0000
  S   S165      1.0  0.38165  0.21373  0.12404  1.0000
  Fe  Fe87      1.0  0.44617  0.17721  0.14206  1.0000
  S   S166      1.0  0.47768  0.17846  0.13391  1.0000
  S   S167      1.0  0.39414  0.16449  0.14624  1.0000
  S   S168      1.0  0.43703  0.14919  0.15499  1.0000
  H   H625      1.0  0.34289  0.46310  0.05289  1.0000
  S   S169      1.0  0.37507  0.06027  0.30256  1.0000
  H   H626      1.0  0.39904  0.37942  0.13397  1.0000
  S   S170      1.0  0.33350  0.07879  0.29392  1.0000
  Fe  Fe88      1.0  0.34554  0.05327  0.31109  1.0000
  H   H627      1.0  0.35837  0.44353  0.00702  1.0000
  Fe  Fe89      1.0  0.36316  0.08728  0.28746  1.0000
  S   S171      1.0  0.37742  0.09290  0.25762  1.0000
  S   S172      1.0  0.36243  0.10416  0.31288  1.0000
  C   C385      1.0  0.39435  0.14373  0.21636  1.0000
  C   C386      1.0  0.38636  0.14664  0.23469  1.0000
  C   C387      1.0  0.38094  0.13137  0.24748  1.0000
  C   C388      1.0  0.38348  0.11291  0.24209  1.0000
  C   C389      1.0  0.39155  0.11001  0.22380  1.0000
  C   C390      1.0  0.39688  0.12528  0.21099  1.0000
  H   H628      1.0  0.38436  0.16083  0.23905  1.0000
  H   H629      1.0  0.37478  0.13388  0.26147  1.0000
  H   H630      1.0  0.39359  0.09582  0.21943  1.0000
  H   H631      1.0  0.40297  0.12275  0.19698  1.0000
  C   C391      1.0  0.28896  0.06228  0.31237  1.0000
  H   H632      1.0  0.45031  0.14476  0.09783  1.0000
  H   H633      1.0  0.36066  0.30197  0.02865  1.0000
  H   H634      1.0  0.38286  0.44075  0.01132  1.0000
  H   H635      1.0  0.37240  0.36422  0.10841  1.0000
  C   C392      1.0  0.36723  0.27839  0.12065  1.0000
  C   C393      1.0  0.35510  0.26626  0.11431  1.0000
  C   C394      1.0  0.35980  0.24659  0.11548  1.0000
  C   C395      1.0  0.37665  0.23871  0.12300  1.0000
  C   C396      1.0  0.38872  0.25082  0.12946  1.0000
  C   C397      1.0  0.38401  0.27050  0.12829  1.0000
  H   H636      1.0  0.34196  0.27199  0.10875  1.0000
  H   H637      1.0  0.35026  0.23738  0.11059  1.0000
  H   H638      1.0  0.40172  0.24504  0.13529  1.0000
  H   H639      1.0  0.39351  0.27967  0.13331  1.0000
  H   H640      1.0  0.34149  0.17162  0.18873  1.0000
  H   H641      1.0  0.26592  0.12357  0.33129  1.0000
  H   H642      1.0  0.35850  0.43123  0.05901  1.0000
  H   H643      1.0  0.38374  0.19552  0.16892  1.0000
  H   H644      1.0  0.29927  0.33719  0.02827  1.0000
  C   C398      1.0  0.25916  0.36771  0.13424  1.0000
  S   S173      1.0  0.41071  0.01383  0.02060  1.0000
  H   H645      1.0  0.27378  0.37082  0.13210  1.0000
  C   C399      1.0  0.42431  0.11245  0.05240  1.0000
  C   C400      1.0  0.42498  0.09743  0.06648  1.0000
  C   C401      1.0  0.42331  0.10098  0.08574  1.0000
  C   C402      1.0  0.42108  0.11954  0.09119  1.0000
  C   C403      1.0  0.42058  0.13457  0.07711  1.0000
  C   C404      1.0  0.42216  0.13101  0.05786  1.0000
  H   H646      1.0  0.42656  0.08308  0.06254  1.0000
  H   H647      1.0  0.42368  0.08925  0.09650  1.0000
  H   H648      1.0  0.41876  0.14891  0.08105  1.0000
  H   H649      1.0  0.42158  0.14274  0.04710  1.0000
  H   H650      1.0  0.37353  0.21899  0.17061  1.0000
  H   H651      1.0  0.35779  0.18834  0.15041  1.0000
  H   H652      1.0  0.47442  0.13910  0.13103  1.0000
  H   H653      1.0  0.44070  0.06264  0.30138  1.0000
  C   C405      1.0  0.32721  0.33673  0.01460  1.0000
  H   H654      1.0  0.37910  0.20405  0.19169  1.0000
  C   C406      1.0  0.39234  0.42700  0.08453  1.0000
  C   C407      1.0  0.37837  0.43462  0.09707  1.0000
  C   C408      1.0  0.36278  0.42434  0.10353  1.0000
  C   C409      1.0  0.36082  0.40652  0.09728  1.0000
  C   C410      1.0  0.37462  0.39905  0.08446  1.0000
  C   C411      1.0  0.39041  0.40917  0.07830  1.0000
  H   H655      1.0  0.37970  0.44833  0.10197  1.0000
  H   H656      1.0  0.35217  0.43022  0.11347  1.0000
  H   H657      1.0  0.37320  0.38548  0.07933  1.0000
  H   H658      1.0  0.40113  0.40322  0.06853  1.0000
  C   C412      1.0  0.47302  0.12696  0.12261  1.0000
  H   H659      1.0  0.38070  0.28615  0.03410  1.0000
  H   H660      1.0  0.33049  0.29932  0.04782  1.0000
  H   H661      1.0  0.46711  0.16073  0.10245  1.0000
  H   H662      1.0  0.35895  0.35502  0.15946  1.0000
  N   N41       1.0  0.35627  0.28268  0.05336  1.0000
  H   H663      1.0  0.38207  0.47321  0.03687  1.0000
  H   H664      1.0  0.32696  0.20429  0.19127  1.0000
  H   H665      1.0  0.42286  0.48025  0.03275  1.0000
  N   N42       1.0  0.35461  0.19715  0.17865  1.0000
  C   C413      1.0  0.36101  0.35361  0.14400  1.0000
  H   H666      1.0  0.37986  0.33978  0.11340  1.0000
  H   H667      1.0  0.39691  0.35719  0.10996  1.0000
  H   H668      1.0  0.34765  0.21187  0.15203  1.0000
  H   H669      1.0  0.39258  0.34456  0.16206  1.0000
  H   H670      1.0  0.35067  0.36399  0.13700  1.0000
  H   H671      1.0  0.34045  0.22414  0.18359  1.0000
  H   H672      1.0  0.27822  0.06148  0.30204  1.0000
  C   C414      1.0  0.38255  0.35439  0.11620  1.0000
  H   H673      1.0  0.37462  0.38692  0.13230  1.0000
  C   C415      1.0  0.38455  0.37632  0.13963  1.0000
  H   H674      1.0  0.38316  0.37876  0.15490  1.0000
  C   C416      1.0  0.39374  0.34314  0.14657  1.0000
  H   H675      1.0  0.40857  0.34509  0.14125  1.0000
  N   N43       1.0  0.38049  0.35688  0.13663  1.0000
  H   H676      1.0  0.33384  0.19218  0.15965  1.0000
  H   H677      1.0  0.36041  0.17688  0.20221  1.0000
  C   C417      1.0  0.37352  0.20433  0.17748  1.0000
  C   C418      1.0  0.35545  0.17762  0.18768  1.0000
  H   H678      1.0  0.39086  0.32836  0.14448  1.0000
  H   H679      1.0  0.36551  0.16809  0.17956  1.0000
  N   N44       1.0  0.42645  0.08690  0.28693  1.0000
  C   C419      1.0  0.42272  0.07671  0.27060  1.0000
  C   C420      1.0  0.41046  0.10076  0.29086  1.0000
  C   C421      1.0  0.44379  0.09688  0.28256  1.0000
  C   C422      1.0  0.42874  0.07333  0.30373  1.0000
  H   H680      1.0  0.35517  0.29323  0.08081  1.0000
  H   H681      1.0  0.42038  0.08660  0.25779  1.0000
  H   H682      1.0  0.40975  0.06894  0.27352  1.0000
  H   H683      1.0  0.44245  0.10725  0.26996  1.0000
  S   S174      1.0  0.40101  0.49456  0.06717  1.0000
  H   H684      1.0  0.39719  0.09365  0.29368  1.0000
  H   H685      1.0  0.40833  0.11135  0.27855  1.0000
  H   H686      1.0  0.34821  0.47684  0.03096  1.0000
  C   C423      1.0  0.42007  0.48612  0.01861  1.0000
  C   C424      1.0  0.30762  0.33668  0.01497  1.0000
  H   H687      1.0  0.43454  0.06626  0.26699  1.0000
  H   H688      1.0  0.41587  0.06556  0.30744  1.0000
  H   H689      1.0  0.47899  0.11848  0.07623  1.0000
  N   N45       1.0  0.36467  0.45039  0.03460  1.0000
  H   H690      1.0  0.46097  0.11104  0.09360  1.0000
  H   H691      1.0  0.36099  0.27772  0.02394  1.0000
  H   H692      1.0  0.48226  0.11489  0.12844  1.0000
  H   H693      1.0  0.37158  0.46390  0.00688  1.0000
  H   H694      1.0  0.45617  0.08685  0.27953  1.0000
  C   C425      1.0  0.34258  0.00333  0.30789  1.0000
  H   H695      1.0  0.44690  0.10474  0.29463  1.0000
  C   C426      1.0  0.36209  0.29576  0.06637  1.0000
  H   H696      1.0  0.37787  0.26114  0.06100  1.0000
  C   C427      1.0  0.49683  0.18435  0.14622  1.0000
  H   H697      1.0  0.33509  0.45634  0.03123  1.0000
  H   H698      1.0  0.26723  0.03342  0.32179  1.0000
  H   H699      1.0  0.43130  0.08055  0.31642  1.0000
  C   C428      1.0  0.34139  0.20931  0.19005  1.0000
  H   H700      1.0  0.48022  0.19706  0.16886  1.0000
  H   H701      1.0  0.34597  0.20946  0.20464  1.0000
  C   C429      1.0  0.36508  0.28728  0.03418  1.0000
  H   H702      1.0  0.37670  0.45945  0.05876  1.0000
  C   C430      1.0  0.36236  0.43111  0.04355  1.0000
  Fe  Fe90      1.0  0.37315  0.07664  0.32821  1.0000
  Fe  Fe91      1.0  0.33328  0.09376  0.32053  1.0000
  Fe  Fe92      1.0  0.44627  0.49427  0.09441  1.0000
  C   C431      1.0  0.33555  0.28465  0.05276  1.0000
  H   H703      1.0  0.35827  0.25281  0.05062  1.0000
  H   H704      1.0  0.32840  0.28128  0.06698  1.0000
  H   H705      1.0  0.35583  0.25920  0.07455  1.0000
  C   C432      1.0  0.34690  0.46219  0.03754  1.0000
  C   C433      1.0  0.36954  0.44960  0.01410  1.0000
  H   H706      1.0  0.30193  0.05400  0.30727  1.0000
  H   H707      1.0  0.48509  0.10290  0.09650  1.0000
  C   C434      1.0  0.27824  0.03509  0.33161  1.0000
  S   S175      1.0  0.30488  0.11051  0.32651  1.0000
  C   C435      1.0  0.46532  0.14788  0.09524  1.0000
  C   C436      1.0  0.35989  0.00189  0.29733  1.0000
  C   C437      1.0  0.49586  0.49821  0.07881  1.0000
  H   H708      1.0  0.35831  0.31069  0.06133  1.0000
  H   H709      1.0  0.33065  0.27515  0.04292  1.0000
  N   N46       1.0  0.47794  0.13176  0.10229  1.0000
  C   C438      1.0  0.36233  0.26309  0.06014  1.0000
  S   S176      1.0  0.33153  0.02543  0.31377  1.0000
  H   H710      1.0  0.48166  0.07431  0.01428  1.0000
  H   H711      1.0  0.29107  0.02625  0.32695  1.0000
  C   C439      1.0  0.49682  0.07223  0.01238  1.0000
  C   C440      1.0  0.25282  0.35321  0.12497  1.0000
  C   C441      1.0  0.47570  0.11532  0.09168  1.0000
  H   H712      1.0  0.45821  0.12303  0.12514  1.0000
  H   H713      1.0  0.37563  0.42192  0.04187  1.0000
  C   C442      1.0  0.49430  0.19357  0.16286  1.0000
  S   S177      1.0  0.47186  0.49585  0.11120  1.0000
  C   C443      1.0  0.49763  0.13697  0.09965  1.0000
  H   H714      1.0  0.29238  0.07727  0.31190  1.0000
  H   H715      1.0  0.25361  0.06564  0.32824  1.0000
  C   C444      1.0  0.45941  0.00139  0.01544  1.0000
  N   N47       1.0  0.28230  0.05507  0.33166  1.0000
  H   H716      1.0  0.44891  0.00614  0.00494  1.0000
  H   H717      1.0  0.48350  0.49775  0.07105  1.0000
  H   H718      1.0  0.25179  0.38917  0.15356  1.0000
  C   C445      1.0  0.49411  0.49748  0.09855  1.0000
  H   H719      1.0  0.45143  0.99940  0.02946  1.0000
  H   H720      1.0  0.46775  0.45821  0.00047  1.0000
  S   S178      1.0  0.48301  0.07133  0.42511  1.0000
  C   C446      1.0  0.25466  0.12263  0.65597  1.0000
  S   S179      1.0  0.46342  0.10389  0.38248  1.0000
  H   H721      1.0  0.48649  0.13475  0.41590  1.0000
  H   H722      1.0  0.42715  0.02967  0.64069  1.0000
  S   S180      1.0  0.47336  0.10376  0.62700  1.0000
  H   H723      1.0  0.40512  0.05650  0.66652  1.0000
  C   C447      1.0  0.47916  0.00736  0.56456  1.0000
  H   H724      1.0  0.44983  0.14655  0.45418  1.0000
  C   C448      1.0  0.26329  0.12960  0.63868  1.0000
  C   C449      1.0  0.29410  0.11849  0.65045  1.0000
  C   C450      1.0  0.28307  0.12753  0.63611  1.0000
  H   H725      1.0  0.30927  0.11705  0.64817  1.0000
  H   H726      1.0  0.28996  0.13291  0.62286  1.0000
  C   C451      1.0  0.26037  0.08007  0.63182  1.0000
  C   C452      1.0  0.29525  0.10730  0.36542  1.0000
  C   C453      1.0  0.28266  0.10999  0.38142  1.0000
  C   C454      1.0  0.26393  0.11728  0.37949  1.0000
  C   C455      1.0  0.25789  0.12177  0.36126  1.0000
  C   C456      1.0  0.29702  0.05650  0.34482  1.0000
  H   H727      1.0  0.30963  0.10183  0.36721  1.0000
  H   H728      1.0  0.28755  0.10653  0.39542  1.0000
  H   H729      1.0  0.46711  0.04319  0.53194  1.0000
  C   C457      1.0  0.44971  0.09787  0.63136  1.0000
  C   C458      1.0  0.44070  0.08942  0.61794  1.0000
  C   C459      1.0  0.42159  0.08587  0.62121  1.0000
  C   C460      1.0  0.41140  0.09037  0.63807  1.0000
  H   H730      1.0  0.48824  0.14382  0.62543  1.0000
  Fe  Fe93      1.0  0.49224  0.08786  0.60582  1.0000
  H   H731      1.0  0.44826  0.08620  0.60476  1.0000
  H   H732      1.0  0.41461  0.07984  0.61050  1.0000
  H   H733      1.0  0.25036  0.18725  0.40638  1.0000
  C   C461      1.0  0.44530  0.09387  0.37199  1.0000
  C   C462      1.0  0.44417  0.07435  0.37334  1.0000
  C   C463      1.0  0.42952  0.06660  0.36529  1.0000
  C   C464      1.0  0.41584  0.07822  0.35575  1.0000
  C   C465      1.0  0.41701  0.09779  0.35417  1.0000
  C   C466      1.0  0.43168  0.10558  0.36235  1.0000
  H   H734      1.0  0.45447  0.06518  0.38080  1.0000
  H   H735      1.0  0.30100  0.07128  0.34466  1.0000
  H   H736      1.0  0.26070  0.07868  0.64751  1.0000
  H   H737      1.0  0.43243  0.12071  0.36128  1.0000
  H   H738      1.0  0.39930  0.99957  0.65529  1.0000
  S   S181      1.0  0.38732  0.08589  0.64127  1.0000
  H   H739      1.0  0.49213  0.06892  0.46929  1.0000
  N   N48       1.0  0.48101  0.01867  0.54615  1.0000
  H   H740      1.0  0.44022  0.12046  0.43710  1.0000
  C   C467      1.0  0.38074  0.03366  0.65547  1.0000
  S   S182      1.0  0.48398  0.01783  0.42390  1.0000
  H   H741      1.0  0.46503  0.00178  0.56721  1.0000
  H   H742      1.0  0.48134  0.01588  0.57647  1.0000
  C   C468      1.0  0.46615  0.03432  0.54564  1.0000
  S   S183      1.0  0.49797  0.05661  0.38362  1.0000
  C   C469      1.0  0.42050  0.09838  0.65173  1.0000
  H   H743      1.0  0.49162  0.11116  0.42589  1.0000
  S   S184      1.0  0.34414  0.06786  0.33788  1.0000
  H   H744      1.0  0.44636  0.10892  0.65872  1.0000
  S   S185      1.0  0.48928  0.07419  0.53765  1.0000
  H   H745      1.0  0.41278  0.10197  0.66476  1.0000
  H   H746      1.0  0.25054  0.20859  0.37689  1.0000
  Fe  Fe94      1.0  0.49689  0.04494  0.41396  1.0000
  H   H747      1.0  0.45775  0.10562  0.42508  1.0000
  H   H748      1.0  0.31001  0.04758  0.34095  1.0000
  C   C470      1.0  0.43954  0.10233  0.64827  1.0000
  C   C471      1.0  0.45428  0.12022  0.42923  1.0000
  H   H749      1.0  0.27048  0.06895  0.62613  1.0000
  H   H750      1.0  0.26781  0.08155  0.33781  1.0000
  H   H751      1.0  0.26586  0.17220  0.35837  1.0000
  H   H752      1.0  0.48162  0.11712  0.46668  1.0000
  H   H753      1.0  0.40738  0.02373  0.62874  1.0000
  H   H754      1.0  0.26581  0.15735  0.38007  1.0000
  Fe  Fe95      1.0  0.48639  0.08374  0.39502  1.0000
  S   S186      1.0  0.48393  0.06429  0.59041  1.0000
  C   C472      1.0  0.47038  0.11331  0.45801  1.0000
  H   H755      1.0  0.47975  0.06230  0.50253  1.0000
  H   H756      1.0  0.40652  0.10688  0.34691  1.0000
  H   H757      1.0  0.40944  0.04766  0.63370  1.0000
  C   C473      1.0  0.49145  0.07104  0.49945  1.0000
  C   C474      1.0  0.47906  0.00660  0.53072  1.0000
  H   H758      1.0  0.25976  0.06157  0.35240  1.0000
  H   H759      1.0  0.45184  0.02908  0.54756  1.0000
  C   C475      1.0  0.49837  0.07486  0.48055  1.0000
  C   C476      1.0  0.28939  0.11239  0.34723  1.0000
  N   N49       1.0  0.46883  0.12622  0.44063  1.0000
  H   H760      1.0  0.46742  0.04384  0.55696  1.0000
  S   S187      1.0  0.39794  0.06725  0.34596  1.0000
  H   H761      1.0  0.42871  0.05146  0.36659  1.0000
  H   H762      1.0  0.47433  0.15052  0.45440  1.0000
  H   H763      1.0  0.45694  0.11343  0.46700  1.0000
  C   C477      1.0  0.27064  0.11962  0.34529  1.0000
  H   H764      1.0  0.45299  0.12941  0.41579  1.0000
  H   H765      1.0  0.46248  0.15572  0.43293  1.0000
  H   H766      1.0  0.26586  0.09391  0.62666  1.0000
  N   N50       1.0  0.40102  0.02917  0.65784  1.0000
  H   H767      1.0  0.37528  0.02434  0.64580  1.0000
  C   C478      1.0  0.48713  0.12571  0.42947  1.0000
  H   H768      1.0  0.29230  0.05179  0.35962  1.0000
  C   C479      1.0  0.46362  0.14564  0.44577  1.0000
  S   S188      1.0  0.25019  0.14061  0.61971  1.0000
  H   H769      1.0  0.27373  0.18062  0.37930  1.0000
  C   C480      1.0  0.41175  0.03264  0.63942  1.0000
  C   C481      1.0  0.40420  0.00917  0.66506  1.0000
  H   H770      1.0  0.48048  0.01476  0.51663  1.0000
  H   H771      1.0  0.46511  0.00053  0.53208  1.0000
  H   H772      1.0  0.47416  0.09852  0.45460  1.0000
  H   H773      1.0  0.37786  0.04848  0.64950  1.0000
  H   H774      1.0  0.27335  0.02911  0.34597  1.0000
  C   C482      1.0  0.26314  0.17220  0.37399  1.0000
  H   H775      1.0  0.25085  0.07125  0.59796  1.0000
  C   C483      1.0  0.26507  0.06642  0.33780  1.0000
  H   H776      1.0  0.49850  0.13028  0.43749  1.0000
  H   H777      1.0  0.49874  0.13026  0.60705  1.0000
  S   S189      1.0  0.24927  0.12188  0.40027  1.0000
  Fe  Fe96      1.0  0.40240  0.46509  0.90336  1.0000
  C   C484      1.0  0.48778  0.46000  0.96664  1.0000
  S   S190      1.0  0.38249  0.45150  0.88620  1.0000
  Fe  Fe97      1.0  0.44183  0.47385  0.91396  1.0000
  S   S191      1.0  0.47265  0.46254  0.91306  1.0000
  Fe  Fe98      1.0  0.40826  0.47627  0.94248  1.0000
  S   S192      1.0  0.39939  0.46841  0.97292  1.0000
  S   S193      1.0  0.42117  0.45278  0.92588  1.0000
  S   S194      1.0  0.42417  0.48410  0.88970  1.0000
  S   S195      1.0  0.44028  0.04092  0.97963  1.0000
  S   S196      1.0  0.41555  0.07871  0.94470  1.0000
  Fe  Fe99      1.0  0.32728  0.31275  0.89591  1.0000
  S   S197      1.0  0.29809  0.32181  0.90800  1.0000
  S   S198      1.0  0.33587  0.28148  0.89219  1.0000
  Fe  Fe100     1.0  0.34170  0.35106  0.90016  1.0000
  S   S199      1.0  0.31401  0.36300  0.91248  1.0000
  S   S200      1.0  0.37004  0.36371  0.89864  1.0000
  Fe  Fe101     1.0  0.31228  0.33531  0.92991  1.0000
  S   S201      1.0  0.29769  0.33427  0.95961  1.0000
  Fe  Fe102     1.0  0.30082  0.34916  0.88994  1.0000
  S   S202      1.0  0.27502  0.36796  0.88013  1.0000
  S   S203      1.0  0.34099  0.32422  0.91940  1.0000
  S   S204      1.0  0.32916  0.33925  0.87597  1.0000
  Fe  Fe103     1.0  0.41691  0.16653  0.86604  1.0000
  S   S205      1.0  0.43120  0.19292  0.85571  1.0000
  S   S206      1.0  0.42394  0.15744  0.89646  1.0000
  Fe  Fe104     1.0  0.40276  0.16253  0.82654  1.0000
  S   S207      1.0  0.41671  0.18845  0.81384  1.0000
  S   S208      1.0  0.38607  0.14208  0.81205  1.0000
  Fe  Fe105     1.0  0.44164  0.17752  0.83053  1.0000
  S   S209      1.0  0.47266  0.17277  0.82012  1.0000
  Fe  Fe106     1.0  0.40506  0.20195  0.84048  1.0000
  S   S210      1.0  0.39339  0.23310  0.83821  1.0000
  S   S211      1.0  0.42845  0.15070  0.84143  1.0000
  S   S212      1.0  0.38987  0.17655  0.85250  1.0000
  Fe  Fe107     1.0  0.33032  0.09201  0.68819  1.0000
  S   S213      1.0  0.34017  0.08070  0.71695  1.0000
  S   S214      1.0  0.29863  0.10040  0.68659  1.0000
  C   C485      1.0  0.49214  0.18172  0.82945  1.0000
  S   S215      1.0  0.38265  0.07599  0.69670  1.0000
  H   H778      1.0  0.46777  0.13572  0.84248  1.0000
  Fe  Fe108     1.0  0.35760  0.05839  0.70115  1.0000
  S   S216      1.0  0.36479  0.02705  0.71010  1.0000
  Fe  Fe109     1.0  0.36451  0.09911  0.71017  1.0000
  S   S217      1.0  0.37746  0.12013  0.72741  1.0000
  N   N51       1.0  0.32255  0.14312  0.72861  1.0000
  S   S218      1.0  0.35371  0.11152  0.68218  1.0000
  H   H779      1.0  0.38456  0.15189  0.97834  1.0000
  H   H780      1.0  0.39953  0.03906  0.68558  1.0000
  H   H781      1.0  0.33556  0.02173  0.68464  1.0000
  H   H782      1.0  0.48485  0.11685  0.84886  1.0000
  C   C486      1.0  0.38435  0.13598  0.78836  1.0000
  C   C487      1.0  0.37394  0.12065  0.78544  1.0000
  C   C488      1.0  0.37192  0.11536  0.76705  1.0000
  C   C489      1.0  0.38013  0.12549  0.75117  1.0000
  C   C490      1.0  0.39045  0.14087  0.75407  1.0000
  C   C491      1.0  0.39264  0.14603  0.77247  1.0000
  H   H783      1.0  0.36747  0.11272  0.79757  1.0000
  H   H784      1.0  0.36403  0.10345  0.76522  1.0000
  H   H785      1.0  0.39691  0.14886  0.74197  1.0000
  H   H786      1.0  0.40065  0.15786  0.77436  1.0000
  H   H787      1.0  0.44014  0.46680  0.96911  1.0000
  S   S219      1.0  0.44962  0.08411  0.98619  1.0000
  H   H788      1.0  0.29837  0.15194  0.74638  1.0000
  C   C492      1.0  0.47090  0.15576  0.87207  1.0000
  H   H789      1.0  0.47633  0.20458  0.84256  1.0000
  H   H790      1.0  0.31737  0.12155  0.75121  1.0000
  C   C493      1.0  0.35781  0.00699  0.70007  1.0000
  H   H791      1.0  0.45894  0.12594  0.89466  1.0000
  C   C494      1.0  0.33783  0.33602  0.99717  1.0000
  C   C495      1.0  0.35169  0.26831  0.87673  1.0000
  C   C496      1.0  0.35705  0.24932  0.88236  1.0000
  C   C497      1.0  0.36971  0.23833  0.87082  1.0000
  C   C498      1.0  0.37718  0.24616  0.85337  1.0000
  C   C499      1.0  0.37177  0.26515  0.84770  1.0000
  C   C500      1.0  0.35905  0.27613  0.85922  1.0000
  H   H792      1.0  0.35136  0.24303  0.89578  1.0000
  H   H793      1.0  0.37364  0.22376  0.87538  1.0000
  H   H794      1.0  0.37727  0.27131  0.83415  1.0000
  H   H795      1.0  0.35468  0.29048  0.85434  1.0000
  C   C501      1.0  0.30942  0.33533  0.98056  1.0000
  C   C502      1.0  0.32900  0.33541  0.98022  1.0000
  N   N52       1.0  0.46943  0.47012  0.97154  1.0000
  H   H796      1.0  0.33735  0.33497  0.96690  1.0000
  H   H797      1.0  0.41267  0.12964  0.97274  1.0000
  C   C503      1.0  0.45414  0.45931  0.96625  1.0000
  H   H798      1.0  0.34757  0.14107  0.70988  1.0000
  H   H799      1.0  0.42261  0.03838  0.67360  1.0000
  Fe  Fe110     1.0  0.46104  0.05456  0.99484  1.0000
  C   C504      1.0  0.41950  0.09996  0.93060  1.0000
  C   C505      1.0  0.41096  0.10361  0.91336  1.0000
  C   C506      1.0  0.41239  0.12104  0.90252  1.0000
  C   C507      1.0  0.42213  0.13507  0.90905  1.0000
  C   C508      1.0  0.43089  0.13132  0.92615  1.0000
  C   C509      1.0  0.42981  0.11377  0.93676  1.0000
  H   H800      1.0  0.40295  0.09300  0.90848  1.0000
  H   H801      1.0  0.40563  0.12374  0.88934  1.0000
  H   H802      1.0  0.43859  0.14208  0.93120  1.0000
  H   H803      1.0  0.43672  0.11104  0.94982  1.0000
  C   C510      1.0  0.49014  0.19753  0.83987  1.0000
  C   C511      1.0  0.32926  0.12829  0.74294  1.0000
  C   C512      1.0  0.37849  0.42727  0.89112  1.0000
  C   C513      1.0  0.36202  0.42054  0.88549  1.0000
  C   C514      1.0  0.35886  0.40121  0.88841  1.0000
  C   C515      1.0  0.37243  0.38837  0.89652  1.0000
  C   C516      1.0  0.38889  0.39512  0.90215  1.0000
  C   C517      1.0  0.39180  0.41450  0.89971  1.0000
  H   H804      1.0  0.35167  0.43029  0.87879  1.0000
  H   H805      1.0  0.34620  0.39618  0.88390  1.0000
  H   H806      1.0  0.39948  0.38530  0.90837  1.0000
  H   H807      1.0  0.40459  0.41946  0.90399  1.0000
  H   H808      1.0  0.46935  0.48800  0.94558  1.0000
  S   S220      1.0  0.49123  0.04278  0.99199  1.0000
  H   H809      1.0  0.25641  0.33328  0.95867  1.0000
  C   C518      1.0  0.25324  0.33041  0.94416  1.0000
  H   H810      1.0  0.34837  0.15693  0.72772  1.0000
  H   H811      1.0  0.26757  0.34002  0.85407  1.0000
  Fe  Fe111     1.0  0.37038  0.08702  0.66954  1.0000
  C   C519      1.0  0.46167  0.12398  0.87935  1.0000
  H   H812      1.0  0.46692  0.15886  0.88696  1.0000
  H   H813      1.0  0.38586  0.11145  0.94850  1.0000
  H   H814      1.0  0.27663  0.35368  0.92466  1.0000
  H   H815      1.0  0.25446  0.42620  0.82401  1.0000
  S   S221      1.0  0.34610  0.06842  0.67330  1.0000
  H   H816      1.0  0.37823  0.09295  0.97789  1.0000
  C   C520      1.0  0.49246  0.47592  0.91315  1.0000
  H   H817      1.0  0.25885  0.10859  0.68372  1.0000
  H   H818      1.0  0.29893  0.12816  0.72270  1.0000
  C   C521      1.0  0.49412  0.13065  0.88063  1.0000
  C   C522      1.0  0.28548  0.11156  0.66774  1.0000
  C   C523      1.0  0.40886  0.48255  0.98798  1.0000
  C   C524      1.0  0.31139  0.13472  0.71534  1.0000
  H   H819      1.0  0.41515  0.00835  0.98031  1.0000
  H   H820      1.0  0.30534  0.16926  0.72776  1.0000
  H   H821      1.0  0.33827  0.11694  0.73626  1.0000
  H   H822      1.0  0.36161  0.14308  0.98260  1.0000
  H   H823      1.0  0.26038  0.37392  0.92229  1.0000
  C   C525      1.0  0.46735  0.47216  0.99208  1.0000
  H   H824      1.0  0.49177  0.14052  0.84350  1.0000
  C   C526      1.0  0.48049  0.13195  0.85053  1.0000
  C   C527      1.0  0.33887  0.15159  0.71804  1.0000
  H   H825      1.0  0.48221  0.16496  0.86635  1.0000
  H   H826      1.0  0.48946  0.45783  0.95129  1.0000
  H   H827      1.0  0.39044  0.13580  0.94807  1.0000
  C   C528      1.0  0.31074  0.15788  0.73815  1.0000
  C   C529      1.0  0.25648  0.36597  0.86521  1.0000
  N   N53       1.0  0.38393  0.12220  0.97587  1.0000
  H   H828      1.0  0.31888  0.16451  0.74818  1.0000
  Fe  Fe112     1.0  0.42714  0.07033  0.97343  1.0000
  S   S222      1.0  0.38781  0.48707  0.92111  1.0000
  H   H829      1.0  0.33441  0.16348  0.70775  1.0000
  H   H830      1.0  0.31990  0.12341  0.70808  1.0000
  H   H831      1.0  0.30628  0.14537  0.70411  1.0000
  H   H832      1.0  0.46524  0.10869  0.87798  1.0000
  N   N54       1.0  0.39256  0.30888  0.88560  1.0000
  C   C530      1.0  0.38872  0.30949  0.90625  1.0000
  C   C531      1.0  0.40803  0.32091  0.87894  1.0000
  C   C532      1.0  0.37548  0.31601  0.87598  1.0000
  C   C533      1.0  0.39786  0.28919  0.88128  1.0000
  H   H833      1.0  0.37713  0.30047  0.91172  1.0000
  H   H834      1.0  0.38440  0.32413  0.90998  1.0000
  H   H835      1.0  0.40134  0.30441  0.91400  1.0000
  H   H836      1.0  0.41116  0.32086  0.86338  1.0000
  H   H837      1.0  0.40430  0.33585  0.88208  1.0000
  H   H838      1.0  0.42118  0.31602  0.88590  1.0000
  H   H839      1.0  0.37752  0.31505  0.86044  1.0000
  H   H840      1.0  0.37149  0.33103  0.87837  1.0000
  H   H841      1.0  0.36328  0.30786  0.88133  1.0000
  H   H842      1.0  0.40022  0.28801  0.86576  1.0000
  H   H843      1.0  0.38659  0.27974  0.88658  1.0000
  H   H844      1.0  0.41094  0.28344  0.88793  1.0000
  N   N55       1.0  0.47678  0.13558  0.87064  1.0000
  H   H845      1.0  0.49182  0.13340  0.89580  1.0000
  H   H846      1.0  0.44815  0.12794  0.87267  1.0000
  C   C534      1.0  0.37328  0.10626  0.98442  1.0000
  H   H847      1.0  0.40979  0.10488  0.97313  1.0000
  C   C535      1.0  0.40405  0.11811  0.97921  1.0000
  H   H848      1.0  0.36602  0.48994  0.88702  1.0000
  H   H849      1.0  0.48916  0.44582  0.97452  1.0000
  H   H850      1.0  0.45369  0.47988  0.99611  1.0000
  H   H851      1.0  0.35797  0.10889  0.98242  1.0000
  C   C536      1.0  0.49099  0.49563  0.91074  1.0000
  H   H852      1.0  0.39326  0.48635  0.86373  1.0000
  C   C537      1.0  0.38163  0.12473  0.95530  1.0000
  C   C538      1.0  0.46841  0.48902  0.96113  1.0000
  C   C539      1.0  0.37683  0.13962  0.98462  1.0000
  H   H853      1.0  0.36674  0.12878  0.95223  1.0000
  H   H854      1.0  0.45404  0.44516  0.97421  1.0000
  H   H855      1.0  0.33792  0.13409  0.75309  1.0000
  H   H856      1.0  0.45840  0.16021  0.86393  1.0000
  C   C540      1.0  0.25620  0.35100  0.85389  1.0000
  C   C541      1.0  0.34305  0.00821  0.68810  1.0000
  H   H857      1.0  0.26617  0.32290  0.93790  1.0000
  H   H858      1.0  0.47864  0.48026  0.99659  1.0000
  H   H859      1.0  0.25692  0.33669  0.90610  1.0000
  C   C542      1.0  0.40735  0.04129  0.67149  1.0000
  C   C543      1.0  0.29879  0.33592  0.99801  1.0000
  H   H860      1.0  0.26703  0.36416  0.94540  1.0000
  H   H861      1.0  0.35299  0.33609  0.99672  1.0000
  H   H862      1.0  0.36132  0.48162  0.85512  1.0000
  H   H863      1.0  0.45491  0.49721  0.96487  1.0000
  C   C544      1.0  0.26359  0.36058  0.93122  1.0000
  H   H864      1.0  0.40631  0.11629  0.99458  1.0000
  H   H865      1.0  0.37231  0.03200  0.66922  1.0000
  H   H866      1.0  0.48006  0.49742  0.96428  1.0000
  C   C545      1.0  0.26569  0.11371  0.67036  1.0000
  S   S223      1.0  0.42987  0.49671  0.93204  1.0000
  H   H867      1.0  0.39636  0.00634  0.67905  1.0000
  H   H868      1.0  0.28364  0.33584  0.99844  1.0000
  H   H869      1.0  0.45552  0.45712  0.95091  1.0000
  H   H870      1.0  0.48900  0.99925  0.99066  1.0000
  C   C546      1.0  0.35946  0.49701  0.85050  1.0000
  S   S224      1.0  0.40786  0.06908  0.00003  1.0000
  H   H871      1.0  0.37504  0.10366  0.99988  1.0000
  H   H872      1.0  0.37862  0.13817  0.00012  1.0000
  H   H873      1.0  0.41936  0.00523  0.66693  1.0000
  C   C547      1.0  0.38594  0.76970  0.20018  1.0000
  S   S225      1.0  0.38036  0.52546  0.10779  1.0000
  H   H874      1.0  0.39245  0.77815  0.18792  1.0000
  C   C548      1.0  0.45164  0.53303  0.14893  1.0000
  S   S226      1.0  0.41930  0.89960  0.01930  1.0000
  C   C549      1.0  0.42654  0.52372  0.13195  1.0000
  H   H875      1.0  0.43276  0.82969  0.09317  1.0000
  H   H876      1.0  0.34770  0.80029  0.20804  1.0000
  S   S227      1.0  0.38678  0.85566  0.02768  1.0000
  H   H877      1.0  0.46709  0.91702  0.00419  1.0000
  Fe  Fe113     1.0  0.30203  0.64758  0.11534  1.0000
  S   S228      1.0  0.33111  0.65362  0.12292  1.0000
  S   S229      1.0  0.27537  0.64863  0.13577  1.0000
  Fe  Fe114     1.0  0.31390  0.64794  0.07294  1.0000
  S   S230      1.0  0.34344  0.65424  0.07710  1.0000
  S   S231      1.0  0.30063  0.64046  0.04651  1.0000
  Fe  Fe115     1.0  0.34207  0.63259  0.10207  1.0000
  S   S232      1.0  0.37007  0.61515  0.10466  1.0000
  Fe  Fe116     1.0  0.33144  0.67506  0.09775  1.0000
  S   S233      1.0  0.34477  0.70369  0.09542  1.0000
  S   S234      1.0  0.31320  0.62468  0.09674  1.0000
  S   S235      1.0  0.30165  0.67060  0.09134  1.0000
  Fe  Fe117     1.0  0.41262  0.80685  0.17370  1.0000
  S   S236      1.0  0.42679  0.77905  0.16523  1.0000
  S   S237      1.0  0.40933  0.81087  0.20550  1.0000
  Fe  Fe118     1.0  0.40739  0.82059  0.13236  1.0000
  S   S238      1.0  0.42027  0.79366  0.12126  1.0000
  S   S239      1.0  0.40003  0.84807  0.11521  1.0000
  Fe  Fe119     1.0  0.40332  0.77893  0.14560  1.0000
  S   S240      1.0  0.38722  0.75180  0.14921  1.0000
  Fe  Fe120     1.0  0.44253  0.79592  0.14174  1.0000
  S   S241      1.0  0.47305  0.79337  0.12916  1.0000
  S   S242      1.0  0.38867  0.80610  0.15516  1.0000
  S   S243      1.0  0.43026  0.82349  0.15166  1.0000
  S   S244      1.0  0.33631  0.90227  0.29086  1.0000
  S   S245      1.0  0.38192  0.89342  0.29464  1.0000
  Fe  Fe121     1.0  0.35977  0.91663  0.30142  1.0000
  S   S246      1.0  0.36862  0.94579  0.29022  1.0000
  Fe  Fe122     1.0  0.35829  0.87841  0.28515  1.0000
  S   S247      1.0  0.35861  0.86933  0.25492  1.0000
  S   S248      1.0  0.43488  0.85850  0.00324  1.0000
  H   H878      1.0  0.45600  0.55849  0.11916  1.0000
  C   C550      1.0  0.36773  0.98415  0.29219  1.0000
  C   C551      1.0  0.35852  0.96764  0.29779  1.0000
  C   C552      1.0  0.42478  0.50439  0.01235  1.0000
  C   C553      1.0  0.29755  0.63967  0.00830  1.0000
  C   C554      1.0  0.39577  0.82798  0.21869  1.0000
  C   C555      1.0  0.38200  0.84065  0.21068  1.0000
  C   C556      1.0  0.37084  0.85313  0.22200  1.0000
  C   C557      1.0  0.37339  0.85334  0.24141  1.0000
  C   C558      1.0  0.38735  0.84087  0.24937  1.0000
  C   C559      1.0  0.39833  0.82819  0.23810  1.0000
  H   H879      1.0  0.37980  0.84070  0.19580  1.0000
  H   H880      1.0  0.36008  0.86267  0.21565  1.0000
  H   H881      1.0  0.38952  0.84079  0.26425  1.0000
  H   H882      1.0  0.40890  0.81845  0.24450  1.0000
  H   H883      1.0  0.36205  0.77991  0.17310  1.0000
  H   H884      1.0  0.36978  0.79857  0.21886  1.0000
  H   H885      1.0  0.47732  0.82540  0.06263  1.0000
  C   C560      1.0  0.34136  0.96903  0.30862  1.0000
  H   H886      1.0  0.47968  0.79560  0.16907  1.0000
  C   C561      1.0  0.35580  0.71721  0.11091  1.0000
  C   C562      1.0  0.35727  0.71158  0.13016  1.0000
  C   C563      1.0  0.36692  0.72232  0.14153  1.0000
  C   C564      1.0  0.37523  0.73889  0.13396  1.0000
  C   C565      1.0  0.37375  0.74453  0.11473  1.0000
  C   C566      1.0  0.36411  0.73378  0.10335  1.0000
  H   H887      1.0  0.35085  0.69904  0.13635  1.0000
  H   H888      1.0  0.36787  0.71779  0.15637  1.0000
  H   H889      1.0  0.37997  0.75722  0.10861  1.0000
  H   H890      1.0  0.36312  0.73836  0.08852  1.0000
  H   H891      1.0  0.27839  0.64108  0.08053  1.0000
  C   C567      1.0  0.30611  0.64795  0.02234  1.0000
  C   C568      1.0  0.31838  0.66205  0.01679  1.0000
  H   H892      1.0  0.42745  0.84369  0.06066  1.0000
  H   H893      1.0  0.32499  0.66863  0.02740  1.0000
  H   H894      1.0  0.45784  0.86268  0.09333  1.0000
  H   H895      1.0  0.43583  0.51183  0.12659  1.0000
  H   H896      1.0  0.27122  0.60839  0.13187  1.0000
  C   C569      1.0  0.39000  0.85343  0.05210  1.0000
  C   C570      1.0  0.39400  0.86905  0.06114  1.0000
  C   C571      1.0  0.39647  0.86722  0.08060  1.0000
  C   C572      1.0  0.39570  0.84963  0.09105  1.0000
  C   C573      1.0  0.39193  0.83389  0.08202  1.0000
  C   C574      1.0  0.38874  0.83588  0.06262  1.0000
  H   H897      1.0  0.39474  0.88267  0.05321  1.0000
  H   H898      1.0  0.39919  0.87948  0.08755  1.0000
  H   H899      1.0  0.39117  0.82030  0.09001  1.0000
  H   H900      1.0  0.38557  0.82376  0.05569  1.0000
  H   H901      1.0  0.44907  0.96657  0.02405  1.0000
  C   C575      1.0  0.40876  0.97586  0.01781  1.0000
  H   H902      1.0  0.47854  0.85036  0.05708  1.0000
  Fe  Fe123     1.0  0.37415  0.88044  0.32383  1.0000
  H   H903      1.0  0.41598  0.52805  0.12140  1.0000
  S   S249      1.0  0.43186  0.52113  0.08185  1.0000
  C   C576      1.0  0.42466  0.55489  0.14268  1.0000
  C   C577      1.0  0.37731  0.55045  0.10534  1.0000
  C   C578      1.0  0.35990  0.55944  0.11125  1.0000
  C   C579      1.0  0.35725  0.57927  0.11039  1.0000
  C   C580      1.0  0.37217  0.59029  0.10409  1.0000
  C   C581      1.0  0.38961  0.58130  0.09820  1.0000
  C   C582      1.0  0.39208  0.56149  0.09852  1.0000
  H   H904      1.0  0.34841  0.55101  0.11658  1.0000
  H   H905      1.0  0.34380  0.58600  0.11509  1.0000
  H   H906      1.0  0.40120  0.58972  0.09321  1.0000
  H   H907      1.0  0.40543  0.55478  0.09367  1.0000
  H   H908      1.0  0.39360  0.77217  0.21267  1.0000
  Fe  Fe124     1.0  0.42921  0.50474  0.05704  1.0000
  N   N56       1.0  0.39488  0.66859  0.10445  1.0000
  C   C583      1.0  0.38878  0.66607  0.08554  1.0000
  C   C584      1.0  0.40075  0.68796  0.10469  1.0000
  C   C585      1.0  0.41080  0.65474  0.10879  1.0000
  C   C586      1.0  0.37910  0.66552  0.11878  1.0000
  H   H909      1.0  0.38420  0.65160  0.08488  1.0000
  H   H910      1.0  0.40028  0.66832  0.07431  1.0000
  H   H911      1.0  0.37668  0.67629  0.08188  1.0000
  H   H912      1.0  0.40450  0.69081  0.11899  1.0000
  H   H913      1.0  0.41308  0.69058  0.09454  1.0000
  H   H914      1.0  0.38923  0.69866  0.10061  1.0000
  H   H915      1.0  0.41571  0.65625  0.12299  1.0000
  H   H916      1.0  0.42295  0.65652  0.09819  1.0000
  H   H917      1.0  0.40664  0.64001  0.10871  1.0000
  H   H918      1.0  0.38286  0.66801  0.13317  1.0000
  H   H919      1.0  0.37466  0.65087  0.11935  1.0000
  H   H920      1.0  0.36658  0.67518  0.11551  1.0000
  N   N57       1.0  0.38265  0.92031  0.23801  1.0000
  C   C587      1.0  0.38144  0.93045  0.21905  1.0000
  C   C588      1.0  0.36353  0.91929  0.24736  1.0000
  C   C589      1.0  0.39416  0.93048  0.24951  1.0000
  C   C590      1.0  0.39138  0.90100  0.23618  1.0000
  H   H921      1.0  0.39561  0.93147  0.21155  1.0000
  H   H922      1.0  0.37485  0.94505  0.21998  1.0000
  H   H923      1.0  0.37276  0.92310  0.21009  1.0000
  H   H924      1.0  0.36403  0.91164  0.26160  1.0000
  H   H925      1.0  0.35654  0.93356  0.24934  1.0000
  H   H926      1.0  0.35439  0.91154  0.23925  1.0000
  H   H927      1.0  0.39523  0.92322  0.26398  1.0000
  H   H928      1.0  0.38781  0.94503  0.25143  1.0000
  H   H929      1.0  0.40870  0.93159  0.24297  1.0000
  H   H930      1.0  0.39221  0.89284  0.25025  1.0000
  H   H931      1.0  0.40590  0.90111  0.22934  1.0000
  H   H932      1.0  0.38301  0.89290  0.22761  1.0000
  N   N58       1.0  0.45361  0.84244  0.07377  1.0000
  C   C591      1.0  0.44803  0.82776  0.08874  1.0000
  C   C592      1.0  0.44969  0.86126  0.08091  1.0000
  H   H933      1.0  0.33890  0.62182  0.00134  1.0000
  C   C593      1.0  0.47392  0.83939  0.06829  1.0000
  H   H934      1.0  0.43454  0.86384  0.08554  1.0000
  C   C594      1.0  0.41098  0.99359  0.00788  1.0000
  H   H935      1.0  0.45075  0.81335  0.08390  1.0000
  H   H936      1.0  0.38866  0.75462  0.19732  1.0000
  C   C595      1.0  0.40951  0.95942  0.00813  1.0000
  H   H937      1.0  0.45328  0.87270  0.06978  1.0000
  H   H938      1.0  0.36917  0.80440  0.19399  1.0000
  H   H939      1.0  0.26831  0.63067  0.10233  1.0000
  Fe  Fe125     1.0  0.33201  0.88816  0.32043  1.0000
  C   C596      1.0  0.26629  0.63340  0.08699  1.0000
  H   H940      1.0  0.48252  0.83994  0.08058  1.0000
  H   H941      1.0  0.45677  0.53540  0.11093  1.0000
  C   C597      1.0  0.25844  0.61434  0.13889  1.0000
  H   H942      1.0  0.41711  0.55001  0.15630  1.0000
  H   H943      1.0  0.35940  0.74857  0.21769  1.0000
  H   H944      1.0  0.49311  0.96516  0.02072  1.0000
  H   H945      1.0  0.40654  0.97483  0.03307  1.0000
  H   H946      1.0  0.34011  0.59652  0.00192  1.0000
  H   H947      1.0  0.41869  0.51817  0.14512  1.0000
  C   C598      1.0  0.33338  0.98681  0.31351  1.0000
  C   C599      1.0  0.48171  0.91454  0.00718  1.0000
  H   H948      1.0  0.44653  0.85247  0.04556  1.0000
  H   H949      1.0  0.41369  0.55989  0.13264  1.0000
  H   H950      1.0  0.44534  0.82749  0.05117  1.0000
  H   H951      1.0  0.33408  0.95647  0.31294  1.0000
  H   H952      1.0  0.46521  0.95497  0.00754  1.0000
  H   H953      1.0  0.35825  0.75658  0.18298  1.0000
  C   C600      1.0  0.35619  0.77169  0.18595  1.0000
  N   N59       1.0  0.47033  0.98387  0.01035  1.0000
  H   H954      1.0  0.34082  0.77565  0.18745  1.0000
  Fe  Fe126     1.0  0.40710  0.87400  0.01033  1.0000
  H   H955      1.0  0.47756  0.97535  0.03875  1.0000
  H   H956      1.0  0.34216  0.76776  0.22214  1.0000
  Fe  Fe127     1.0  0.40495  0.50891  0.09325  1.0000
  H   H957      1.0  0.49415  0.98956  0.02500  1.0000
  H   H958      1.0  0.43704  0.55203  0.10653  1.0000
  H   H959      1.0  0.46023  0.54464  0.15182  1.0000
  C   C601      1.0  0.44725  0.54672  0.11718  1.0000
  S   S250      1.0  0.43482  0.51785  0.02760  1.0000
  H   H960      1.0  0.28797  0.62881  0.01244  1.0000
  N   N60       1.0  0.43752  0.53962  0.13520  1.0000
  H   H961      1.0  0.36438  0.76628  0.23262  1.0000
  H   H962      1.0  0.43237  0.56726  0.14514  1.0000
  H   H963      1.0  0.40779  0.94586  0.01594  1.0000
  H   H964      1.0  0.24980  0.66099  0.10709  1.0000
  S   S251      1.0  0.47149  0.88240  0.02820  1.0000
  C   C602      1.0  0.48755  0.89883  0.01913  1.0000
  C   C603      1.0  0.44279  0.84144  0.05705  1.0000
  H   H965      1.0  0.45584  0.82812  0.10164  1.0000
  S   S252      1.0  0.35209  0.86318  0.31399  1.0000
  H   H966      1.0  0.46154  0.52153  0.14348  1.0000
  H   H967      1.0  0.38098  0.98323  0.28379  1.0000
  H   H968      1.0  0.44485  0.52732  0.16263  1.0000
  N   N61       1.0  0.36560  0.77520  0.20295  1.0000
  C   C604      1.0  0.35750  0.76393  0.21960  1.0000
  C   C605      1.0  0.36286  0.79546  0.20610  1.0000
  C   C606      1.0  0.48445  0.97824  0.02431  1.0000
  Fe  Fe128     1.0  0.44688  0.88480  0.01007  1.0000
  H   H969      1.0  0.26719  0.61955  0.08084  1.0000
  S   S253      1.0  0.35393  0.90470  0.33135  1.0000
  C   C607      1.0  0.49381  0.79298  0.14154  1.0000
  H   H970      1.0  0.25843  0.65519  0.05569  1.0000
  C   C608      1.0  0.49315  0.79433  0.16106  1.0000
  C   C609      1.0  0.25695  0.63335  0.14257  1.0000
  C   C610      1.0  0.45747  0.96868  0.01029  1.0000
  H   H971      1.0  0.31996  0.98775  0.32163  1.0000
  H   H972      1.0  0.25999  0.67106  0.08506  1.0000
  H   H973      1.0  0.47380  0.99034  0.38702  1.0000
  H   H974      1.0  0.36932  0.85364  0.38592  1.0000
  S   S254      1.0  0.45936  0.90049  0.58846  1.0000
  C   C611      1.0  0.47632  0.87134  0.54661  1.0000
  H   H975      1.0  0.44883  0.99155  0.38526  1.0000
  Fe  Fe129     1.0  0.48698  0.90017  0.38479  1.0000
  S   S255      1.0  0.46295  0.91131  0.36656  1.0000
  H   H976      1.0  0.31108  0.87026  0.38012  1.0000
  Fe  Fe130     1.0  0.49119  0.90108  0.58454  1.0000
  H   H977      1.0  0.48379  0.83484  0.54135  1.0000
  H   H978      1.0  0.43985  0.86663  0.54390  1.0000
  H   H979      1.0  0.26978  0.83387  0.63289  1.0000
  C   C612      1.0  0.46660  0.98246  0.35223  1.0000
  C   C613      1.0  0.29878  0.86379  0.64958  1.0000
  C   C614      1.0  0.28808  0.88077  0.64540  1.0000
  C   C615      1.0  0.27093  0.88084  0.63664  1.0000
  C   C616      1.0  0.26410  0.86398  0.63199  1.0000
  C   C617      1.0  0.27480  0.84700  0.63617  1.0000
  H   H980      1.0  0.47826  0.97864  0.42999  1.0000
  H   H981      1.0  0.46095  0.82733  0.54975  1.0000
  C   C618      1.0  0.44799  0.95886  0.36936  1.0000
  H   H982      1.0  0.35189  0.83776  0.39512  1.0000
  N   N62       1.0  0.46578  0.85552  0.55555  1.0000
  C   C619      1.0  0.27085  0.87868  0.35818  1.0000
  H   H983      1.0  0.42423  0.85655  0.37003  1.0000
  H   H984      1.0  0.49809  0.89601  0.51972  1.0000
  H   H985      1.0  0.46505  0.83760  0.58158  1.0000
  H   H986      1.0  0.29847  0.86836  0.55527  1.0000
  H   H987      1.0  0.27435  0.84248  0.59647  1.0000
  C   C620      1.0  0.34527  0.88327  0.37685  1.0000
  H   H988      1.0  0.33832  0.83997  0.36362  1.0000
  H   H989      1.0  0.35667  0.85494  0.35496  1.0000
  C   C621      1.0  0.47276  0.84945  0.57434  1.0000
  C   C622      1.0  0.46858  0.83963  0.54344  1.0000
  C   C623      1.0  0.44407  0.89860  0.36091  1.0000
  C   C624      1.0  0.44149  0.88019  0.36869  1.0000
  C   C625      1.0  0.42610  0.87079  0.36396  1.0000
  C   C626      1.0  0.41323  0.87963  0.35134  1.0000
  C   C627      1.0  0.29269  0.85263  0.34997  1.0000
  C   C628      1.0  0.26383  0.85751  0.55155  1.0000
  H   H990      1.0  0.45132  0.87321  0.37836  1.0000
  H   H991      1.0  0.44947  0.95023  0.35698  1.0000
  H   H992      1.0  0.46009  0.97271  0.39980  1.0000
  C   C629      1.0  0.26719  0.87641  0.57740  1.0000
  C   C630      1.0  0.26745  0.84254  0.58297  1.0000
  H   H993      1.0  0.27103  0.82862  0.57721  1.0000
  H   H994      1.0  0.30006  0.83370  0.64801  1.0000
  C   C631      1.0  0.44648  0.89684  0.61060  1.0000
  C   C632      1.0  0.45541  0.89092  0.62715  1.0000
  C   C633      1.0  0.44462  0.88749  0.64435  1.0000
  C   C634      1.0  0.42486  0.89013  0.64522  1.0000
  C   C635      1.0  0.42673  0.89943  0.61144  1.0000
  H   H995      1.0  0.47060  0.88882  0.62667  1.0000
  C   C636      1.0  0.43115  0.90746  0.34837  1.0000
  H   H996      1.0  0.33251  0.86279  0.35195  1.0000
  C   C637      1.0  0.32163  0.86220  0.38911  1.0000
  C   C638      1.0  0.41595  0.89622  0.62870  1.0000
  S   S256      1.0  0.48957  0.91525  0.41062  1.0000
  H   H997      1.0  0.49173  0.86733  0.54509  1.0000
  S   S257      1.0  0.32072  0.86265  0.66048  1.0000
  H   H998      1.0  0.25205  0.84373  0.58661  1.0000
  H   H999      1.0  0.49438  0.96498  0.37237  1.0000
  S   S258      1.0  0.39391  0.86744  0.34588  1.0000
  H   H1000     1.0  0.48040  0.94761  0.38508  1.0000
  H   H1001     1.0  0.44637  0.94878  0.38219  1.0000
  C   C639      1.0  0.28051  0.84003  0.36012  1.0000
  H   H1002     1.0  0.30562  0.84723  0.34282  1.0000
  H   H1003     1.0  0.48139  0.89956  0.49017  1.0000
  H   H1004     1.0  0.26780  0.86909  0.54081  1.0000
  H   H1005     1.0  0.35422  0.85893  0.40642  1.0000
  H   H1006     1.0  0.41971  0.90400  0.59870  1.0000
  C   C640      1.0  0.29199  0.84695  0.64482  1.0000
  H   H1007     1.0  0.28434  0.82502  0.36078  1.0000
  C   C641      1.0  0.35466  0.85293  0.39251  1.0000
  C   C642      1.0  0.49453  0.89094  0.49084  1.0000
  H   H1008     1.0  0.26704  0.89369  0.35760  1.0000
  H   H1009     1.0  0.48801  0.84472  0.57320  1.0000
  H   H1010     1.0  0.47888  0.99113  0.35225  1.0000
  H   H1011     1.0  0.26756  0.84385  0.54527  1.0000
  N   N63       1.0  0.34091  0.86330  0.38014  1.0000
  H   H1012     1.0  0.49712  0.95045  0.41972  1.0000
  C   C643      1.0  0.49158  0.98012  0.42187  1.0000
  H   H1013     1.0  0.43711  0.85017  0.56449  1.0000
  H   H1014     1.0  0.35963  0.88462  0.36974  1.0000
  H   H1015     1.0  0.44307  0.87371  0.56690  1.0000
  C   C644      1.0  0.28801  0.87211  0.34906  1.0000
  H   H1016     1.0  0.25165  0.87809  0.58048  1.0000
  C   C645      1.0  0.25852  0.86606  0.36806  1.0000
  H   H1017     1.0  0.26284  0.89409  0.63354  1.0000
  C   C646      1.0  0.29371  0.85669  0.56551  1.0000
  N   N64       1.0  0.46446  0.97003  0.36992  1.0000
  C   C647      1.0  0.26331  0.84661  0.36919  1.0000
  H   H1018     1.0  0.32018  0.86819  0.40307  1.0000
  C   C648      1.0  0.34216  0.85485  0.36188  1.0000
  C   C649      1.0  0.44555  0.86173  0.55777  1.0000
  H   H1019     1.0  0.40075  0.89825  0.62917  1.0000
  H   H1020     1.0  0.31757  0.84739  0.39126  1.0000
  H   H1021     1.0  0.46347  0.84378  0.52914  1.0000
  H   H1022     1.0  0.47095  0.86119  0.58377  1.0000
  H   H1023     1.0  0.48400  0.94790  0.35999  1.0000
  H   H1024     1.0  0.43469  0.96803  0.36838  1.0000
  H   H1025     1.0  0.45164  0.88275  0.65705  1.0000
  H   H1026     1.0  0.34473  0.89011  0.39031  1.0000
  C   C650      1.0  0.41584  0.89803  0.34356  1.0000
  H   H1027     1.0  0.29301  0.89386  0.64890  1.0000
  N   N65       1.0  0.27305  0.85830  0.56933  1.0000
  S   S259      1.0  0.48886  0.88366  0.45467  1.0000
  H   H1028     1.0  0.30099  0.85726  0.57873  1.0000
  H   H1029     1.0  0.33501  0.89152  0.36767  1.0000
  S   S260      1.0  0.35664  0.90475  0.65662  1.0000
  H   H1030     1.0  0.27359  0.87730  0.59106  1.0000
  C   C651      1.0  0.49797  0.99805  0.41708  1.0000
  C   C652      1.0  0.48160  0.95714  0.37188  1.0000
  H   H1031     1.0  0.29859  0.84312  0.55954  1.0000
  C   C653      1.0  0.46166  0.98166  0.38620  1.0000
  H   H1032     1.0  0.43299  0.92167  0.34224  1.0000
  H   H1033     1.0  0.27128  0.88868  0.56762  1.0000
  H   H1034     1.0  0.47423  0.88373  0.55511  1.0000
  H   H1035     1.0  0.45387  0.99234  0.35029  1.0000
  H   H1036     1.0  0.47167  0.87605  0.53225  1.0000
  H   H1037     1.0  0.49009  0.99462  0.53077  1.0000
  H   H1038     1.0  0.46880  0.97411  0.33968  1.0000
  H   H1039     1.0  0.40605  0.90502  0.33385  1.0000
  S   S261      1.0  0.30338  0.88893  0.33771  1.0000
  H   H1040     1.0  0.48974  0.99507  0.56513  1.0000
  H   H1041     1.0  0.49634  0.98202  0.61391  1.0000
  S   S262      1.0  0.49642  0.87185  0.39907  1.0000
  S   S263      1.0  0.24889  0.82994  0.38231  1.0000
  H   H1042     1.0  0.47278  0.81853  0.83175  1.0000
  N   N66       1.0  0.37065  0.50802  0.86152  1.0000
  S   S264      1.0  0.40413  0.53534  0.89552  1.0000
  Fe  Fe131     1.0  0.43240  0.87246  0.97392  1.0000
  S   S265      1.0  0.44309  0.85694  0.94824  1.0000
  C   C654      1.0  0.41363  0.50078  0.98166  1.0000
  S   S266      1.0  0.44724  0.89747  0.98009  1.0000
  Fe  Fe132     1.0  0.29025  0.64401  0.89991  1.0000
  S   S267      1.0  0.31628  0.63338  0.88318  1.0000
  S   S268      1.0  0.25974  0.63995  0.89333  1.0000
  Fe  Fe133     1.0  0.31368  0.65505  0.93199  1.0000
  S   S269      1.0  0.34091  0.64459  0.91710  1.0000
  S   S270      1.0  0.31750  0.66836  0.95936  1.0000
  Fe  Fe134     1.0  0.32917  0.65958  0.89083  1.0000
  S   S271      1.0  0.34793  0.67695  0.86935  1.0000
  Fe  Fe135     1.0  0.32571  0.61972  0.91102  1.0000
  S   S272      1.0  0.33199  0.58842  0.91973  1.0000
  S   S273      1.0  0.30242  0.67114  0.90583  1.0000
  S   S274      1.0  0.29919  0.62936  0.92760  1.0000
  Fe  Fe136     1.0  0.40105  0.80717  0.82241  1.0000
  S   S275      1.0  0.41371  0.77801  0.83190  1.0000
  S   S276      1.0  0.38997  0.81041  0.79274  1.0000
  Fe  Fe137     1.0  0.40332  0.82076  0.86167  1.0000
  S   S277      1.0  0.41567  0.79284  0.87360  1.0000
  S   S278      1.0  0.39353  0.84357  0.88113  1.0000
  Fe  Fe138     1.0  0.43410  0.79335  0.84650  1.0000
  S   S279      1.0  0.46432  0.78131  0.84986  1.0000
  Fe  Fe139     1.0  0.39436  0.77976  0.85825  1.0000
  S   S280      1.0  0.37387  0.76013  0.87500  1.0000
  S   S281      1.0  0.42293  0.82237  0.83522  1.0000
  S   S282      1.0  0.38072  0.80794  0.84802  1.0000
  H   H1043     1.0  0.34448  0.75056  0.84447  1.0000
  S   S283      1.0  0.37402  0.91111  0.69698  1.0000
  H   H1044     1.0  0.30404  0.59279  0.89246  1.0000
  H   H1045     1.0  0.40707  0.85133  0.74832  1.0000
  S   S284      1.0  0.32999  0.90139  0.69685  1.0000
  H   H1046     1.0  0.39991  0.76311  0.93119  1.0000
  Fe  Fe140     1.0  0.34897  0.92245  0.68133  1.0000
  H   H1047     1.0  0.35986  0.59505  0.95172  1.0000
  Fe  Fe141     1.0  0.35593  0.88870  0.71091  1.0000
  S   S285      1.0  0.35795  0.88383  0.74301  1.0000
  C   C655      1.0  0.39751  0.77421  0.91941  1.0000
  S   S286      1.0  0.36379  0.86887  0.68848  1.0000
  S   S287      1.0  0.33840  0.95368  0.67736  1.0000
  C   C656      1.0  0.34700  0.97404  0.68544  1.0000
  H   H1048     1.0  0.46951  0.99095  0.98042  1.0000
  H   H1049     1.0  0.26910  0.60417  0.91827  1.0000
  C   C657      1.0  0.36215  0.97291  0.69695  1.0000
  C   C658      1.0  0.25081  0.61667  0.84427  1.0000
  H   H1050     1.0  0.36979  0.95946  0.70021  1.0000
  C   C659      1.0  0.38110  0.83106  0.77925  1.0000
  C   C660      1.0  0.38014  0.84900  0.78587  1.0000
  C   C661      1.0  0.37299  0.86494  0.77462  1.0000
  C   C662      1.0  0.36683  0.86322  0.75658  1.0000
  C   C663      1.0  0.36771  0.84527  0.75000  1.0000
  C   C664      1.0  0.37484  0.82933  0.76125  1.0000
  H   H1051     1.0  0.38482  0.85060  0.79970  1.0000
  H   H1052     1.0  0.37223  0.87870  0.77998  1.0000
  H   H1053     1.0  0.36257  0.84360  0.73640  1.0000
  H   H1054     1.0  0.37537  0.81553  0.75601  1.0000
  C   C665      1.0  0.48550  0.79268  0.84466  1.0000
  H   H1055     1.0  0.41576  0.97955  0.96317  1.0000
  C   C666      1.0  0.35559  0.69978  0.87165  1.0000
  C   C667      1.0  0.34778  0.71104  0.88577  1.0000
  C   C668      1.0  0.35374  0.72932  0.88665  1.0000
  C   C669      1.0  0.36774  0.73655  0.87360  1.0000
  C   C670      1.0  0.37577  0.72519  0.85962  1.0000
  C   C671      1.0  0.36959  0.70702  0.85857  1.0000
  H   H1056     1.0  0.33698  0.70574  0.89592  1.0000
  H   H1057     1.0  0.34735  0.73790  0.89752  1.0000
  H   H1058     1.0  0.38679  0.73030  0.84967  1.0000
  H   H1059     1.0  0.37584  0.69839  0.84767  1.0000
  C   C672      1.0  0.34983  0.59473  0.96453  1.0000
  H   H1060     1.0  0.49037  0.93877  0.98929  1.0000
  C   C673      1.0  0.33804  0.60979  0.99258  1.0000
  H   H1061     1.0  0.28366  0.60752  0.88625  1.0000
  H   H1062     1.0  0.43657  0.86639  0.69525  1.0000
  C   C674      1.0  0.31305  0.65988  0.98344  1.0000
  C   C675      1.0  0.30107  0.64550  0.98894  1.0000
  H   H1063     1.0  0.30100  0.56180  0.90935  1.0000
  H   H1064     1.0  0.29418  0.63922  0.97833  1.0000
  H   H1065     1.0  0.42537  0.52583  0.98900  1.0000
  C   C676      1.0  0.42861  0.85215  0.93052  1.0000
  C   C677      1.0  0.40956  0.85852  0.93084  1.0000
  C   C678      1.0  0.39886  0.85568  0.91568  1.0000
  C   C679      1.0  0.40703  0.84611  0.90035  1.0000
  C   C680      1.0  0.42586  0.83907  0.90041  1.0000
  C   C681      1.0  0.43664  0.84225  0.91537  1.0000
  H   H1066     1.0  0.40316  0.86575  0.94267  1.0000
  H   H1067     1.0  0.38422  0.86095  0.91581  1.0000
  H   H1068     1.0  0.43226  0.83163  0.88869  1.0000
  H   H1069     1.0  0.45133  0.83717  0.91510  1.0000
  C   C682      1.0  0.40621  0.84946  0.71069  1.0000
  S   S288      1.0  0.40357  0.88625  0.98033  1.0000
  H   H1070     1.0  0.47747  0.50313  0.90842  1.0000
  H   H1071     1.0  0.35311  0.53377  0.85714  1.0000
  H   H1072     1.0  0.36547  0.76519  0.93927  1.0000
  S   S289      1.0  0.41253  0.94053  0.97548  1.0000
  C   C683      1.0  0.37813  0.80143  0.90775  1.0000
  C   C684      1.0  0.35244  0.57419  0.91306  1.0000
  C   C685      1.0  0.35478  0.55566  0.92154  1.0000
  C   C686      1.0  0.37068  0.54371  0.91654  1.0000
  C   C687      1.0  0.38432  0.55015  0.90284  1.0000
  C   C688      1.0  0.38194  0.56866  0.89431  1.0000
  C   C689      1.0  0.36611  0.58070  0.89945  1.0000
  H   H1073     1.0  0.34430  0.55052  0.93213  1.0000
  H   H1074     1.0  0.37239  0.52953  0.92330  1.0000
  H   H1075     1.0  0.39244  0.57377  0.88372  1.0000
  H   H1076     1.0  0.36448  0.59494  0.89281  1.0000
  H   H1077     1.0  0.27451  0.62708  0.85634  1.0000
  N   N67       1.0  0.35203  0.61044  0.97616  1.0000
  H   H1078     1.0  0.25984  0.57520  0.87993  1.0000
  H   H1079     1.0  0.37884  0.98815  0.71356  1.0000
  C   C690      1.0  0.37121  0.60879  0.98285  1.0000
  H   H1080     1.0  0.48877  0.97451  0.98717  1.0000
  C   C691      1.0  0.28674  0.56173  0.90396  1.0000
  C   C692      1.0  0.49480  0.92705  0.99904  1.0000
  H   H1081     1.0  0.44735  0.97198  0.99914  1.0000
  H   H1082     1.0  0.44761  0.86756  0.71687  1.0000
  H   H1083     1.0  0.27829  0.55260  0.91430  1.0000
  H   H1084     1.0  0.43058  0.85839  0.74768  1.0000
  H   H1085     1.0  0.35014  0.64084  0.97291  1.0000
  Fe  Fe142     1.0  0.41038  0.50549  0.90882  1.0000
  H   H1086     1.0  0.28956  0.58989  0.92570  1.0000
  C   C693      1.0  0.36809  0.52832  0.85518  1.0000
  H   H1087     1.0  0.35945  0.62973  0.95221  1.0000
  C   C694      1.0  0.25967  0.62486  0.85828  1.0000
  N   N68       1.0  0.32654  0.94460  0.73842  1.0000
  C   C695      1.0  0.34529  0.93815  0.73019  1.0000
  C   C696      1.0  0.32691  0.94371  0.75921  1.0000
  C   C697      1.0  0.31243  0.93222  0.73337  1.0000
  C   C698      1.0  0.32160  0.96423  0.73084  1.0000
  H   H1088     1.0  0.34533  0.93820  0.71458  1.0000
  H   H1089     1.0  0.34961  0.92350  0.73578  1.0000
  H   H1090     1.0  0.35629  0.94737  0.73328  1.0000
  H   H1091     1.0  0.31296  0.94839  0.76598  1.0000
  H   H1092     1.0  0.33071  0.92905  0.76526  1.0000
  H   H1093     1.0  0.33745  0.95290  0.76344  1.0000
  H   H1094     1.0  0.31149  0.93303  0.71774  1.0000
  H   H1095     1.0  0.29815  0.93628  0.73976  1.0000
  H   H1096     1.0  0.31614  0.91716  0.73822  1.0000
  H   H1097     1.0  0.30779  0.96981  0.73719  1.0000
  H   H1098     1.0  0.32057  0.96518  0.71524  1.0000
  H   H1099     1.0  0.33240  0.97387  0.73357  1.0000
  C   C699      1.0  0.38363  0.79660  0.94088  1.0000
  C   C700      1.0  0.34900  0.62855  0.96460  1.0000
  H   H1100     1.0  0.35122  0.75439  0.79176  1.0000
  H   H1101     1.0  0.37399  0.59528  0.99167  1.0000
  C   C701      1.0  0.41111  0.87968  0.72142  1.0000
  N   N69       1.0  0.40996  0.91813  0.92478  1.0000
  C   C702      1.0  0.40934  0.90979  0.90660  1.0000
  C   C703      1.0  0.42647  0.90949  0.93454  1.0000
  C   C704      1.0  0.39258  0.91452  0.93678  1.0000
  C   C705      1.0  0.41148  0.93871  0.92127  1.0000
  H   H1102     1.0  0.39689  0.91573  0.89896  1.0000
  H   H1103     1.0  0.40851  0.89423  0.90879  1.0000
  H   H1104     1.0  0.42218  0.91239  0.89715  1.0000
  H   H1105     1.0  0.43985  0.91144  0.92577  1.0000
  H   H1106     1.0  0.42764  0.91583  0.94805  1.0000
  H   H1107     1.0  0.42554  0.89408  0.93802  1.0000
  H   H1108     1.0  0.37983  0.92102  0.93000  1.0000
  H   H1109     1.0  0.39270  0.92046  0.95071  1.0000
  H   H1110     1.0  0.39092  0.89914  0.93969  1.0000
  H   H1111     1.0  0.41182  0.94538  0.93480  1.0000
  H   H1112     1.0  0.39930  0.94572  0.91388  1.0000
  H   H1113     1.0  0.42458  0.94198  0.91252  1.0000
  H   H1114     1.0  0.42632  0.83595  0.73987  1.0000
  H   H1115     1.0  0.42025  0.88801  0.72886  1.0000
  H   H1116     1.0  0.39179  0.85004  0.71777  1.0000
  H   H1117     1.0  0.38210  0.60923  0.97077  1.0000
  N   N70       1.0  0.35203  0.76646  0.81822  1.0000
  H   H1118     1.0  0.33205  0.77152  0.79689  1.0000
  H   H1119     1.0  0.37574  0.79485  0.89463  1.0000
  H   H1120     1.0  0.38076  0.77242  0.81063  1.0000
  H   H1121     1.0  0.40961  0.88689  0.70702  1.0000
  N   N71       1.0  0.41896  0.85995  0.72051  1.0000
  H   H1122     1.0  0.44390  0.84502  0.70890  1.0000
  H   H1123     1.0  0.33090  0.67926  0.99336  1.0000
  N   N72       1.0  0.27769  0.58106  0.90142  1.0000
  H   H1124     1.0  0.40493  0.85548  0.69582  1.0000
  H   H1125     1.0  0.32586  0.99288  0.67210  1.0000
  C   C706      1.0  0.41397  0.97841  0.97845  1.0000
  N   N73       1.0  0.38080  0.78709  0.92383  1.0000
  H   H1126     1.0  0.35106  0.78542  0.93038  1.0000
  C   C707      1.0  0.28955  0.59263  0.88778  1.0000
  H   H1127     1.0  0.29073  0.58735  0.87349  1.0000
  C   C708      1.0  0.36398  0.77614  0.92720  1.0000
  C   C709      1.0  0.48582  0.81090  0.83562  1.0000
  H   H1128     1.0  0.36161  0.76874  0.91454  1.0000
  H   H1129     1.0  0.39613  0.80515  0.93863  1.0000
  H   H1130     1.0  0.33543  0.59550  0.95939  1.0000
  H   H1131     1.0  0.41048  0.78199  0.91675  1.0000
  H   H1132     1.0  0.39589  0.76689  0.90652  1.0000
  H   H1133     1.0  0.38588  0.78624  0.95332  1.0000
  C   C710      1.0  0.34736  0.76791  0.79824  1.0000
  H   H1134     1.0  0.37125  0.80639  0.94467  1.0000
  H   H1135     1.0  0.39070  0.80968  0.90467  1.0000
  H   H1136     1.0  0.34562  0.73743  0.82412  1.0000
  H   H1137     1.0  0.35510  0.77910  0.78968  1.0000
  Fe  Fe143     1.0  0.33900  0.88300  0.67309  1.0000
  H   H1138     1.0  0.34934  0.51004  0.88448  1.0000
  H   H1139     1.0  0.32610  0.75443  0.82848  1.0000
  H   H1140     1.0  0.35487  0.79620  0.81845  1.0000
  C   C711      1.0  0.34157  0.75158  0.82924  1.0000
  C   C712      1.0  0.37244  0.76171  0.81921  1.0000
  C   C713      1.0  0.34687  0.78473  0.82619  1.0000
  C   C714      1.0  0.41368  0.99477  0.98815  1.0000
  H   H1141     1.0  0.37655  0.76115  0.83401  1.0000
  C   C715      1.0  0.25889  0.58054  0.89420  1.0000
  H   H1142     1.0  0.39691  0.88040  0.72902  1.0000
  H   H1143     1.0  0.35000  0.78399  0.84136  1.0000
  C   C716      1.0  0.41200  0.96066  0.98838  1.0000
  C   C717      1.0  0.42086  0.85101  0.73992  1.0000
  H   H1144     1.0  0.37686  0.74773  0.81390  1.0000
  H   H1145     1.0  0.33162  0.78898  0.82540  1.0000
  H   H1146     1.0  0.33474  0.63013  0.95910  1.0000
  C   C718      1.0  0.36732  0.98924  0.70442  1.0000
  C   C719      1.0  0.36438  0.50513  0.88177  1.0000
  H   H1147     1.0  0.26658  0.58123  0.93039  1.0000
  H   H1148     1.0  0.28848  0.55503  0.89037  1.0000
  C   C720      1.0  0.33760  0.99181  0.68098  1.0000
  C   C721      1.0  0.43762  0.85969  0.70996  1.0000
  H   H1149     1.0  0.41131  0.83436  0.71028  1.0000
  C   C722      1.0  0.32170  0.66805  0.99746  1.0000
  H   H1150     1.0  0.37274  0.51300  0.89052  1.0000
  H   H1151     1.0  0.36589  0.81167  0.91062  1.0000
  C   C723      1.0  0.47990  0.98724  0.99132  1.0000
  H   H1152     1.0  0.37330  0.62052  0.99158  1.0000
  H   H1153     1.0  0.41076  0.50664  0.96754  1.0000
  Fe  Fe144     1.0  0.38057  0.89193  0.67363  1.0000
  H   H1154     1.0  0.37644  0.53684  0.86342  1.0000
  Fe  Fe145     1.0  0.41857  0.91060  0.98868  1.0000
  H   H1155     1.0  0.37283  0.53110  0.84000  1.0000
  C   C724      1.0  0.27564  0.58942  0.91977  1.0000
  S   S290      1.0  0.41201  0.88510  0.66714  1.0000
  H   H1156     1.0  0.35227  0.58077  0.97262  1.0000
  H   H1157     1.0  0.49525  0.84563  0.88804  1.0000
  H   H1158     1.0  0.25905  0.61260  0.83170  1.0000
  C   C725      1.0  0.42174  0.51168  0.99382  1.0000
  H   H1159     1.0  0.32343  0.61066  0.98799  1.0000
  H   H1160     1.0  0.39964  0.50972  0.86670  1.0000
  H   H1161     1.0  0.49704  0.83515  0.91180  1.0000
  C   C726      1.0  0.39075  0.50155  0.85875  1.0000
  H   H1162     1.0  0.39594  0.50325  0.84361  1.0000
  H   H1163     1.0  0.34418  0.50137  0.85235  1.0000
  C   C727      1.0  0.24926  0.63035  0.87461  1.0000
  H   H1164     1.0  0.25148  0.59488  0.89292  1.0000
  H   H1165     1.0  0.24974  0.57143  0.90382  1.0000
  H   H1166     1.0  0.36383  0.49877  0.83514  1.0000
  Fe  Fe146     1.0  0.61215  0.48257  0.09884  1.0000
  Fe  Fe147     1.0  0.69150  0.07990  0.32929  1.0000
  S   S291      1.0  0.61844  0.45554  0.11738  1.0000
  H   H1167     1.0  0.64914  0.07640  0.26442  1.0000
  H   H1168     1.0  0.67225  0.02013  0.02474  1.0000
  S   S292      1.0  0.60181  0.47983  0.07040  1.0000
  H   H1169     1.0  0.70350  0.28207  0.14891  1.0000
  H   H1170     1.0  0.69273  0.05203  0.24316  1.0000
  Fe  Fe148     1.0  0.61171  0.09686  0.02632  1.0000
  S   S293      1.0  0.58898  0.11838  0.01733  1.0000
  S   S294      1.0  0.63051  0.10131  0.04957  1.0000
  Fe  Fe149     1.0  0.57173  0.09382  0.01636  1.0000
  H   H1171     1.0  0.67408  0.02637  0.04840  1.0000
  S   S295      1.0  0.59354  0.07231  0.02788  1.0000
  H   H1172     1.0  0.72644  0.32953  0.02308  1.0000
  Fe  Fe150     1.0  0.59979  0.16397  0.13869  1.0000
  S   S296      1.0  0.59164  0.19507  0.13553  1.0000
  S   S297      1.0  0.59049  0.14850  0.11499  1.0000
  Fe  Fe151     1.0  0.61071  0.16535  0.18001  1.0000
  S   S298      1.0  0.60377  0.19692  0.17864  1.0000
  S   S299      1.0  0.61200  0.14834  0.20912  1.0000
  Fe  Fe152     1.0  0.57774  0.19103  0.16467  1.0000
  S   S300      1.0  0.54802  0.20174  0.17450  1.0000
  Fe  Fe153     1.0  0.61850  0.19809  0.14925  1.0000
  S   S301      1.0  0.63982  0.21675  0.13216  1.0000
  S   S302      1.0  0.58410  0.15985  0.16701  1.0000
  S   S303      1.0  0.62721  0.16663  0.15142  1.0000
  H   H1173     1.0  0.50796  0.20633  0.18402  1.0000
  S   S304      1.0  0.64398  0.07665  0.30583  1.0000
  H   H1174     1.0  0.60636  0.08120  0.32974  1.0000
  S   S305      1.0  0.69010  0.06715  0.30138  1.0000
  H   H1175     1.0  0.74308  0.29295  0.17646  1.0000
  Fe  Fe154     1.0  0.66918  0.09197  0.29413  1.0000
  S   S306      1.0  0.67254  0.10717  0.26433  1.0000
  Fe  Fe155     1.0  0.66482  0.05258  0.31461  1.0000
  H   H1176     1.0  0.66369  0.34702  0.03743  1.0000
  C   C728      1.0  0.66356  0.39393  0.02377  1.0000
  Fe  Fe156     1.0  0.67985  0.32064  0.11019  1.0000
  S   S307      1.0  0.70714  0.31050  0.09526  1.0000
  S   S308      1.0  0.66220  0.30230  0.13196  1.0000
  Fe  Fe157     1.0  0.68202  0.36109  0.09055  1.0000
  S   S309      1.0  0.70960  0.35315  0.07462  1.0000
  S   S310      1.0  0.66952  0.38997  0.07919  1.0000
  Fe  Fe158     1.0  0.69645  0.32688  0.06903  1.0000
  S   S311      1.0  0.69106  0.31558  0.04104  1.0000
  Fe  Fe159     1.0  0.71803  0.33793  0.10228  1.0000
  H   H1177     1.0  0.67272  0.40327  0.01441  1.0000
  S   S312      1.0  0.66853  0.33547  0.08379  1.0000
  S   S313      1.0  0.69115  0.34735  0.11860  1.0000
  C   C729      1.0  0.71796  0.32594  0.01218  1.0000
  C   C730      1.0  0.70030  0.31908  0.01718  1.0000
  H   H1178     1.0  0.64394  0.36335  0.03226  1.0000
  H   H1179     1.0  0.66452  0.04645  0.27814  1.0000
  H   H1180     1.0  0.72102  0.32985  0.14312  1.0000
  S   S314      1.0  0.65313  0.02385  0.31303  1.0000
  H   H1181     1.0  0.50760  0.12517  0.10484  1.0000
  H   H1182     1.0  0.73400  0.30228  0.12553  1.0000
  H   H1183     1.0  0.64180  0.01700  0.05680  1.0000
  C   C731      1.0  0.63778  0.02310  0.04259  1.0000
  H   H1184     1.0  0.67361  0.02852  0.26319  1.0000
  H   H1185     1.0  0.63921  0.01147  0.03302  1.0000
  C   C732      1.0  0.64539  0.24076  0.13223  1.0000
  C   C733      1.0  0.65837  0.24813  0.11808  1.0000
  C   C734      1.0  0.66344  0.26693  0.11758  1.0000
  C   C735      1.0  0.65575  0.27865  0.13138  1.0000
  C   C736      1.0  0.64284  0.27126  0.14558  1.0000
  C   C737      1.0  0.63760  0.25252  0.14596  1.0000
  H   H1186     1.0  0.66459  0.23925  0.10741  1.0000
  H   H1187     1.0  0.67339  0.27231  0.10657  1.0000
  H   H1188     1.0  0.63677  0.28012  0.15635  1.0000
  H   H1189     1.0  0.62765  0.24715  0.15697  1.0000
  C   C738      1.0  0.65549  0.11885  0.24934  1.0000
  C   C739      1.0  0.66156  0.12721  0.23144  1.0000
  C   C740      1.0  0.64857  0.13634  0.21894  1.0000
  C   C741      1.0  0.62925  0.13715  0.22417  1.0000
  C   C742      1.0  0.62318  0.12863  0.24202  1.0000
  C   C743      1.0  0.63617  0.11958  0.25454  1.0000
  H   H1190     1.0  0.67645  0.12675  0.22723  1.0000
  H   H1191     1.0  0.65351  0.14279  0.20531  1.0000
  H   H1192     1.0  0.60831  0.12915  0.24627  1.0000
  H   H1193     1.0  0.63122  0.11328  0.26823  1.0000
  C   C744      1.0  0.51007  0.19881  0.17142  1.0000
  C   C745      1.0  0.52848  0.19466  0.16360  1.0000
  C   C746      1.0  0.53098  0.18501  0.14726  1.0000
  C   C747      1.0  0.68958  0.31428  0.00281  1.0000
  H   H1194     1.0  0.54504  0.18170  0.14108  1.0000
  C   C748      1.0  0.61967  0.11438  0.06797  1.0000
  C   C749      1.0  0.60037  0.11951  0.06864  1.0000
  C   C750      1.0  0.59183  0.12994  0.08317  1.0000
  C   C751      1.0  0.60242  0.13534  0.09729  1.0000
  C   C752      1.0  0.62175  0.13010  0.09683  1.0000
  C   C753      1.0  0.63036  0.11966  0.08216  1.0000
  H   H1195     1.0  0.59189  0.11527  0.05807  1.0000
  H   H1196     1.0  0.57685  0.13378  0.08352  1.0000
  H   H1197     1.0  0.62996  0.13393  0.10784  1.0000
  H   H1198     1.0  0.64528  0.11558  0.08184  1.0000
  H   H1199     1.0  0.70009  0.38014  0.02122  1.0000
  H   H1200     1.0  0.64863  0.03349  0.26719  1.0000
  S   S315      1.0  0.54135  0.09777  0.02655  1.0000
  C   C754      1.0  0.60284  0.01760  0.01254  1.0000
  H   H1201     1.0  0.64728  0.08047  0.23950  1.0000
  H   H1202     1.0  0.65468  0.06632  0.04255  1.0000
  H   H1203     1.0  0.62259  0.02801  0.04404  1.0000
  H   H1204     1.0  0.68130  0.07435  0.23472  1.0000
  H   H1205     1.0  0.62897  0.05105  0.01627  1.0000
  S   S316      1.0  0.74810  0.33748  0.11231  1.0000
  C   C755      1.0  0.63291  0.43735  0.10698  1.0000
  C   C756      1.0  0.63977  0.43963  0.08805  1.0000
  C   C757      1.0  0.65092  0.42494  0.07989  1.0000
  C   C758      1.0  0.65547  0.40783  0.09054  1.0000
  C   C759      1.0  0.64859  0.40548  0.10949  1.0000
  C   C760      1.0  0.63730  0.42019  0.11766  1.0000
  H   H1206     1.0  0.63662  0.45277  0.07967  1.0000
  H   H1207     1.0  0.65621  0.42693  0.06524  1.0000
  H   H1208     1.0  0.65197  0.39236  0.11783  1.0000
  H   H1209     1.0  0.63206  0.41830  0.13232  1.0000
  H   H1210     1.0  0.72808  0.27497  0.17213  1.0000
  S   S317      1.0  0.67236  0.10545  0.32115  1.0000
  H   H1211     1.0  0.64917  0.39597  0.01861  1.0000
  C   C761      1.0  0.67174  0.36770  0.00476  1.0000
  H   H1212     1.0  0.66272  0.39899  0.03820  1.0000
  C   C762      1.0  0.62292  0.47227  0.02409  1.0000
  C   C763      1.0  0.52766  0.08172  0.01782  1.0000
  N   N74       1.0  0.72393  0.30103  0.15482  1.0000
  H   H1213     1.0  0.62439  0.46658  0.03853  1.0000
  H   H1214     1.0  0.63128  0.05973  0.04885  1.0000
  C   C764      1.0  0.70476  0.29728  0.15051  1.0000
  N   N75       1.0  0.66257  0.05432  0.24845  1.0000
  H   H1215     1.0  0.68397  0.06892  0.25939  1.0000
  H   H1216     1.0  0.55138  0.48959  0.00129  1.0000
  H   H1217     1.0  0.65023  0.04944  0.06241  1.0000
  C   C765      1.0  0.72473  0.32145  0.15643  1.0000
  H   H1218     1.0  0.67084  0.03388  0.22844  1.0000
  H   H1219     1.0  0.65237  0.05773  0.00998  1.0000
  C   C766      1.0  0.64632  0.05415  0.04781  1.0000
  C   C767      1.0  0.69010  0.37203  0.03088  1.0000
  H   H1220     1.0  0.69582  0.35702  0.03208  1.0000
  H   H1221     1.0  0.71862  0.29466  0.18474  1.0000
  H   H1222     1.0  0.64586  0.03889  0.23231  1.0000
  H   H1223     1.0  0.60739  0.44945  0.01710  1.0000
  H   H1224     1.0  0.69184  0.00908  0.30229  1.0000
  H   H1225     1.0  0.50181  0.14078  0.08449  1.0000
  N   N76       1.0  0.56767  0.44019  0.10159  1.0000
  C   C768      1.0  0.56640  0.46038  0.10499  1.0000
  C   C769      1.0  0.57278  0.42866  0.11904  1.0000
  C   C770      1.0  0.58225  0.43655  0.08620  1.0000
  C   C771      1.0  0.54927  0.43523  0.09614  1.0000
  H   H1226     1.0  0.56299  0.46955  0.09201  1.0000
  H   H1227     1.0  0.57992  0.46453  0.10952  1.0000
  H   H1228     1.0  0.55531  0.46374  0.11628  1.0000
  H   H1229     1.0  0.57388  0.41332  0.11703  1.0000
  H   H1230     1.0  0.58669  0.43208  0.12341  1.0000
  H   H1231     1.0  0.56223  0.43116  0.13105  1.0000
  H   H1232     1.0  0.58373  0.42142  0.08336  1.0000
  H   H1233     1.0  0.59631  0.44024  0.08985  1.0000
  H   H1234     1.0  0.57893  0.44503  0.07278  1.0000
  H   H1235     1.0  0.54968  0.42012  0.09331  1.0000
  H   H1236     1.0  0.54499  0.44391  0.08312  1.0000
  H   H1237     1.0  0.53795  0.43776  0.10748  1.0000
  H   H1238     1.0  0.65636  0.19071  0.10054  1.0000
  C   C772      1.0  0.73756  0.29501  0.13944  1.0000
  N   N77       1.0  0.64942  0.03871  0.03517  1.0000
  H   H1239     1.0  0.63326  0.06355  0.25320  1.0000
  C   C773      1.0  0.64736  0.06928  0.25150  1.0000
  H   H1240     1.0  0.73913  0.32494  0.15920  1.0000
  C   C774      1.0  0.50803  0.08423  0.02028  1.0000
  H   H1241     1.0  0.59844  0.02944  0.02068  1.0000
  C   C775      1.0  0.66950  0.03180  0.03419  1.0000
  N   N78       1.0  0.67098  0.37397  0.02405  1.0000
  C   C776      1.0  0.51525  0.18006  0.13855  1.0000
  C   C777      1.0  0.61351  0.46248  0.01192  1.0000
  H   H1242     1.0  0.65983  0.05573  0.21851  1.0000
  H   H1243     1.0  0.65782  0.36642  0.05159  1.0000
  H   H1244     1.0  0.73776  0.27959  0.13813  1.0000
  H   H1245     1.0  0.51742  0.17303  0.12566  1.0000
  N   N79       1.0  0.55367  0.16281  0.22050  1.0000
  C   C778      1.0  0.53940  0.16410  0.20636  1.0000
  C   C779      1.0  0.56664  0.17792  0.21572  1.0000
  C   C780      1.0  0.56445  0.14424  0.22046  1.0000
  C   C781      1.0  0.54424  0.16500  0.23946  1.0000
  H   H1246     1.0  0.52938  0.15291  0.20942  1.0000
  H   H1247     1.0  0.54609  0.16269  0.19184  1.0000
  H   H1248     1.0  0.53108  0.17800  0.20589  1.0000
  H   H1249     1.0  0.57392  0.17674  0.20150  1.0000
  H   H1250     1.0  0.55904  0.19219  0.21540  1.0000
  H   H1251     1.0  0.57784  0.17723  0.22587  1.0000
  H   H1252     1.0  0.57556  0.14287  0.23076  1.0000
  H   H1253     1.0  0.57178  0.14221  0.20632  1.0000
  H   H1254     1.0  0.55519  0.13246  0.22405  1.0000
  H   H1255     1.0  0.55466  0.16412  0.25042  1.0000
  H   H1256     1.0  0.53432  0.15385  0.24356  1.0000
  H   H1257     1.0  0.53603  0.17893  0.23989  1.0000
  N   N80       1.0  0.63488  0.18952  0.08117  1.0000
  C   C782      1.0  0.64113  0.17030  0.07601  1.0000
  C   C783      1.0  0.62746  0.20089  0.06459  1.0000
  C   C784      1.0  0.65091  0.19854  0.08756  1.0000
  C   C785      1.0  0.61991  0.18839  0.09662  1.0000
  H   H1258     1.0  0.64680  0.16139  0.08826  1.0000
  H   H1259     1.0  0.65235  0.17053  0.06428  1.0000
  H   H1260     1.0  0.62924  0.16306  0.07137  1.0000
  H   H1261     1.0  0.62248  0.21543  0.06812  1.0000
  H   H1262     1.0  0.63841  0.20215  0.05264  1.0000
  H   H1263     1.0  0.61531  0.19445  0.05948  1.0000
  H   H1264     1.0  0.64665  0.21319  0.09129  1.0000
  H   H1265     1.0  0.66273  0.19931  0.07648  1.0000
  H   H1266     1.0  0.61512  0.20265  0.10108  1.0000
  H   H1267     1.0  0.62494  0.17975  0.10932  1.0000
  H   H1268     1.0  0.60742  0.18180  0.09242  1.0000
  H   H1269     1.0  0.55126  0.06501  0.00577  1.0000
  C   C786      1.0  0.65853  0.36219  0.03687  1.0000
  C   C787      1.0  0.53610  0.06704  0.00763  1.0000
  C   C788      1.0  0.66232  0.04006  0.26489  1.0000
  H   H1270     1.0  0.69010  0.37730  0.04511  1.0000
  H   H1271     1.0  0.67863  0.04326  0.02857  1.0000
  C   C789      1.0  0.65965  0.04530  0.23115  1.0000
  H   H1272     1.0  0.53172  0.00673  0.00921  1.0000
  C   C790      1.0  0.68095  0.06271  0.24627  1.0000
  H   H1273     1.0  0.73442  0.36623  0.13853  1.0000
  H   H1274     1.0  0.71473  0.32651  0.16796  1.0000
  H   H1275     1.0  0.72675  0.11714  0.33243  1.0000
  H   H1276     1.0  0.70078  0.30520  0.13706  1.0000
  Fe  Fe160     1.0  0.64872  0.08797  0.33330  1.0000
  C   C791      1.0  0.72865  0.29042  0.17286  1.0000
  C   C792      1.0  0.64404  0.04582  0.01604  1.0000
  H   H1277     1.0  0.69395  0.30165  0.16169  1.0000
  C   C793      1.0  0.50523  0.05762  0.00212  1.0000
  H   H1278     1.0  0.59006  0.49432  0.01608  1.0000
  C   C794      1.0  0.66357  0.00097  0.30890  1.0000
  H   H1279     1.0  0.67736  0.35271  0.00455  1.0000
  H   H1280     1.0  0.74732  0.42852  0.18969  1.0000
  H   H1281     1.0  0.61472  0.02382  0.32680  1.0000
  H   H1282     1.0  0.53831  0.13797  0.00262  1.0000
  C   C795      1.0  0.63029  0.48945  0.01755  1.0000
  H   H1283     1.0  0.67594  0.30888  0.00652  1.0000
  H   H1284     1.0  0.56839  0.49084  0.02972  1.0000
  H   H1285     1.0  0.50147  0.09559  0.02814  1.0000
  C   C796      1.0  0.60212  0.99903  0.02100  1.0000
  H   H1286     1.0  0.64606  0.03459  0.00603  1.0000
  H   H1287     1.0  0.49965  0.14935  0.10758  1.0000
  H   H1288     1.0  0.50909  0.49771  0.12368  1.0000
  C   C797      1.0  0.51033  0.49820  0.10841  1.0000
  H   H1289     1.0  0.69492  0.12144  0.35594  1.0000
  H   H1290     1.0  0.52067  0.09593  0.52133  1.0000
  Fe  Fe161     1.0  0.52653  0.06543  0.38909  1.0000
  H   H1291     1.0  0.70637  0.11565  0.37744  1.0000
  S   S318      1.0  0.54955  0.06063  0.36576  1.0000
  S   S319      1.0  0.51505  0.09362  0.39817  1.0000
  S   S320      1.0  0.50861  0.10119  0.58037  1.0000
  S   S321      1.0  0.52632  0.05138  0.41877  1.0000
  H   H1292     1.0  0.56785  0.10252  0.65733  1.0000
  H   H1293     1.0  0.62932  0.03278  0.37392  1.0000
  S   S322      1.0  0.50803  0.01928  0.61377  1.0000
  Fe  Fe162     1.0  0.53331  0.08260  0.59110  1.0000
  H   H1294     1.0  0.50175  0.03546  0.55515  1.0000
  S   S323      1.0  0.56293  0.09209  0.59035  1.0000
  H   H1295     1.0  0.58439  0.03367  0.66191  1.0000
  H   H1296     1.0  0.53377  0.15136  0.64502  1.0000
  S   S324      1.0  0.51751  0.07135  0.61752  1.0000
  S   S325      1.0  0.52818  0.05838  0.57439  1.0000
  H   H1297     1.0  0.51416  0.10843  0.63142  1.0000
  C   C798      1.0  0.52106  0.09422  0.49108  1.0000
  H   H1298     1.0  0.51127  0.01495  0.54386  1.0000
  C   C799      1.0  0.57512  0.10191  0.64346  1.0000
  C   C800      1.0  0.73287  0.09509  0.35426  1.0000
  C   C801      1.0  0.50105  0.14203  0.61561  1.0000
  S   S326      1.0  0.65288  0.07887  0.65989  1.0000
  H   H1299     1.0  0.59912  0.01919  0.38617  1.0000
  C   C802      1.0  0.73515  0.11269  0.34428  1.0000
  S   S327      1.0  0.60506  0.11457  0.65950  1.0000
  C   C803      1.0  0.62053  0.00201  0.35879  1.0000
  H   H1300     1.0  0.59211  0.06736  0.66191  1.0000
  C   C804      1.0  0.57467  0.09677  0.61020  1.0000
  C   C805      1.0  0.59354  0.10118  0.60752  1.0000
  C   C806      1.0  0.60325  0.10572  0.62275  1.0000
  C   C807      1.0  0.59399  0.10642  0.64073  1.0000
  H   H1301     1.0  0.62882  0.02870  0.63124  1.0000
  C   C808      1.0  0.56561  0.09669  0.62834  1.0000
  H   H1302     1.0  0.60063  0.10132  0.59352  1.0000
  H   H1303     1.0  0.61766  0.10947  0.62042  1.0000
  H   H1304     1.0  0.61407  0.07424  0.65043  1.0000
  H   H1305     1.0  0.55116  0.09308  0.63059  1.0000
  C   C809      1.0  0.56995  0.07330  0.36284  1.0000
  C   C810      1.0  0.57654  0.08177  0.37775  1.0000
  C   C811      1.0  0.59401  0.08984  0.37540  1.0000
  C   C812      1.0  0.60503  0.08935  0.35820  1.0000
  C   C813      1.0  0.59816  0.08136  0.34315  1.0000
  C   C814      1.0  0.58066  0.07345  0.34546  1.0000
  H   H1306     1.0  0.56838  0.08172  0.39121  1.0000
  H   H1307     1.0  0.59915  0.09613  0.38708  1.0000
  H   H1308     1.0  0.69890  0.12969  0.63747  1.0000
  C   C815      1.0  0.67555  0.09630  0.37778  1.0000
  Fe  Fe163     1.0  0.51030  0.04873  0.60019  1.0000
  H   H1309     1.0  0.63604  0.03665  0.65253  1.0000
  H   H1310     1.0  0.67638  0.09419  0.36248  1.0000
  H   H1311     1.0  0.68766  0.08759  0.38383  1.0000
  H   H1312     1.0  0.69469  0.13868  0.37287  1.0000
  H   H1313     1.0  0.67597  0.13378  0.40384  1.0000
  S   S328      1.0  0.52069  0.09361  0.45251  1.0000
  H   H1314     1.0  0.53623  0.14711  0.60179  1.0000
  H   H1315     1.0  0.68765  0.11065  0.40779  1.0000
  S   S329      1.0  0.62755  0.09821  0.35611  1.0000
  H   H1316     1.0  0.58417  0.01094  0.36994  1.0000
  H   H1317     1.0  0.60334  0.06374  0.62041  1.0000
  H   H1318     1.0  0.53325  0.01830  0.58010  1.0000
  H   H1319     1.0  0.65968  0.12560  0.35699  1.0000
  C   C816      1.0  0.72626  0.13769  0.62552  1.0000
  H   H1320     1.0  0.63511  0.03557  0.34886  1.0000
  C   C817      1.0  0.71395  0.12630  0.63714  1.0000
  H   H1321     1.0  0.52885  0.11734  0.64740  1.0000
  C   C818      1.0  0.59934  0.03002  0.65715  1.0000
  C   C819      1.0  0.52685  0.00503  0.58265  1.0000
  C   C820      1.0  0.51420  0.00182  0.59836  1.0000
  N   N81       1.0  0.60772  0.04618  0.64608  1.0000
  S   S330      1.0  0.71589  0.07959  0.34879  1.0000
  C   C821      1.0  0.74592  0.13359  0.62484  1.0000
  H   H1322     1.0  0.59718  0.03994  0.61999  1.0000
  H   H1323     1.0  0.52262  0.16720  0.62742  1.0000
  H   H1324     1.0  0.66238  0.11353  0.40858  1.0000
  H   H1325     1.0  0.52014  0.01384  0.40287  1.0000
  H   H1326     1.0  0.59985  0.01758  0.64875  1.0000
  C   C822      1.0  0.49972  0.02636  0.54369  1.0000
  C   C823      1.0  0.51301  0.08674  0.47624  1.0000
  C   C824      1.0  0.62758  0.04082  0.64012  1.0000
  C   C825      1.0  0.51622  0.12084  0.63917  1.0000
  H   H1327     1.0  0.53357  0.12222  0.60460  1.0000
  C   C826      1.0  0.72116  0.11050  0.64817  1.0000
  C   C827      1.0  0.59428  0.02165  0.37160  1.0000
  C   C828      1.0  0.52096  0.15406  0.63690  1.0000
  H   H1328     1.0  0.58219  0.05637  0.63306  1.0000
  H   H1329     1.0  0.61588  0.04966  0.35931  1.0000
  N   N82       1.0  0.67615  0.11646  0.38067  1.0000
  H   H1330     1.0  0.64627  0.12243  0.37913  1.0000
  H   H1331     1.0  0.74542  0.12185  0.53773  1.0000
  Fe  Fe164     1.0  0.51245  0.07893  0.42765  1.0000
  H   H1332     1.0  0.72049  0.14981  0.61700  1.0000
  H   H1333     1.0  0.53239  0.10343  0.48787  1.0000
  S   S331      1.0  0.70650  0.09559  0.66334  1.0000
  H   H1334     1.0  0.59553  0.03862  0.33624  1.0000
  H   H1335     1.0  0.66224  0.09058  0.38416  1.0000
  H   H1336     1.0  0.74475  0.09969  0.55191  1.0000
  C   C829      1.0  0.69377  0.12343  0.37134  1.0000
  H   H1337     1.0  0.65987  0.14265  0.37404  1.0000
  C   C830      1.0  0.65982  0.12732  0.37238  1.0000
  C   C831      1.0  0.67550  0.11872  0.40114  1.0000
  H   H1338     1.0  0.73222  0.12051  0.56030  1.0000
  N   N83       1.0  0.51824  0.13794  0.62602  1.0000
  C   C832      1.0  0.60686  0.06222  0.65791  1.0000
  H   H1339     1.0  0.58619  0.03569  0.37057  1.0000
  C   C833      1.0  0.59713  0.05175  0.62916  1.0000
  C   C834      1.0  0.74081  0.10641  0.64749  1.0000
  S   S332      1.0  0.66778  0.06312  0.34284  1.0000
  H   H1340     1.0  0.54805  0.13248  0.61974  1.0000
  H   H1341     1.0  0.63436  0.05277  0.63185  1.0000
  C   C835      1.0  0.51447  0.08996  0.51006  1.0000
  C   C836      1.0  0.53471  0.13483  0.61246  1.0000
  N   N84       1.0  0.61027  0.02085  0.35712  1.0000
  C   C837      1.0  0.62322  0.03533  0.35993  1.0000
  C   C838      1.0  0.74539  0.11515  0.55250  1.0000
  H   H1342     1.0  0.50369  0.12253  0.64937  1.0000
  H   H1343     1.0  0.74660  0.09427  0.65597  1.0000
  Fe  Fe165     1.0  0.50229  0.07601  0.56561  1.0000
  H   H1344     1.0  0.50154  0.03523  0.53005  1.0000
  C   C839      1.0  0.74850  0.12453  0.34950  1.0000
  C   C840      1.0  0.51520  0.99998  0.40668  1.0000
  H   H1345     1.0  0.50183  0.15503  0.60579  1.0000
  C   C841      1.0  0.74411  0.08963  0.36955  1.0000
  H   H1346     1.0  0.50873  0.15679  0.64722  1.0000
  H   H1347     1.0  0.74255  0.07608  0.37742  1.0000
  C   C842      1.0  0.49943  0.07856  0.51430  1.0000
  C   C843      1.0  0.60309  0.02444  0.33810  1.0000
  H   H1348     1.0  0.59308  0.01392  0.33561  1.0000
  H   H1349     1.0  0.63282  0.00116  0.34815  1.0000
  H   H1350     1.0  0.62602  0.99871  0.37302  1.0000
  H   H1351     1.0  0.57541  0.06730  0.33376  1.0000
  H   H1352     1.0  0.74861  0.11524  0.58973  1.0000
  S   S333      1.0  0.58354  0.46671  0.92611  1.0000
  H   H1353     1.0  0.53969  0.46893  0.91906  1.0000
  Fe  Fe166     1.0  0.61006  0.47458  0.90921  1.0000
  S   S334      1.0  0.62350  0.45591  0.88706  1.0000
  H   H1354     1.0  0.54321  0.12774  0.94405  1.0000
  H   H1355     1.0  0.68638  0.15908  0.71334  1.0000
  S   S335      1.0  0.59642  0.13982  0.96766  1.0000
  Fe  Fe167     1.0  0.60494  0.16573  0.85868  1.0000
  S   S336      1.0  0.59492  0.19430  0.86787  1.0000
  S   S337      1.0  0.61250  0.14013  0.87868  1.0000
  Fe  Fe168     1.0  0.60448  0.17839  0.81634  1.0000
  S   S338      1.0  0.59468  0.20825  0.82270  1.0000
  S   S339      1.0  0.60519  0.17190  0.78523  1.0000
  Fe  Fe169     1.0  0.61576  0.20550  0.84510  1.0000
  S   S340      1.0  0.63848  0.22602  0.84852  1.0000
  Fe  Fe170     1.0  0.57466  0.19470  0.84493  1.0000
  S   S341      1.0  0.54409  0.20616  0.84969  1.0000
  S   S342      1.0  0.62699  0.17654  0.83696  1.0000
  S   S343      1.0  0.58321  0.16526  0.83751  1.0000
  H   H1356     1.0  0.73895  0.33204  0.98939  1.0000
  S   S344      1.0  0.62674  0.08520  0.69968  1.0000
  N   N85       1.0  0.53729  0.13259  0.97343  1.0000
  H   H1357     1.0  0.62925  0.20973  0.91234  1.0000
  S   S345      1.0  0.67161  0.07614  0.70074  1.0000
  H   H1358     1.0  0.52432  0.01023  0.98556  1.0000
  Fe  Fe171     1.0  0.64816  0.06321  0.68864  1.0000
  S   S346      1.0  0.63774  0.03349  0.69181  1.0000
  Fe  Fe172     1.0  0.65056  0.09971  0.70931  1.0000
  S   S347      1.0  0.65434  0.11049  0.73806  1.0000
  C   C844      1.0  0.61467  0.00526  0.98304  1.0000
  S   S348      1.0  0.65488  0.11758  0.68185  1.0000
  Fe  Fe173     1.0  0.67628  0.35332  0.91084  1.0000
  S   S349      1.0  0.70741  0.35470  0.91276  1.0000
  S   S350      1.0  0.65234  0.37382  0.92062  1.0000
  Fe  Fe174     1.0  0.67963  0.31158  0.90235  1.0000
  S   S351      1.0  0.71128  0.30942  0.90404  1.0000
  S   S352      1.0  0.65687  0.29076  0.90020  1.0000
  Fe  Fe175     1.0  0.70637  0.32646  0.92951  1.0000
  S   S353      1.0  0.72426  0.32287  0.95500  1.0000
  Fe  Fe176     1.0  0.71085  0.33793  0.88733  1.0000
  H   H1359     1.0  0.61806  0.49254  0.97216  1.0000
  S   S354      1.0  0.67522  0.32615  0.92940  1.0000
  S   S355      1.0  0.67948  0.33895  0.88388  1.0000
  H   H1360     1.0  0.74776  0.33427  0.91930  1.0000
  C   C845      1.0  0.53174  0.99995  0.99573  1.0000
  C   C846      1.0  0.54770  0.13686  0.98947  1.0000
  C   C847      1.0  0.71430  0.32241  0.97870  1.0000
  H   H1361     1.0  0.58761  0.47395  0.84575  1.0000
  C   C848      1.0  0.69638  0.31621  0.98367  1.0000
  H   H1362     1.0  0.51868  0.11513  0.99113  1.0000
  H   H1363     1.0  0.68804  0.31221  0.97284  1.0000
  H   H1364     1.0  0.66198  0.21207  0.88317  1.0000
  C   C849      1.0  0.66996  0.00879  0.69138  1.0000
  H   H1365     1.0  0.69445  0.13511  0.67931  1.0000
  H   H1366     1.0  0.64667  0.18887  0.86782  1.0000
  H   H1367     1.0  0.56196  0.11982  0.95893  1.0000
  C   C850      1.0  0.61872  0.15430  0.77265  1.0000
  C   C851      1.0  0.63353  0.14292  0.78050  1.0000
  C   C852      1.0  0.64415  0.12956  0.76974  1.0000
  C   C853      1.0  0.64001  0.12719  0.75111  1.0000
  C   C854      1.0  0.62511  0.13846  0.74331  1.0000
  C   C855      1.0  0.61462  0.15197  0.75399  1.0000
  H   H1368     1.0  0.63691  0.14451  0.79479  1.0000
  H   H1369     1.0  0.65562  0.12095  0.77596  1.0000
  H   H1370     1.0  0.62175  0.13688  0.72901  1.0000
  H   H1371     1.0  0.60326  0.16068  0.74771  1.0000
  C   C856      1.0  0.64293  0.24444  0.86273  1.0000
  C   C857      1.0  0.63017  0.25052  0.87726  1.0000
  C   C858      1.0  0.63473  0.26464  0.88849  1.0000
  C   C859      1.0  0.65201  0.27307  0.88533  1.0000
  C   C860      1.0  0.66469  0.26710  0.87071  1.0000
  C   C861      1.0  0.66019  0.25287  0.85958  1.0000
  H   H1372     1.0  0.61674  0.24444  0.87981  1.0000
  H   H1373     1.0  0.62476  0.26909  0.89972  1.0000
  H   H1374     1.0  0.67803  0.27337  0.86801  1.0000
  H   H1375     1.0  0.67021  0.24836  0.84840  1.0000
  C   C862      1.0  0.52423  0.19584  0.84267  1.0000
  C   C863      1.0  0.52613  0.17958  0.83293  1.0000
  C   C864      1.0  0.50614  0.20465  0.84627  1.0000
  H   H1376     1.0  0.53990  0.17247  0.83040  1.0000
  C   C865      1.0  0.52850  0.11455  0.97823  1.0000
  H   H1377     1.0  0.67698  0.19334  0.89384  1.0000
  H   H1378     1.0  0.55742  0.14443  0.95252  1.0000
  S   S356      1.0  0.62504  0.48102  0.93409  1.0000
  C   C866      1.0  0.60053  0.13939  0.94295  1.0000
  C   C867      1.0  0.60870  0.12333  0.93481  1.0000
  C   C868      1.0  0.61219  0.12371  0.91505  1.0000
  C   C869      1.0  0.60726  0.13999  0.90333  1.0000
  C   C870      1.0  0.59870  0.15589  0.91149  1.0000
  C   C871      1.0  0.59554  0.15565  0.93124  1.0000
  H   H1379     1.0  0.61259  0.11072  0.94371  1.0000
  H   H1380     1.0  0.61877  0.11133  0.90882  1.0000
  H   H1381     1.0  0.59447  0.16834  0.90259  1.0000
  H   H1382     1.0  0.58909  0.16808  0.93747  1.0000
  C   C872      1.0  0.63235  0.43336  0.89642  1.0000
  C   C873      1.0  0.62731  0.42682  0.91508  1.0000
  C   C874      1.0  0.63378  0.40864  0.92223  1.0000
  C   C875      1.0  0.64572  0.39694  0.91099  1.0000
  C   C876      1.0  0.65103  0.40350  0.89234  1.0000
  C   C877      1.0  0.64421  0.42162  0.88504  1.0000
  H   H1383     1.0  0.61825  0.43570  0.92402  1.0000
  H   H1384     1.0  0.62955  0.40368  0.93663  1.0000
  H   H1385     1.0  0.66016  0.39458  0.88352  1.0000
  H   H1386     1.0  0.64820  0.42660  0.87059  1.0000
  H   H1387     1.0  0.68297  0.13953  0.73080  1.0000
  H   H1388     1.0  0.50451  0.21722  0.85384  1.0000
  H   H1389     1.0  0.71433  0.10483  0.70501  1.0000
  C   C878      1.0  0.52622  0.47645  0.91669  1.0000
  C   C879      1.0  0.72502  0.32732  0.99305  1.0000
  H   H1390     1.0  0.52952  0.20567  0.80147  1.0000
  S   S357      1.0  0.62343  0.09348  0.99638  1.0000
  H   H1391     1.0  0.58011  0.20693  0.78471  1.0000
  H   H1392     1.0  0.52604  0.19280  0.77124  1.0000
  H   H1393     1.0  0.66046  0.16946  0.87891  1.0000
  C   C880      1.0  0.52487  0.05498  0.99980  1.0000
  H   H1394     1.0  0.51190  0.16050  0.81807  1.0000
  C   C881      1.0  0.51021  0.17278  0.82605  1.0000
  H   H1395     1.0  0.56643  0.46212  0.84546  1.0000
  H   H1396     1.0  0.61977  0.00761  0.96836  1.0000
  S   S358      1.0  0.73154  0.34365  0.86160  1.0000
  H   H1397     1.0  0.67788  0.02090  0.69246  1.0000
  C   C882      1.0  0.61954  0.48667  0.98653  1.0000
  H   H1398     1.0  0.64897  0.18287  0.92786  1.0000
  C   C883      1.0  0.53964  0.19861  0.76581  1.0000
  H   H1399     1.0  0.61728  0.19208  0.90263  1.0000
  C   C884      1.0  0.54337  0.21067  0.79579  1.0000
  H   H1400     1.0  0.66283  0.16668  0.91348  1.0000
  H   H1401     1.0  0.56845  0.48492  0.83271  1.0000
  N   N86       1.0  0.61995  0.33996  0.89186  1.0000
  C   C885      1.0  0.62683  0.32675  0.87758  1.0000
  C   C886      1.0  0.59923  0.34024  0.89467  1.0000
  C   C887      1.0  0.62548  0.35914  0.88535  1.0000
  C   C888      1.0  0.62827  0.33369  0.90994  1.0000
  H   H1402     1.0  0.62091  0.33097  0.86369  1.0000
  H   H1403     1.0  0.62311  0.31209  0.88219  1.0000
  H   H1404     1.0  0.64245  0.32606  0.87526  1.0000
  H   H1405     1.0  0.59366  0.35003  0.90544  1.0000
  H   H1406     1.0  0.59246  0.34495  0.88130  1.0000
  H   H1407     1.0  0.59465  0.32597  0.89962  1.0000
  H   H1408     1.0  0.62056  0.36944  0.89586  1.0000
  H   H1409     1.0  0.61964  0.36438  0.87164  1.0000
  H   H1410     1.0  0.64106  0.35951  0.88343  1.0000
  H   H1411     1.0  0.62373  0.34344  0.92105  1.0000
  H   H1412     1.0  0.64383  0.33327  0.90818  1.0000
  H   H1413     1.0  0.62461  0.31920  0.91531  1.0000
  H   H1414     1.0  0.53634  0.21307  0.75909  1.0000
  H   H1415     1.0  0.55227  0.21051  0.80800  1.0000
  C   C889      1.0  0.52479  0.49616  0.91406  1.0000
  H   H1416     1.0  0.71752  0.13436  0.73302  1.0000
  Fe  Fe177     1.0  0.59774  0.47562  0.95045  1.0000
  C   C890      1.0  0.55046  0.13108  0.95646  1.0000
  C   C891      1.0  0.57197  0.47619  0.84592  1.0000
  Fe  Fe178     1.0  0.59885  0.11315  0.98746  1.0000
  Fe  Fe179     1.0  0.60344  0.07042  0.99729  1.0000
  Fe  Fe180     1.0  0.63229  0.10134  0.67147  1.0000
  C   C892      1.0  0.65042  0.01118  0.69058  1.0000
  H   H1417     1.0  0.62706  0.21068  0.88732  1.0000
  H   H1418     1.0  0.61386  0.05837  0.67126  1.0000
  C   C893      1.0  0.62906  0.49637  0.99864  1.0000
  H   H1419     1.0  0.56321  0.01804  0.99835  1.0000
  H   H1420     1.0  0.69881  0.10820  0.72594  1.0000
  H   H1421     1.0  0.67321  0.13990  0.70846  1.0000
  S   S359      1.0  0.59714  0.45940  0.97896  1.0000
  H   H1422     1.0  0.54083  0.22562  0.79011  1.0000
  S   S360      1.0  0.61163  0.04375  0.98265  1.0000
  H   H1423     1.0  0.70739  0.15446  0.68428  1.0000
  N   N87       1.0  0.70320  0.13351  0.70771  1.0000
  N   N88       1.0  0.64739  0.18929  0.89788  1.0000
  H   H1424     1.0  0.63528  0.17013  0.88152  1.0000
  H   H1425     1.0  0.68956  0.10892  0.70329  1.0000
  C   C894      1.0  0.64747  0.17898  0.88080  1.0000
  H   H1426     1.0  0.58507  0.47140  0.88057  1.0000
  C   C895      1.0  0.56949  0.47337  0.87997  1.0000
  H   H1427     1.0  0.71932  0.13171  0.68104  1.0000
  H   H1428     1.0  0.51437  0.14513  0.95759  1.0000
  C   C896      1.0  0.51015  0.46641  0.91605  1.0000
  H   H1429     1.0  0.63776  0.16590  0.91631  1.0000
  H   H1430     1.0  0.66356  0.20979  0.90831  1.0000
  C   C897      1.0  0.71937  0.13842  0.71754  1.0000
  C   C898      1.0  0.56197  0.01137  0.98500  1.0000
  C   C899      1.0  0.62946  0.20096  0.90018  1.0000
  H   H1431     1.0  0.72109  0.15385  0.71555  1.0000
  C   C900      1.0  0.70621  0.13902  0.68722  1.0000
  N   N89       1.0  0.55238  0.19880  0.78117  1.0000
  C   C901      1.0  0.57023  0.20654  0.77343  1.0000
  C   C902      1.0  0.55631  0.17933  0.78966  1.0000
  H   H1432     1.0  0.54605  0.18972  0.75459  1.0000
  H   H1433     1.0  0.57767  0.19766  0.76268  1.0000
  H   H1434     1.0  0.56789  0.22114  0.76672  1.0000
  H   H1435     1.0  0.56552  0.17901  0.80162  1.0000
  H   H1436     1.0  0.56382  0.17012  0.77923  1.0000
  H   H1437     1.0  0.54316  0.17279  0.79516  1.0000
  C   C903      1.0  0.66320  0.20163  0.89576  1.0000
  C   C904      1.0  0.64936  0.17561  0.91464  1.0000
  H   H1438     1.0  0.65754  0.36885  0.99915  1.0000
  S   S361      1.0  0.57992  0.08992  0.98593  1.0000
  C   C905      1.0  0.60947  0.02076  0.99361  1.0000
  H   H1439     1.0  0.56413  0.45911  0.88052  1.0000
  H   H1440     1.0  0.73274  0.13102  0.71208  1.0000
  H   H1441     1.0  0.52872  0.16169  0.96603  1.0000
  C   C906      1.0  0.68574  0.14351  0.71538  1.0000
  H   H1442     1.0  0.53138  0.04382  0.99172  1.0000
  Fe  Fe181     1.0  0.67513  0.09366  0.67273  1.0000
  C   C907      1.0  0.70150  0.11296  0.71070  1.0000
  C   C908      1.0  0.52252  0.14788  0.96962  1.0000
  H   H1443     1.0  0.51141  0.45115  0.91792  1.0000
  H   H1444     1.0  0.53714  0.49505  0.87540  1.0000
  H   H1445     1.0  0.55533  0.02223  0.97485  1.0000
  H   H1446     1.0  0.60704  0.02561  0.67006  1.0000
  H   H1447     1.0  0.53704  0.47392  0.86366  1.0000
  N   N90       1.0  0.56411  0.48532  0.86290  1.0000
  C   C909      1.0  0.61144  0.46992  0.99324  1.0000
  H   H1448     1.0  0.55484  0.15021  0.98633  1.0000
  C   C910      1.0  0.54336  0.48774  0.86295  1.0000
  H   H1449     1.0  0.51238  0.14937  0.98219  1.0000
  H   H1450     1.0  0.56368  0.47982  0.89299  1.0000
  Fe  Fe182     1.0  0.57401  0.49738  0.92096  1.0000
  H   H1451     1.0  0.57649  0.00774  0.97898  1.0000
  H   H1452     1.0  0.53926  0.10271  0.98124  1.0000
  H   H1453     1.0  0.74364  0.29979  0.92550  1.0000
  H   H1454     1.0  0.55883  0.12555  0.99274  1.0000
  H   H1455     1.0  0.52043  0.11080  0.96654  1.0000
  H   H1456     1.0  0.50581  0.13914  0.87427  1.0000
  H   H1457     1.0  0.57315  0.49172  0.98736  1.0000
  H   H1458     1.0  0.68104  0.37623  0.99469  1.0000
  H   H1459     1.0  0.53873  0.49637  0.85008  1.0000
  H   H1460     1.0  0.49972  0.46800  0.96982  1.0000
  H   H1461     1.0  0.49892  0.11549  0.87994  1.0000
  S   S362      1.0  0.58919  0.50490  0.10658  1.0000
  S   S363      1.0  0.59913  0.52566  0.06441  1.0000
  H   H1462     1.0  0.63678  0.56387  0.01518  1.0000
  Fe  Fe183     1.0  0.60973  0.52564  0.09323  1.0000
  S   S364      1.0  0.61229  0.55531  0.10137  1.0000
  H   H1463     1.0  0.62801  0.82299  0.00290  1.0000
  S   S365      1.0  0.57105  0.92448  0.02449  1.0000
  C   C911      1.0  0.74655  0.92489  0.30422  1.0000
  Fe  Fe184     1.0  0.58404  0.89595  0.01773  1.0000
  S   S366      1.0  0.58526  0.86729  0.03472  1.0000
  H   H1464     1.0  0.58129  0.90675  0.27701  1.0000
  S   S367      1.0  0.64305  0.90777  0.30161  1.0000
  Fe  Fe185     1.0  0.68560  0.87256  0.31413  1.0000
  S   S368      1.0  0.68369  0.88924  0.28572  1.0000
  C   C912      1.0  0.55250  0.83013  0.12791  1.0000
  Fe  Fe186     1.0  0.67333  0.91387  0.30244  1.0000
  S   S369      1.0  0.68849  0.94108  0.29710  1.0000
  Fe  Fe187     1.0  0.65357  0.88156  0.28704  1.0000
  S   S370      1.0  0.63551  0.87629  0.26285  1.0000
  S   S371      1.0  0.65612  0.86292  0.31427  1.0000
  Fe  Fe188     1.0  0.60164  0.82605  0.13953  1.0000
  S   S372      1.0  0.59198  0.79839  0.13261  1.0000
  S   S373      1.0  0.59879  0.85451  0.12244  1.0000
  Fe  Fe189     1.0  0.61387  0.81044  0.17918  1.0000
  S   S374      1.0  0.60421  0.78174  0.17523  1.0000
  S   S375      1.0  0.63065  0.81259  0.20527  1.0000
  Fe  Fe190     1.0  0.61827  0.78495  0.14581  1.0000
  S   S376      1.0  0.64180  0.76469  0.13337  1.0000
  Fe  Fe191     1.0  0.57867  0.79726  0.16245  1.0000
  S   S377      1.0  0.54837  0.79158  0.17272  1.0000
  S   S378      1.0  0.62889  0.81310  0.15019  1.0000
  S   S379      1.0  0.58728  0.82552  0.16884  1.0000
  Fe  Fe192     1.0  0.69669  0.62074  0.09999  1.0000
  S   S380      1.0  0.72411  0.62955  0.08535  1.0000
  S   S381      1.0  0.69139  0.58972  0.10169  1.0000
  Fe  Fe193     1.0  0.68428  0.66046  0.11136  1.0000
  S   S382      1.0  0.71081  0.67199  0.09776  1.0000
  S   S383      1.0  0.65855  0.67590  0.12596  1.0000
  Fe  Fe194     1.0  0.70652  0.65481  0.07353  1.0000
  S   S384      1.0  0.70919  0.66882  0.04343  1.0000
  Fe  Fe195     1.0  0.72629  0.64560  0.11080  1.0000
  H   H1465     1.0  0.56308  0.85910  0.14484  1.0000
  S   S385      1.0  0.67899  0.64484  0.08636  1.0000
  S   S386      1.0  0.69991  0.63524  0.12619  1.0000
  C   C913      1.0  0.69153  0.63150  0.00968  1.0000
  N   N91       1.0  0.56683  0.51284  0.00698  1.0000
  H   H1466     1.0  0.54195  0.53177  0.00477  1.0000
  C   C914      1.0  0.70323  0.65773  0.02363  1.0000
  C   C915      1.0  0.69640  0.63980  0.02567  1.0000
  H   H1467     1.0  0.65119  0.57619  0.06131  1.0000
  H   H1468     1.0  0.54058  0.51345  0.02391  1.0000
  H   H1469     1.0  0.53193  0.87422  0.11860  1.0000
  H   H1470     1.0  0.69488  0.63230  0.03955  1.0000
  Fe  Fe196     1.0  0.62128  0.50219  0.06050  1.0000
  C   C916      1.0  0.51951  0.90855  0.01531  1.0000
  H   H1471     1.0  0.65045  0.59345  0.13763  1.0000
  C   C917      1.0  0.59205  0.89505  0.28048  1.0000
  C   C918      1.0  0.63919  0.63040  0.12929  1.0000
  C   C919      1.0  0.64584  0.73994  0.13131  1.0000
  C   C920      1.0  0.63286  0.72700  0.13857  1.0000
  C   C921      1.0  0.63700  0.70749  0.13685  1.0000
  C   C922      1.0  0.65416  0.70064  0.12793  1.0000
  C   C923      1.0  0.66715  0.71357  0.12070  1.0000
  C   C924      1.0  0.66299  0.73306  0.12238  1.0000
  H   H1472     1.0  0.61961  0.73201  0.14547  1.0000
  H   H1473     1.0  0.62680  0.69767  0.14248  1.0000
  H   H1474     1.0  0.68046  0.70858  0.11392  1.0000
  H   H1475     1.0  0.67320  0.74290  0.11681  1.0000
  C   C925      1.0  0.52766  0.79209  0.16021  1.0000
  C   C926      1.0  0.52833  0.79078  0.14067  1.0000
  H   H1476     1.0  0.51217  0.79003  0.11634  1.0000
  H   H1477     1.0  0.54178  0.78895  0.13275  1.0000
  C   C927      1.0  0.67020  0.56548  0.02979  1.0000
  N   N92       1.0  0.65326  0.55728  0.03935  1.0000
  H   H1478     1.0  0.63176  0.62109  0.12113  1.0000
  C   C928      1.0  0.63186  0.83066  0.22095  1.0000
  C   C929      1.0  0.62040  0.84753  0.21979  1.0000
  C   C930      1.0  0.62179  0.86125  0.23267  1.0000
  C   C931      1.0  0.63472  0.85843  0.24685  1.0000
  C   C932      1.0  0.64620  0.84157  0.24801  1.0000
  C   C933      1.0  0.64473  0.82780  0.23520  1.0000
  H   H1479     1.0  0.61044  0.85002  0.20897  1.0000
  H   H1480     1.0  0.61285  0.87420  0.23151  1.0000
  H   H1481     1.0  0.65619  0.83909  0.25880  1.0000
  H   H1482     1.0  0.65367  0.81485  0.23633  1.0000
  C   C934      1.0  0.69014  0.97917  0.30014  1.0000
  C   C935      1.0  0.67855  0.96396  0.30197  1.0000
  C   C936      1.0  0.65942  0.96738  0.30732  1.0000
  C   C937      1.0  0.51370  0.92401  0.00303  1.0000
  S   S387      1.0  0.71258  0.85399  0.31976  1.0000
  C   C938      1.0  0.65304  0.63414  0.15844  1.0000
  C   C939      1.0  0.58904  0.86404  0.05911  1.0000
  C   C940      1.0  0.59105  0.87926  0.06963  1.0000
  C   C941      1.0  0.59412  0.87608  0.08900  1.0000
  C   C942      1.0  0.59532  0.85769  0.09799  1.0000
  C   C943      1.0  0.59322  0.84246  0.08749  1.0000
  C   C944      1.0  0.59007  0.84566  0.06813  1.0000
  H   H1483     1.0  0.59028  0.89348  0.06284  1.0000
  H   H1484     1.0  0.59572  0.88793  0.09704  1.0000
  H   H1485     1.0  0.59413  0.82825  0.09424  1.0000
  H   H1486     1.0  0.58851  0.83382  0.06009  1.0000
  H   H1487     1.0  0.56705  0.83353  0.12295  1.0000
  S   S388      1.0  0.60699  0.96047  0.02169  1.0000
  C   C945      1.0  0.64247  0.57141  0.05062  1.0000
  H   H1488     1.0  0.65696  0.62754  0.17250  1.0000
  S   S389      1.0  0.63915  0.50340  0.03329  1.0000
  H   H1489     1.0  0.54049  0.50048  0.10628  1.0000
  C   C946      1.0  0.63445  0.56474  0.10039  1.0000
  C   C947      1.0  0.63543  0.58442  0.09880  1.0000
  C   C948      1.0  0.65290  0.59233  0.09835  1.0000
  C   C949      1.0  0.66940  0.58059  0.10020  1.0000
  C   C950      1.0  0.66842  0.56095  0.10151  1.0000
  C   C951      1.0  0.65104  0.55304  0.10143  1.0000
  H   H1490     1.0  0.62263  0.59354  0.09775  1.0000
  H   H1491     1.0  0.65363  0.60746  0.09682  1.0000
  H   H1492     1.0  0.68115  0.55177  0.10292  1.0000
  H   H1493     1.0  0.65045  0.53788  0.10278  1.0000
  C   C952      1.0  0.60096  0.86805  0.30170  1.0000
  H   H1494     1.0  0.54832  0.84528  0.16129  1.0000
  H   H1495     1.0  0.63711  0.98825  0.31447  1.0000
  C   C953      1.0  0.56836  0.87520  0.29538  1.0000
  H   H1496     1.0  0.57823  0.88723  0.32713  1.0000
  H   H1497     1.0  0.66639  0.57814  0.02009  1.0000
  H   H1498     1.0  0.56358  0.86632  0.30830  1.0000
  C   C954      1.0  0.68274  0.99757  0.30368  1.0000
  C   C955      1.0  0.52121  0.84218  0.13800  1.0000
  H   H1499     1.0  0.53554  0.85525  0.10338  1.0000
  H   H1500     1.0  0.60556  0.90138  0.28189  1.0000
  H   H1501     1.0  0.66688  0.52938  0.04399  1.0000
  S   S390      1.0  0.63337  0.50347  0.08838  1.0000
  S   S391      1.0  0.67676  0.89738  0.33050  1.0000
  C   C956      1.0  0.65710  0.60410  0.14489  1.0000
  C   C957      1.0  0.64139  0.55164  0.02503  1.0000
  H   H1502     1.0  0.62857  0.54522  0.03179  1.0000
  H   H1503     1.0  0.55354  0.81978  0.14052  1.0000
  H   H1504     1.0  0.51175  0.85477  0.14136  1.0000
  H   H1505     1.0  0.62979  0.60778  0.17270  1.0000
  H   H1506     1.0  0.51099  0.88390  0.03267  1.0000
  H   H1507     1.0  0.61951  0.60498  0.15098  1.0000
  H   H1508     1.0  0.66999  0.60782  0.13597  1.0000
  H   H1509     1.0  0.55423  0.53299  0.02574  1.0000
  C   C958      1.0  0.60734  0.98353  0.01042  1.0000
  H   H1510     1.0  0.52073  0.83191  0.15078  1.0000
  N   N93       1.0  0.66136  0.70280  0.05924  1.0000
  C   C959      1.0  0.66213  0.68756  0.04639  1.0000
  C   C960      1.0  0.65339  0.72057  0.04963  1.0000
  C   C961      1.0  0.68057  0.70537  0.06439  1.0000
  C   C962      1.0  0.64941  0.69773  0.07656  1.0000
  H   H1511     1.0  0.66795  0.67391  0.05326  1.0000
  H   H1512     1.0  0.67146  0.69070  0.03338  1.0000
  H   H1513     1.0  0.64796  0.68535  0.04192  1.0000
  H   H1514     1.0  0.65269  0.73237  0.05893  1.0000
  H   H1515     1.0  0.66211  0.72477  0.03649  1.0000
  H   H1516     1.0  0.63887  0.71917  0.04557  1.0000
  H   H1517     1.0  0.68700  0.69216  0.07146  1.0000
  H   H1518     1.0  0.68060  0.71662  0.07423  1.0000
  H   H1519     1.0  0.69008  0.70907  0.05167  1.0000
  H   H1520     1.0  0.64836  0.70902  0.08648  1.0000
  H   H1521     1.0  0.65526  0.68459  0.08438  1.0000
  H   H1522     1.0  0.63487  0.69538  0.07326  1.0000
  H   H1523     1.0  0.62996  0.64357  0.13095  1.0000
  H   H1524     1.0  0.65204  0.63455  0.12057  1.0000
  N   N94       1.0  0.66031  0.76242  0.19014  1.0000
  C   C963      1.0  0.65993  0.78019  0.17775  1.0000
  C   C964      1.0  0.65313  0.74749  0.18019  1.0000
  C   C965      1.0  0.64831  0.76528  0.20767  1.0000
  C   C966      1.0  0.67986  0.75684  0.19489  1.0000
  H   H1525     1.0  0.66523  0.79189  0.18468  1.0000
  H   H1526     1.0  0.64534  0.78483  0.17428  1.0000
  H   H1527     1.0  0.66834  0.77857  0.16408  1.0000
  H   H1528     1.0  0.65291  0.73389  0.18913  1.0000
  H   H1529     1.0  0.63853  0.75150  0.17601  1.0000
  H   H1530     1.0  0.66191  0.74497  0.16691  1.0000
  H   H1531     1.0  0.64818  0.75221  0.21745  1.0000
  H   H1532     1.0  0.63348  0.76970  0.20454  1.0000
  H   H1533     1.0  0.65319  0.77668  0.21538  1.0000
  H   H1534     1.0  0.68070  0.74345  0.20421  1.0000
  H   H1535     1.0  0.68564  0.76788  0.20240  1.0000
  H   H1536     1.0  0.68925  0.75473  0.18191  1.0000
  H   H1537     1.0  0.53410  0.90615  0.01850  1.0000
  H   H1538     1.0  0.59709  0.90090  0.31701  1.0000
  H   H1539     1.0  0.53985  0.86849  0.15218  1.0000
  H   H1540     1.0  0.64361  0.64707  0.16072  1.0000
  C   C967      1.0  0.50998  0.79380  0.17032  1.0000
  H   H1541     1.0  0.66173  0.59703  0.15852  1.0000
  N   N95       1.0  0.73933  0.90602  0.30836  1.0000
  H   H1542     1.0  0.64653  0.53413  0.05955  1.0000
  N   N96       1.0  0.64402  0.62090  0.14782  1.0000
  H   H1543     1.0  0.61646  0.62732  0.16103  1.0000
  H   H1544     1.0  0.66607  0.63901  0.15060  1.0000
  H   H1545     1.0  0.59438  0.88645  0.26808  1.0000
  C   C968      1.0  0.62667  0.61500  0.15863  1.0000
  H   H1546     1.0  0.71898  0.89263  0.32764  1.0000
  H   H1547     1.0  0.61457  0.87374  0.30398  1.0000
  H   H1548     1.0  0.58128  0.51083  0.03258  1.0000
  N   N97       1.0  0.58624  0.88341  0.29789  1.0000
  C   C969      1.0  0.54828  0.85542  0.14841  1.0000
  H   H1549     1.0  0.56986  0.86610  0.28336  1.0000
  H   H1550     1.0  0.59738  0.99663  0.03577  1.0000
  H   H1551     1.0  0.51516  0.83546  0.12657  1.0000
  C   C970      1.0  0.54081  0.86112  0.11576  1.0000
  C   C971      1.0  0.58362  0.89531  0.31398  1.0000
  H   H1552     1.0  0.55216  0.96794  0.00542  1.0000
  H   H1553     1.0  0.66808  0.54422  0.06295  1.0000
  N   N98       1.0  0.54067  0.84724  0.13251  1.0000
  H   H1554     1.0  0.60660  0.83270  0.01439  1.0000
  H   H1555     1.0  0.54679  0.82303  0.11655  1.0000
  C   C972      1.0  0.65900  0.54056  0.05202  1.0000
  H   H1556     1.0  0.68626  0.61762  0.01141  1.0000
  Fe  Fe197     1.0  0.59612  0.93637  0.00787  1.0000
  H   H1557     1.0  0.51475  0.50025  0.05374  1.0000
  C   C973      1.0  0.51149  0.79129  0.13141  1.0000
  H   H1558     1.0  0.64909  0.54087  0.01633  1.0000
  H   H1559     1.0  0.59689  0.85869  0.31448  1.0000
  H   H1560     1.0  0.50927  0.79470  0.18546  1.0000
  H   H1561     1.0  0.67949  0.56988  0.04020  1.0000
  H   H1562     1.0  0.55536  0.86527  0.11148  1.0000
  H   H1563     1.0  0.67865  0.55512  0.02118  1.0000
  C   C974      1.0  0.65198  0.98579  0.31063  1.0000
  H   H1564     1.0  0.55690  0.88638  0.29248  1.0000
  H   H1565     1.0  0.65032  0.95587  0.30869  1.0000
  H   H1566     1.0  0.60371  0.85915  0.28957  1.0000
  H   H1567     1.0  0.63757  0.58410  0.04153  1.0000
  S   S392      1.0  0.55174  0.50227  0.06559  1.0000
  C   C975      1.0  0.70515  0.66724  0.00545  1.0000
  H   H1568     1.0  0.62983  0.56551  0.05844  1.0000
  H   H1569     1.0  0.70495  0.97670  0.29599  1.0000
  C   C976      1.0  0.50641  0.89601  0.02342  1.0000
  H   H1570     1.0  0.71855  0.91111  0.28782  1.0000
  C   C977      1.0  0.52982  0.50045  0.07881  1.0000
  H   H1571     1.0  0.71034  0.68116  0.00374  1.0000
  H   H1572     1.0  0.56166  0.98685  0.01577  1.0000
  H   H1573     1.0  0.73496  0.93577  0.30065  1.0000
  H   H1574     1.0  0.57326  0.90756  0.31120  1.0000
  C   C978      1.0  0.52814  0.49970  0.09858  1.0000
  Fe  Fe198     1.0  0.58037  0.50341  0.07716  1.0000
  H   H1575     1.0  0.74078  0.90045  0.27906  1.0000
  C   C979      1.0  0.73055  0.90084  0.29163  1.0000
  H   H1576     1.0  0.58446  0.53600  0.00596  1.0000
  Fe  Fe199     1.0  0.64726  0.88942  0.32847  1.0000
  C   C980      1.0  0.57707  0.50173  0.02201  1.0000
  H   H1577     1.0  0.72499  0.88662  0.29425  1.0000
  H   H1578     1.0  0.71336  0.91730  0.32169  1.0000
  C   C981      1.0  0.55014  0.52326  0.01565  1.0000
  C   C982      1.0  0.51362  0.49966  0.06902  1.0000
  S   S393      1.0  0.61031  0.90755  0.00348  1.0000
  C   C983      1.0  0.72515  0.90647  0.32457  1.0000
  H   H1579     1.0  0.61708  0.86482  0.00735  1.0000
  C   C984      1.0  0.56022  0.98070  0.00219  1.0000
  H   H1580     1.0  0.74839  0.83356  0.32539  1.0000
  C   C985      1.0  0.61345  0.82896  0.00045  1.0000
  Fe  Fe200     1.0  0.53127  0.89311  0.59727  1.0000
  Fe  Fe201     1.0  0.52188  0.92714  0.57011  1.0000
  S   S394      1.0  0.54651  0.88328  0.62379  1.0000
  Fe  Fe202     1.0  0.52304  0.88831  0.55626  1.0000
  S   S395      1.0  0.53130  0.87200  0.53060  1.0000
  H   H1581     1.0  0.66957  0.87793  0.39968  1.0000
  C   C986      1.0  0.56876  0.93905  0.63484  1.0000
  S   S396      1.0  0.54456  0.90359  0.56910  1.0000
  H   H1582     1.0  0.56876  0.94666  0.64779  1.0000
  H   H1583     1.0  0.69122  0.85844  0.59863  1.0000
  Fe  Fe203     1.0  0.52589  0.87940  0.38858  1.0000
  H   H1584     1.0  0.72880  0.83465  0.64720  1.0000
  S   S397      1.0  0.54818  0.86045  0.37363  1.0000
  Fe  Fe204     1.0  0.51919  0.91925  0.39965  1.0000
  S   S398      1.0  0.53371  0.94608  0.39913  1.0000
  S   S399      1.0  0.53133  0.89272  0.41486  1.0000
  H   H1585     1.0  0.54634  0.97430  0.60774  1.0000
  S   S400      1.0  0.62804  0.89333  0.35475  1.0000
  C   C987      1.0  0.72482  0.86401  0.65255  1.0000
  C   C988      1.0  0.52838  0.95225  0.45979  1.0000
  H   H1586     1.0  0.67243  0.84346  0.64731  1.0000
  H   H1587     1.0  0.64293  0.84733  0.61802  1.0000
  H   H1588     1.0  0.50380  0.92579  0.45816  1.0000
  H   H1589     1.0  0.55207  0.92250  0.60819  1.0000
  H   H1590     1.0  0.57111  0.96941  0.60976  1.0000
  H   H1591     1.0  0.66407  0.83718  0.36038  1.0000
  C   C989      1.0  0.72236  0.86125  0.35548  1.0000
  H   H1592     1.0  0.66983  0.87131  0.59171  1.0000
  H   H1593     1.0  0.72541  0.89368  0.65538  1.0000
  H   H1594     1.0  0.66889  0.89002  0.61974  1.0000
  C   C990      1.0  0.57023  0.86979  0.36790  1.0000
  C   C991      1.0  0.58455  0.85947  0.35770  1.0000
  C   C992      1.0  0.60225  0.86673  0.35309  1.0000
  C   C993      1.0  0.60572  0.88427  0.35883  1.0000
  C   C994      1.0  0.59146  0.89448  0.36909  1.0000
  C   C995      1.0  0.57373  0.88739  0.37342  1.0000
  C   C996      1.0  0.72725  0.85197  0.33913  1.0000
  C   C997      1.0  0.67557  0.85880  0.60057  1.0000
  H   H1595     1.0  0.59410  0.90798  0.37373  1.0000
  H   H1596     1.0  0.56281  0.89547  0.38125  1.0000
  C   C998      1.0  0.51960  0.96597  0.40575  1.0000
  C   C999      1.0  0.52612  0.98391  0.40120  1.0000
  C   C1000     1.0  0.51899  0.87080  0.47589  1.0000
  C   C1001     1.0  0.67708  0.84308  0.63202  1.0000
  H   H1597     1.0  0.67070  0.87772  0.64267  1.0000
  C   C1002     1.0  0.56994  0.88796  0.62718  1.0000
  C   C1003     1.0  0.57649  0.88489  0.64543  1.0000
  C   C1004     1.0  0.60619  0.89781  0.63420  1.0000
  C   C1005     1.0  0.59982  0.90044  0.61588  1.0000
  C   C1006     1.0  0.58183  0.89548  0.61236  1.0000
  H   H1598     1.0  0.61330  0.85857  0.34553  1.0000
  H   H1599     1.0  0.57713  0.89759  0.59818  1.0000
  H   H1600     1.0  0.60882  0.90646  0.60434  1.0000
  Fe  Fe205     1.0  0.50126  0.88764  0.42426  1.0000
  H   H1601     1.0  0.61130  0.99072  0.35647  1.0000
  C   C1007     1.0  0.50195  0.88185  0.47493  1.0000
  C   C1008     1.0  0.52038  0.87692  0.50900  1.0000
  C   C1009     1.0  0.53164  0.99083  0.57044  1.0000
  H   H1602     1.0  0.53611  0.90806  0.48143  1.0000
  H   H1603     1.0  0.53954  0.98542  0.39330  1.0000
  H   H1604     1.0  0.54351  0.92982  0.48809  1.0000
  S   S401      1.0  0.70274  0.86119  0.66564  1.0000
  H   H1605     1.0  0.52098  0.90751  0.45144  1.0000
  H   H1606     1.0  0.52475  0.86360  0.46376  1.0000
  H   H1607     1.0  0.69276  0.84258  0.63111  1.0000
  H   H1608     1.0  0.67835  0.82726  0.39073  1.0000
  S   S402      1.0  0.50987  0.91796  0.59929  1.0000
  C   C1010     1.0  0.64820  0.86024  0.62275  1.0000
  C   C1011     1.0  0.59452  0.88984  0.64896  1.0000
  H   H1609     1.0  0.58311  0.93926  0.62751  1.0000
  C   C1012     1.0  0.73473  0.84821  0.64499  1.0000
  H   H1610     1.0  0.64165  0.87267  0.61435  1.0000
  H   H1611     1.0  0.68093  0.84441  0.40716  1.0000
  H   H1612     1.0  0.72991  0.86552  0.38354  1.0000
  H   H1613     1.0  0.54076  0.85892  0.49384  1.0000
  S   S403      1.0  0.51605  0.90648  0.37269  1.0000
  C   C1013     1.0  0.55529  0.93747  0.60498  1.0000
  H   H1614     1.0  0.55146  0.93310  0.43544  1.0000
  H   H1615     1.0  0.52864  0.95869  0.44491  1.0000
  H   H1616     1.0  0.59930  0.88769  0.66311  1.0000
  N   N99       1.0  0.66898  0.85975  0.62067  1.0000
  H   H1617     1.0  0.70954  0.87027  0.35640  1.0000
  S   S404      1.0  0.52992  0.95593  0.55856  1.0000
  C   C1014     1.0  0.73279  0.88139  0.64967  1.0000
  C   C1015     1.0  0.50225  0.96412  0.41599  1.0000
  S   S405      1.0  0.67357  0.91067  0.65967  1.0000
  C   C1016     1.0  0.55122  0.92735  0.45057  1.0000
  C   C1017     1.0  0.52800  0.86812  0.49296  1.0000
  H   H1618     1.0  0.56261  0.93356  0.45718  1.0000
  C   C1018     1.0  0.51087  0.97034  0.58947  1.0000
  N   N100      1.0  0.55412  0.94745  0.62237  1.0000
  S   S406      1.0  0.62862  0.90511  0.63780  1.0000
  H   H1619     1.0  0.68074  0.85467  0.35495  1.0000
  C   C1019     1.0  0.67514  0.87701  0.62747  1.0000
  C   C1020     1.0  0.53282  0.92363  0.48045  1.0000
  H   H1620     1.0  0.64280  0.86143  0.63774  1.0000
  H   H1621     1.0  0.51415  0.95595  0.46656  1.0000
  H   H1622     1.0  0.51888  0.92626  0.48826  1.0000
  S   S407      1.0  0.51157  0.87537  0.58448  1.0000
  H   H1623     1.0  0.65594  0.86138  0.35514  1.0000
  H   H1624     1.0  0.53273  0.93051  0.63629  1.0000
  H   H1625     1.0  0.54163  0.99324  0.55840  1.0000
  C   C1021     1.0  0.52366  0.97349  0.57386  1.0000
  C   C1022     1.0  0.73404  0.85866  0.37076  1.0000
  S   S408      1.0  0.50143  0.91270  0.55540  1.0000
  H   H1626     1.0  0.67112  0.84596  0.59492  1.0000
  C   C1023     1.0  0.53535  0.94561  0.63236  1.0000
  N   N101      1.0  0.53264  0.93160  0.46053  1.0000
  H   H1627     1.0  0.52395  0.95170  0.62334  1.0000
  N   N102      1.0  0.66630  0.85518  0.38264  1.0000
  C   C1024     1.0  0.67007  0.87496  0.38457  1.0000
  C   C1025     1.0  0.64745  0.85154  0.39167  1.0000
  C   C1026     1.0  0.68079  0.84231  0.39187  1.0000
  C   C1027     1.0  0.66681  0.85196  0.36240  1.0000
  H   H1628     1.0  0.68416  0.87827  0.37799  1.0000
  H   H1629     1.0  0.55596  0.97569  0.63000  1.0000
  C   C1028     1.0  0.50390  0.88881  0.50767  1.0000
  H   H1630     1.0  0.63624  0.86115  0.38500  1.0000
  H   H1631     1.0  0.64398  0.83682  0.39034  1.0000
  H   H1632     1.0  0.64647  0.85379  0.40699  1.0000
  H   H1633     1.0  0.69516  0.84462  0.38523  1.0000
  C   C1029     1.0  0.74438  0.84077  0.33798  1.0000
  H   H1634     1.0  0.55476  0.91186  0.45070  1.0000
  H   H1635     1.0  0.54502  0.94397  0.59489  1.0000
  H   H1636     1.0  0.53387  0.95301  0.64554  1.0000
  H   H1637     1.0  0.58194  0.84577  0.35352  1.0000
  H   H1638     1.0  0.56646  0.92408  0.63955  1.0000
  H   H1639     1.0  0.67292  0.82970  0.62729  1.0000
  H   H1640     1.0  0.69075  0.87734  0.62609  1.0000
  C   C1030     1.0  0.51812  0.92305  0.45117  1.0000
  H   H1641     1.0  0.56953  0.93764  0.59748  1.0000
  H   H1642     1.0  0.56742  0.87899  0.65697  1.0000
  C   C1031     1.0  0.55705  0.96759  0.61728  1.0000
  C   C1032     1.0  0.50629  0.98444  0.60184  1.0000
  H   H1643     1.0  0.53882  0.95917  0.46710  1.0000
  Fe  Fe206     1.0  0.64370  0.90249  0.66510  1.0000
  H   H1644     1.0  0.73136  0.90975  0.33763  1.0000
  H   H1645     1.0  0.65948  0.88505  0.37759  1.0000
  H   H1646     1.0  0.50422  0.95722  0.59184  1.0000
  H   H1647     1.0  0.51776  0.92856  0.43609  1.0000
  H   H1648     1.0  0.64002  0.75844  0.80357  1.0000
  C   C1033     1.0  0.67148  0.77376  0.81124  1.0000
  H   H1649     1.0  0.54395  0.82977  0.87110  1.0000
  S   S409      1.0  0.62845  0.53460  0.93772  1.0000
  H   H1650     1.0  0.62701  0.76244  0.82559  1.0000
  H   H1651     1.0  0.70161  0.66647  0.97556  1.0000
  N   N103      1.0  0.61347  0.84565  0.98654  1.0000
  H   H1652     1.0  0.73462  0.62506  0.93914  1.0000
  H   H1653     1.0  0.63636  0.92885  0.73286  1.0000
  Fe  Fe207     1.0  0.59508  0.90916  0.97667  1.0000
  H   H1654     1.0  0.50591  0.52092  0.90890  1.0000
  S   S410      1.0  0.61097  0.89752  0.95062  1.0000
  C   C1034     1.0  0.66170  0.74729  0.83237  1.0000
  H   H1655     1.0  0.63483  0.50958  0.99347  1.0000
  S   S411      1.0  0.58352  0.93923  0.97973  1.0000
  H   H1656     1.0  0.63750  0.83470  0.96974  1.0000
  H   H1657     1.0  0.55329  0.50783  0.98211  1.0000
  S   S412      1.0  0.63852  0.91860  0.69096  1.0000
  H   H1658     1.0  0.66786  0.78858  0.80548  1.0000
  S   S413      1.0  0.59971  0.50500  0.90221  1.0000
  S   S414      1.0  0.67924  0.89800  0.70435  1.0000
  H   H1659     1.0  0.70995  0.56124  0.89672  1.0000
  Fe  Fe208     1.0  0.64875  0.89157  0.70761  1.0000
  S   S415      1.0  0.63229  0.88761  0.73667  1.0000
  Fe  Fe209     1.0  0.66900  0.92435  0.68692  1.0000
  H   H1660     1.0  0.71850  0.58272  0.90290  1.0000
  S   S416      1.0  0.65137  0.87504  0.68175  1.0000
  N   N104      1.0  0.65645  0.76690  0.82497  1.0000
  Fe  Fe210     1.0  0.61112  0.82061  0.83338  1.0000
  S   S417      1.0  0.59479  0.79579  0.82968  1.0000
  S   S418      1.0  0.63256  0.82556  0.80797  1.0000
  Fe  Fe211     1.0  0.59177  0.82470  0.87341  1.0000
  S   S419      1.0  0.57496  0.79952  0.87179  1.0000
  S   S420      1.0  0.58000  0.83965  0.89930  1.0000
  Fe  Fe212     1.0  0.60186  0.78533  0.85936  1.0000
  S   S421      1.0  0.60998  0.75353  0.86393  1.0000
  Fe  Fe213     1.0  0.56958  0.81204  0.84254  1.0000
  S   S422      1.0  0.54154  0.81996  0.82957  1.0000
  S   S423      1.0  0.61921  0.80955  0.86287  1.0000
  S   S424      1.0  0.58539  0.83770  0.84435  1.0000
  Fe  Fe214     1.0  0.71685  0.63806  0.90469  1.0000
  S   S425      1.0  0.69397  0.64791  0.88521  1.0000
  C   C1035     1.0  0.50310  0.81908  0.83120  1.0000
  Fe  Fe215     1.0  0.68912  0.63973  0.94046  1.0000
  S   S426      1.0  0.66413  0.64920  0.92348  1.0000
  S   S427      1.0  0.68710  0.62968  0.97198  1.0000
  Fe  Fe216     1.0  0.67617  0.62765  0.90370  1.0000
  S   S428      1.0  0.66027  0.60672  0.89001  1.0000
  Fe  Fe217     1.0  0.68345  0.66888  0.90633  1.0000
  S   S429      1.0  0.67766  0.70096  0.89992  1.0000
  S   S430      1.0  0.69957  0.61679  0.92177  1.0000
  S   S431      1.0  0.70787  0.66049  0.92466  1.0000
  H   H1661     1.0  0.68508  0.77354  0.81794  1.0000
  C   C1036     1.0  0.62825  0.73920  0.87528  1.0000
  C   C1037     1.0  0.62879  0.71947  0.87492  1.0000
  C   C1038     1.0  0.64354  0.70752  0.88266  1.0000
  C   C1039     1.0  0.65813  0.71518  0.89074  1.0000
  C   C1040     1.0  0.65758  0.73493  0.89111  1.0000
  C   C1041     1.0  0.64270  0.74686  0.88359  1.0000
  H   H1662     1.0  0.61775  0.71332  0.86853  1.0000
  H   H1663     1.0  0.64371  0.69240  0.88222  1.0000
  H   H1664     1.0  0.66872  0.74102  0.89739  1.0000
  H   H1665     1.0  0.64247  0.76194  0.88425  1.0000
  C   C1042     1.0  0.52017  0.80926  0.83599  1.0000
  H   H1666     1.0  0.52638  0.80203  0.88220  1.0000
  H   H1667     1.0  0.64937  0.94511  0.71735  1.0000
  H   H1668     1.0  0.59346  0.86623  0.97431  1.0000
  C   C1043     1.0  0.51985  0.79117  0.84531  1.0000
  C   C1044     1.0  0.53410  0.82475  0.90832  1.0000
  S   S432      1.0  0.56939  0.89651  0.99074  1.0000
  H   H1669     1.0  0.53288  0.78336  0.84893  1.0000
  C   C1045     1.0  0.63305  0.87024  0.75638  1.0000
  C   C1046     1.0  0.64459  0.85344  0.75612  1.0000
  C   C1047     1.0  0.64437  0.84006  0.77206  1.0000
  C   C1048     1.0  0.63262  0.84322  0.78846  1.0000
  C   C1049     1.0  0.62128  0.86013  0.78879  1.0000
  C   C1050     1.0  0.62141  0.87345  0.77283  1.0000
  H   H1670     1.0  0.65369  0.85075  0.74364  1.0000
  H   H1671     1.0  0.65337  0.82715  0.77163  1.0000
  H   H1672     1.0  0.61260  0.86310  0.80146  1.0000
  H   H1673     1.0  0.61254  0.88644  0.77331  1.0000
  C   C1051     1.0  0.66917  0.97469  0.68995  1.0000
  C   C1052     1.0  0.64967  0.97714  0.68877  1.0000
  H   H1674     1.0  0.73488  0.61492  0.96316  1.0000
  H   H1675     1.0  0.64174  0.96506  0.68767  1.0000
  C   C1053     1.0  0.71110  0.60335  0.87032  1.0000
  C   C1054     1.0  0.60190  0.88224  0.93575  1.0000
  C   C1055     1.0  0.61388  0.87443  0.92139  1.0000
  C   C1056     1.0  0.60745  0.86152  0.90990  1.0000
  C   C1057     1.0  0.58894  0.85626  0.91274  1.0000
  C   C1058     1.0  0.57696  0.86414  0.92705  1.0000
  C   C1059     1.0  0.58334  0.87714  0.93839  1.0000
  H   H1676     1.0  0.62826  0.87832  0.91918  1.0000
  H   H1677     1.0  0.61682  0.85558  0.89896  1.0000
  H   H1678     1.0  0.56260  0.86025  0.92935  1.0000
  H   H1679     1.0  0.57386  0.88320  0.94919  1.0000
  H   H1680     1.0  0.74309  0.58230  0.87643  1.0000
  H   H1681     1.0  0.56490  0.98137  0.96442  1.0000
  C   C1060     1.0  0.73571  0.62835  0.95397  1.0000
  C   C1061     1.0  0.59387  0.85301  0.98381  1.0000
  H   H1682     1.0  0.62301  0.85292  0.95764  1.0000
  H   H1683     1.0  0.66643  0.91336  0.74299  1.0000
  C   C1062     1.0  0.61333  0.98671  0.99132  1.0000
  S   S433      1.0  0.54481  0.50938  0.91331  1.0000
  H   H1684     1.0  0.64226  0.77469  0.85107  1.0000
  H   H1685     1.0  0.66679  0.77865  0.84861  1.0000
  C   C1063     1.0  0.63726  0.55437  0.92392  1.0000
  C   C1064     1.0  0.63484  0.55785  0.90456  1.0000
  C   C1065     1.0  0.64194  0.57394  0.89432  1.0000
  C   C1066     1.0  0.65147  0.58669  0.90335  1.0000
  C   C1067     1.0  0.65404  0.58311  0.92265  1.0000
  C   C1068     1.0  0.64696  0.56705  0.93285  1.0000
  H   H1686     1.0  0.62739  0.54822  0.89753  1.0000
  H   H1687     1.0  0.63987  0.57662  0.87940  1.0000
  H   H1688     1.0  0.66130  0.59281  0.92978  1.0000
  H   H1689     1.0  0.64888  0.56448  0.94782  1.0000
  H   H1690     1.0  0.57457  0.97573  0.99674  1.0000
  H   H1691     1.0  0.67459  0.74634  0.84037  1.0000
  C   C1069     1.0  0.69339  0.64100  0.99151  1.0000
  H   H1692     1.0  0.67235  0.96407  0.73004  1.0000
  H   H1693     1.0  0.53963  0.83769  0.91274  1.0000
  H   H1694     1.0  0.61750  0.97486  0.98308  1.0000
  C   C1070     1.0  0.62380  0.86035  0.99367  1.0000
  N   N105      1.0  0.71331  0.58259  0.87356  1.0000
  C   C1071     1.0  0.66526  0.96094  0.74437  1.0000
  C   C1072     1.0  0.73298  0.57601  0.86810  1.0000
  C   C1073     1.0  0.70883  0.57685  0.89379  1.0000
  H   H1695     1.0  0.71987  0.61013  0.87962  1.0000
  H   H1696     1.0  0.65837  0.93833  0.77619  1.0000
  H   H1697     1.0  0.73529  0.56040  0.87044  1.0000
  C   C1074     1.0  0.55049  0.98583  0.97030  1.0000
  H   H1698     1.0  0.50476  0.81473  0.87578  1.0000
  H   H1699     1.0  0.62411  0.87316  0.98348  1.0000
  H   H1700     1.0  0.67599  0.96141  0.75480  1.0000
  H   H1701     1.0  0.60558  0.81767  0.99562  1.0000
  H   H1702     1.0  0.53733  0.85209  0.88008  1.0000
  H   H1703     1.0  0.54656  0.81538  0.90384  1.0000
  H   H1704     1.0  0.74167  0.62857  0.85893  1.0000
  C   C1075     1.0  0.67218  0.92748  0.74240  1.0000
  C   C1076     1.0  0.63866  0.76752  0.81556  1.0000
  H   H1705     1.0  0.74081  0.66544  0.94852  1.0000
  H   H1706     1.0  0.66434  0.73772  0.82082  1.0000
  H   H1707     1.0  0.65031  0.74151  0.84223  1.0000
  H   H1708     1.0  0.67379  0.76492  0.79907  1.0000
  N   N106      1.0  0.57499  0.83208  0.77833  1.0000
  C   C1077     1.0  0.55647  0.83958  0.77187  1.0000
  C   C1078     1.0  0.57898  0.84164  0.79495  1.0000
  C   C1079     1.0  0.58984  0.83553  0.76302  1.0000
  C   C1080     1.0  0.57469  0.81158  0.78361  1.0000
  H   H1709     1.0  0.54503  0.83705  0.78320  1.0000
  H   H1710     1.0  0.55296  0.83274  0.75928  1.0000
  H   H1711     1.0  0.55615  0.85506  0.76798  1.0000
  H   H1712     1.0  0.59234  0.83560  0.80087  1.0000
  H   H1713     1.0  0.58018  0.85701  0.79135  1.0000
  H   H1714     1.0  0.56764  0.84013  0.80645  1.0000
  H   H1715     1.0  0.58727  0.82866  0.75015  1.0000
  H   H1716     1.0  0.60397  0.82994  0.76751  1.0000
  H   H1717     1.0  0.59071  0.85089  0.75887  1.0000
  H   H1718     1.0  0.57130  0.80392  0.77153  1.0000
  H   H1719     1.0  0.56394  0.80853  0.79548  1.0000
  H   H1720     1.0  0.58856  0.80544  0.78829  1.0000
  H   H1721     1.0  0.52333  0.98739  0.99852  1.0000
  C   C1081     1.0  0.70026  0.65893  0.98944  1.0000
  H   H1722     1.0  0.70306  0.57852  0.84672  1.0000
  H   H1723     1.0  0.54243  0.97300  0.97225  1.0000
  H   H1724     1.0  0.58734  0.50270  0.86283  1.0000
  H   H1725     1.0  0.62522  0.99695  0.68873  1.0000
  H   H1726     1.0  0.52685  0.81749  0.92100  1.0000
  H   H1727     1.0  0.65426  0.97264  0.74662  1.0000
  H   H1728     1.0  0.71520  0.60827  0.85540  1.0000
  S   S434      1.0  0.68135  0.95197  0.69114  1.0000
  N   N107      1.0  0.65711  0.94242  0.74601  1.0000
  H   H1729     1.0  0.67956  0.93018  0.72815  1.0000
  H   H1730     1.0  0.65030  0.79413  0.83559  1.0000
  H   H1731     1.0  0.63655  0.94955  0.76837  1.0000
  C   C1082     1.0  0.50712  0.50567  0.91106  1.0000
  Fe  Fe218     1.0  0.61247  0.51085  0.92886  1.0000
  C   C1083     1.0  0.64035  0.99527  0.68927  1.0000
  C   C1084     1.0  0.65388  0.77914  0.84075  1.0000
  H   H1732     1.0  0.63422  0.78216  0.80996  1.0000
  H   H1733     1.0  0.58587  0.84276  0.97744  1.0000
  H   H1734     1.0  0.68534  0.57901  0.86605  1.0000
  H   H1735     1.0  0.64184  0.92464  0.76676  1.0000
  C   C1085     1.0  0.64806  0.93859  0.76521  1.0000
  C   C1086     1.0  0.53169  0.83891  0.87639  1.0000
  H   H1736     1.0  0.73685  0.58014  0.85291  1.0000
  Fe  Fe219     1.0  0.68128  0.88380  0.67709  1.0000
  C   C1087     1.0  0.70029  0.57428  0.86206  1.0000
  C   C1088     1.0  0.51451  0.81178  0.88735  1.0000
  H   H1737     1.0  0.69434  0.98885  0.69218  1.0000
  S   S435      1.0  0.58590  0.50563  0.94701  1.0000
  H   H1738     1.0  0.70156  0.55860  0.86408  1.0000
  S   S436      1.0  0.52997  0.93957  0.99253  1.0000
  C   C1089     1.0  0.50259  0.78292  0.84955  1.0000
  H   H1739     1.0  0.58616  0.85632  0.99743  1.0000
  H   H1740     1.0  0.50984  0.85533  0.90364  1.0000
  H   H1741     1.0  0.61509  0.82965  0.96219  1.0000
  N   N108      1.0  0.52136  0.82934  0.89286  1.0000
  H   H1742     1.0  0.50675  0.80407  0.89943  1.0000
  H   H1743     1.0  0.72309  0.63765  0.95795  1.0000
  H   H1744     1.0  0.63146  0.95388  0.73398  1.0000
  C   C1090     1.0  0.56083  0.49997  0.99387  1.0000
  H   H1745     1.0  0.56775  0.51351  0.85034  1.0000
  H   H1746     1.0  0.68301  0.92666  0.75292  1.0000
  C   C1091     1.0  0.67925  0.99060  0.69124  1.0000
  C   C1092     1.0  0.64291  0.94258  0.73197  1.0000
  H   H1747     1.0  0.69419  0.58196  0.89843  1.0000
  H   H1748     1.0  0.69628  0.60878  0.87332  1.0000
  H   H1749     1.0  0.52259  0.84253  0.86437  1.0000
  H   H1750     1.0  0.50320  0.83307  0.82393  1.0000
  C   C1093     1.0  0.62270  0.84043  0.96825  1.0000
  C   C1094     1.0  0.50516  0.84193  0.89937  1.0000
  H   H1751     1.0  0.50248  0.76878  0.85647  1.0000
  H   H1752     1.0  0.74186  0.65012  0.98115  1.0000
  H   H1753     1.0  0.56622  0.51115  0.87571  1.0000
  H   H1754     1.0  0.57213  0.53495  0.98498  1.0000
  Fe  Fe220     1.0  0.55914  0.92615  0.99619  1.0000
  H   H1755     1.0  0.59204  0.51876  0.98964  1.0000
  N   N109      1.0  0.55110  0.99448  0.98831  1.0000
  H   H1756     1.0  0.63862  0.85530  0.99603  1.0000
  C   C1095     1.0  0.57938  0.52627  0.99646  1.0000
  S   S437      1.0  0.74819  0.62820  0.89949  1.0000
  H   H1757     1.0  0.54375  0.99581  0.95944  1.0000
  C   C1096     1.0  0.57169  0.50399  0.86290  1.0000
  C   C1097     1.0  0.97347  0.45155  0.13295  1.0000
  S   S438      1.0  0.98244  0.41487  0.08273  1.0000
  S   S439      1.0  0.97027  0.40174  0.13807  1.0000
  H   H1758     1.0  0.95218  0.47446  0.09540  1.0000
  H   H1759     1.0  0.82643  0.48162  0.21942  1.0000
  S   S440      1.0  0.90244  0.33466  0.30487  1.0000
  Fe  Fe221     1.0  0.86242  0.38979  0.16808  1.0000
  S   S441      1.0  0.86779  0.39830  0.19680  1.0000
  S   S442      1.0  0.88364  0.38592  0.14305  1.0000
  Fe  Fe222     1.0  0.82011  0.38514  0.17762  1.0000
  S   S443      1.0  0.82283  0.39314  0.20721  1.0000
  S   S444      1.0  0.78966  0.38192  0.17001  1.0000
  Fe  Fe223     1.0  0.84044  0.41639  0.19395  1.0000
  S   S445      1.0  0.83144  0.44575  0.20372  1.0000
  Fe  Fe224     1.0  0.84976  0.37458  0.20798  1.0000
  S   S446      1.0  0.85477  0.35065  0.23145  1.0000
  S   S447      1.0  0.83637  0.40941  0.16446  1.0000
  S   S448      1.0  0.84596  0.36498  0.17919  1.0000
  C   C1098     1.0  0.77856  0.36963  0.15352  1.0000
  C   C1099     1.0  0.78850  0.35673  0.14206  1.0000
  C   C1100     1.0  0.77896  0.34719  0.12953  1.0000
  S   S449      1.0  0.92383  0.28298  0.33072  1.0000
  H   H1760     1.0  0.80354  0.35402  0.14289  1.0000
  H   H1761     1.0  0.98313  0.46245  0.13532  1.0000
  C   C1101     1.0  0.75936  0.42870  0.17881  1.0000
  C   C1102     1.0  0.75938  0.35049  0.12803  1.0000
  C   C1103     1.0  0.84340  0.46674  0.19838  1.0000
  C   C1104     1.0  0.85801  0.46820  0.18419  1.0000
  C   C1105     1.0  0.78169  0.42211  0.20276  1.0000
  H   H1762     1.0  0.93238  0.45039  0.11214  1.0000
  H   H1763     1.0  0.86268  0.45612  0.17645  1.0000
  C   C1106     1.0  0.88879  0.33881  0.28470  1.0000
  C   C1107     1.0  0.87748  0.32541  0.27929  1.0000
  C   C1108     1.0  0.86712  0.32938  0.26307  1.0000
  C   C1109     1.0  0.86777  0.34681  0.25209  1.0000
  C   C1110     1.0  0.87898  0.36027  0.25756  1.0000
  C   C1111     1.0  0.88944  0.35625  0.27371  1.0000
  H   H1764     1.0  0.87680  0.31193  0.28752  1.0000
  H   H1765     1.0  0.85852  0.31884  0.25901  1.0000
  H   H1766     1.0  0.87964  0.37375  0.24935  1.0000
  H   H1767     1.0  0.89815  0.36673  0.27770  1.0000
  C   C1112     1.0  0.75895  0.37283  0.15212  1.0000
  H   H1768     1.0  0.78848  0.44439  0.15871  1.0000
  C   C1113     1.0  0.90752  0.39103  0.14181  1.0000
  C   C1114     1.0  0.91562  0.39728  0.15715  1.0000
  C   C1115     1.0  0.93492  0.40033  0.15583  1.0000
  C   C1116     1.0  0.94618  0.39745  0.13911  1.0000
  C   C1117     1.0  0.93801  0.39156  0.12366  1.0000
  C   C1118     1.0  0.91878  0.38825  0.12507  1.0000
  H   H1769     1.0  0.90708  0.39958  0.17006  1.0000
  H   H1770     1.0  0.94115  0.40500  0.16780  1.0000
  H   H1771     1.0  0.94653  0.38931  0.11071  1.0000
  H   H1772     1.0  0.91260  0.38341  0.11315  1.0000
  H   H1773     1.0  0.95236  0.43340  0.11214  1.0000
  H   H1774     1.0  0.81334  0.16320  0.32501  1.0000
  Fe  Fe225     1.0  0.98982  0.40150  0.11129  1.0000
  H   H1775     1.0  0.97331  0.47989  0.10519  1.0000
  H   H1776     1.0  0.78687  0.33722  0.12084  1.0000
  N   N110      1.0  0.90396  0.34083  0.19671  1.0000
  C   C1119     1.0  0.92167  0.32867  0.19768  1.0000
  C   C1120     1.0  0.88777  0.32899  0.19963  1.0000
  C   C1121     1.0  0.90358  0.35159  0.17797  1.0000
  C   C1122     1.0  0.90283  0.35409  0.21160  1.0000
  H   H1777     1.0  0.92228  0.32025  0.21163  1.0000
  H   H1778     1.0  0.93416  0.33720  0.19573  1.0000
  H   H1779     1.0  0.92310  0.31862  0.18650  1.0000
  H   H1780     1.0  0.87423  0.33766  0.19809  1.0000
  H   H1781     1.0  0.88854  0.31825  0.18918  1.0000
  H   H1782     1.0  0.88689  0.32155  0.21410  1.0000
  H   H1783     1.0  0.89068  0.36137  0.17700  1.0000
  H   H1784     1.0  0.90372  0.34216  0.16634  1.0000
  H   H1785     1.0  0.91589  0.36027  0.17500  1.0000
  H   H1786     1.0  0.88941  0.36316  0.21158  1.0000
  H   H1787     1.0  0.91456  0.36358  0.20963  1.0000
  H   H1788     1.0  0.90329  0.34646  0.22595  1.0000
  H   H1789     1.0  0.77037  0.42205  0.21438  1.0000
  H   H1790     1.0  0.93433  0.48095  0.12602  1.0000
  H   H1791     1.0  0.93937  0.43804  0.13393  1.0000
  H   H1792     1.0  0.75494  0.43801  0.16628  1.0000
  H   H1793     1.0  0.94148  0.46843  0.14767  1.0000
  H   H1794     1.0  0.80510  0.43911  0.17655  1.0000
  H   H1795     1.0  0.76199  0.41412  0.17426  1.0000
  H   H1796     1.0  0.76089  0.45499  0.20345  1.0000
  H   H1797     1.0  0.97234  0.45776  0.09541  1.0000
  H   H1798     1.0  0.96890  0.44446  0.14696  1.0000
  C   C1123     1.0  0.79194  0.43477  0.17135  1.0000
  C   C1124     1.0  0.86651  0.48540  0.17986  1.0000
  C   C1125     1.0  0.94672  0.47444  0.13342  1.0000
  N   N111      1.0  0.95722  0.45980  0.12256  1.0000
  C   C1126     1.0  0.96402  0.46836  0.10383  1.0000
  C   C1127     1.0  0.77252  0.45432  0.19213  1.0000
  C   C1128     1.0  0.83755  0.48265  0.20826  1.0000
  N   N112      1.0  0.77635  0.43498  0.18625  1.0000
  C   C1129     1.0  0.94475  0.44481  0.12006  1.0000
  H   H1799     1.0  0.97908  0.29560  0.32732  1.0000
  H   H1800     1.0  0.95579  0.48596  0.13552  1.0000
  H   H1801     1.0  0.79468  0.42624  0.20853  1.0000
  H   H1802     1.0  0.75210  0.29849  0.14167  1.0000
  H   H1803     1.0  0.98180  0.44065  0.12500  1.0000
  H   H1804     1.0  0.76845  0.46445  0.18005  1.0000
  H   H1805     1.0  0.80739  0.19793  0.31841  1.0000
  H   H1806     1.0  0.87610  0.37082  0.31655  1.0000
  H   H1807     1.0  0.87767  0.48638  0.16873  1.0000
  H   H1808     1.0  0.79513  0.42042  0.16649  1.0000
  Fe  Fe226     1.0  0.90619  0.31093  0.32887  1.0000
  H   H1809     1.0  0.78522  0.45927  0.19780  1.0000
  H   H1810     1.0  0.99692  0.36076  0.00945  1.0000
  S   S450      1.0  0.99791  0.37525  0.04584  1.0000
  C   C1130     1.0  0.79979  0.19824  0.33265  1.0000
  H   H1811     1.0  0.78446  0.40733  0.19891  1.0000
  C   C1131     1.0  0.74944  0.36345  0.13944  1.0000
  H   H1812     1.0  0.75101  0.38270  0.16088  1.0000
  H   H1813     1.0  0.78463  0.19678  0.33098  1.0000
  H   H1814     1.0  0.85337  0.37939  0.32615  1.0000
  C   C1132     1.0  0.86856  0.37746  0.32888  1.0000
  H   H1815     1.0  0.87383  0.39167  0.32915  1.0000
  Fe  Fe227     1.0  0.91448  0.41399  0.49879  1.0000
  S   S451      1.0  0.92329  0.39449  0.52372  1.0000
  S   S452      1.0  0.90011  0.44273  0.50504  1.0000
  Fe  Fe228     1.0  0.92423  0.38365  0.47105  1.0000
  S   S453      1.0  0.93361  0.36187  0.49381  1.0000
  S   S454      1.0  0.92895  0.37807  0.43998  1.0000
  Fe  Fe229     1.0  0.90841  0.37262  0.51147  1.0000
  S   S455      1.0  0.89166  0.35130  0.52976  1.0000
  Fe  Fe230     1.0  0.94790  0.38502  0.50468  1.0000
  S   S456      1.0  0.97509  0.37578  0.51795  1.0000
  S   S457      1.0  0.89744  0.39259  0.48769  1.0000
  S   S458      1.0  0.94066  0.40641  0.48058  1.0000
  S   S459      1.0  0.89199  0.24239  0.35137  1.0000
  H   H1816     1.0  0.95918  0.36144  0.57152  1.0000
  S   S460      1.0  0.88198  0.01871  0.38362  1.0000
  H   H1817     1.0  0.89761  0.40671  0.55949  1.0000
  S   S461      1.0  0.88053  0.03826  0.57334  1.0000
  C   C1133     1.0  0.93951  0.07240  0.61458  1.0000
  H   H1818     1.0  0.76246  0.14744  0.54785  1.0000
  H   H1819     1.0  0.93144  0.07522  0.62818  1.0000
  H   H1820     1.0  0.85892  0.39998  0.52892  1.0000
  Fe  Fe231     1.0  0.90062  0.31878  0.63792  1.0000
  S   S462      1.0  0.91933  0.29437  0.62806  1.0000
  S   S463      1.0  0.89288  0.34511  0.61905  1.0000
  Fe  Fe232     1.0  0.93721  0.29957  0.65156  1.0000
  H   H1821     1.0  0.91786  0.09475  0.59118  1.0000
  Fe  Fe233     1.0  0.90223  0.27646  0.64969  1.0000
  H   H1822     1.0  0.93251  0.31983  0.58938  1.0000
  C   C1134     1.0  0.88872  0.41965  0.55523  1.0000
  C   C1135     1.0  0.97708  0.33242  0.59187  1.0000
  Fe  Fe234     1.0  0.83275  0.13064  0.60845  1.0000
  S   S464      1.0  0.81076  0.12594  0.58892  1.0000
  S   S465      1.0  0.84934  0.10545  0.62266  1.0000
  Fe  Fe235     1.0  0.82628  0.17383  0.60383  1.0000
  S   S466      1.0  0.80362  0.17193  0.58361  1.0000
  S   S467      1.0  0.83206  0.20412  0.60973  1.0000
  Fe  Fe236     1.0  0.79288  0.14826  0.60394  1.0000
  S   S468      1.0  0.76064  0.14815  0.60935  1.0000
  Fe  Fe237     1.0  0.82286  0.14970  0.57014  1.0000
  S   S469      1.0  0.83214  0.14697  0.53892  1.0000
  S   S470      1.0  0.81417  0.15154  0.62496  1.0000
  S   S471      1.0  0.84625  0.15302  0.58890  1.0000
  Fe  Fe238     1.0  0.83483  0.11905  0.41051  1.0000
  S   S472      1.0  0.80480  0.11210  0.41843  1.0000
  S   S473      1.0  0.86122  0.09935  0.41407  1.0000
  Fe  Fe239     1.0  0.82482  0.16183  0.40437  1.0000
  S   S474      1.0  0.79422  0.15755  0.41219  1.0000
  S   S475      1.0  0.83097  0.19312  0.39983  1.0000
  Fe  Fe240     1.0  0.80381  0.13706  0.43597  1.0000
  S   S476      1.0  0.78875  0.13953  0.46521  1.0000
  Fe  Fe241     1.0  0.79753  0.13323  0.39384  1.0000
  H   H1823     1.0  0.85657  0.44186  0.55675  1.0000
  S   S477      1.0  0.83399  0.14284  0.42943  1.0000
  S   S478      1.0  0.82793  0.13858  0.38477  1.0000
  Fe  Fe242     1.0  0.89830  0.30931  0.37173  1.0000
  S   S479      1.0  0.91449  0.28132  0.37686  1.0000
  S   S480      1.0  0.88359  0.32527  0.39551  1.0000
  Fe  Fe243     1.0  0.90068  0.27268  0.35203  1.0000
  H   H1824     1.0  0.98404  0.32462  0.58008  1.0000
  Fe  Fe244     1.0  0.93656  0.29309  0.35567  1.0000
  C   C1136     1.0  0.98772  0.00518  0.60162  1.0000
  S   S481      1.0  0.88245  0.29996  0.34847  1.0000
  S   S482      1.0  0.92097  0.32157  0.35232  1.0000
  H   H1825     1.0  0.81104  0.17080  0.45883  1.0000
  C   C1137     1.0  0.98801  0.29405  0.35563  1.0000
  C   C1138     1.0  0.91207  0.08124  0.59696  1.0000
  C   C1139     1.0  0.84885  0.20624  0.38707  1.0000
  C   C1140     1.0  0.84842  0.22580  0.38866  1.0000
  C   C1141     1.0  0.86174  0.23700  0.37826  1.0000
  C   C1142     1.0  0.87556  0.22883  0.36588  1.0000
  C   C1143     1.0  0.87602  0.20924  0.36436  1.0000
  C   C1144     1.0  0.86291  0.19797  0.37501  1.0000
  H   H1826     1.0  0.83763  0.23242  0.39788  1.0000
  H   H1827     1.0  0.86112  0.25202  0.37957  1.0000
  H   H1828     1.0  0.90275  0.07715  0.58641  1.0000
  H   H1829     1.0  0.86363  0.18296  0.37372  1.0000
  S   S483      1.0  0.91485  0.00376  0.42673  1.0000
  N   N113      1.0  0.82979  0.19256  0.46015  1.0000
  H   H1830     1.0  0.76817  0.11443  0.63559  1.0000
  C   C1145     1.0  0.81957  0.14462  0.51886  1.0000
  C   C1146     1.0  0.80010  0.14860  0.51878  1.0000
  C   C1147     1.0  0.79079  0.14679  0.50233  1.0000
  C   C1148     1.0  0.80090  0.14122  0.48575  1.0000
  C   C1149     1.0  0.82040  0.13745  0.48579  1.0000
  C   C1150     1.0  0.82966  0.13915  0.50225  1.0000
  H   H1831     1.0  0.79235  0.15335  0.53130  1.0000
  H   H1832     1.0  0.77572  0.14996  0.50235  1.0000
  H   H1833     1.0  0.82835  0.13301  0.47321  1.0000
  H   H1834     1.0  0.84475  0.13610  0.50217  1.0000
  C   C1151     1.0  0.87733  0.23476  0.63623  1.0000
  C   C1152     1.0  0.86254  0.24490  0.62707  1.0000
  C   C1153     1.0  0.84895  0.23527  0.61907  1.0000
  C   C1154     1.0  0.84993  0.21538  0.61992  1.0000
  C   C1155     1.0  0.86476  0.20527  0.62905  1.0000
  C   C1156     1.0  0.87825  0.21489  0.63720  1.0000
  H   H1835     1.0  0.86152  0.26014  0.62614  1.0000
  H   H1836     1.0  0.83759  0.24330  0.61206  1.0000
  H   H1837     1.0  0.86577  0.19002  0.62991  1.0000
  H   H1838     1.0  0.92542  0.29810  0.44027  1.0000
  H   H1839     1.0  0.77366  0.11348  0.58895  1.0000
  S   S484      1.0  0.89446  0.24600  0.64752  1.0000
  H   H1840     1.0  0.83985  0.19751  0.48690  1.0000
  C   C1157     1.0  0.87099  0.05621  0.58762  1.0000
  C   C1158     1.0  0.86301  0.07305  0.57877  1.0000
  C   C1159     1.0  0.85613  0.08812  0.58940  1.0000
  C   C1160     1.0  0.85713  0.08646  0.60903  1.0000
  C   C1161     1.0  0.86487  0.06952  0.61794  1.0000
  C   C1162     1.0  0.87165  0.05437  0.60730  1.0000
  H   H1841     1.0  0.86237  0.07458  0.56357  1.0000
  H   H1842     1.0  0.85026  0.10112  0.58238  1.0000
  H   H1843     1.0  0.86547  0.06808  0.63315  1.0000
  H   H1844     1.0  0.87725  0.04128  0.61433  1.0000
  H   H1845     1.0  0.84497  0.04534  0.45401  1.0000
  H   H1846     1.0  0.88485  0.01643  0.47589  1.0000
  C   C1163     1.0  0.85881  0.43285  0.54470  1.0000
  C   C1164     1.0  0.87621  0.04124  0.39184  1.0000
  C   C1165     1.0  0.85882  0.05101  0.38812  1.0000
  C   C1166     1.0  0.85396  0.06894  0.39467  1.0000
  C   C1167     1.0  0.86667  0.07733  0.40467  1.0000
  C   C1168     1.0  0.88418  0.06771  0.40802  1.0000
  C   C1169     1.0  0.88887  0.04968  0.40180  1.0000
  H   H1847     1.0  0.84899  0.04463  0.38029  1.0000
  H   H1848     1.0  0.84044  0.07624  0.39199  1.0000
  H   H1849     1.0  0.89420  0.07427  0.41545  1.0000
  H   H1850     1.0  0.90247  0.04249  0.40435  1.0000
  H   H1851     1.0  0.86860  0.39072  0.56983  1.0000
  H   H1852     1.0  0.88731  0.42863  0.56731  1.0000
  H   H1853     1.0  0.86034  0.01699  0.47182  1.0000
  C   C1170     1.0  0.93838  0.06250  0.58317  1.0000
  C   C1171     1.0  0.91554  0.36392  0.42789  1.0000
  C   C1172     1.0  0.89921  0.35617  0.43621  1.0000
  C   C1173     1.0  0.88931  0.34463  0.42602  1.0000
  C   C1174     1.0  0.89593  0.34036  0.40768  1.0000
  C   C1175     1.0  0.91227  0.34811  0.39941  1.0000
  C   C1176     1.0  0.92180  0.36009  0.40935  1.0000
  H   H1854     1.0  0.89421  0.35910  0.45046  1.0000
  H   H1855     1.0  0.87666  0.33872  0.43253  1.0000
  H   H1856     1.0  0.91761  0.34495  0.38538  1.0000
  H   H1857     1.0  0.93432  0.36619  0.40278  1.0000
  C   C1177     1.0  0.89406  0.34857  0.55441  1.0000
  C   C1178     1.0  0.90056  0.36295  0.56364  1.0000
  C   C1179     1.0  0.90028  0.36161  0.58345  1.0000
  C   C1180     1.0  0.89445  0.34539  0.59420  1.0000
  C   C1181     1.0  0.88893  0.33048  0.58499  1.0000
  C   C1182     1.0  0.88839  0.33223  0.56515  1.0000
  H   H1858     1.0  0.90540  0.37529  0.55555  1.0000
  H   H1859     1.0  0.90460  0.37318  0.59050  1.0000
  H   H1860     1.0  0.88424  0.31798  0.59318  1.0000
  H   H1861     1.0  0.88334  0.32100  0.55813  1.0000
  H   H1862     1.0  0.87884  0.04671  0.49085  1.0000
  S   S485      1.0  0.91890  0.32474  0.66066  1.0000
  H   H1863     1.0  0.92937  0.05803  0.57253  1.0000
  N   N114      1.0  0.87014  0.41512  0.54981  1.0000
  H   H1864     1.0  0.97675  0.41109  0.49471  1.0000
  C   C1183     1.0  0.91142  0.46410  0.50067  1.0000
  C   C1184     1.0  0.92899  0.46483  0.49064  1.0000
  C   C1185     1.0  0.99085  0.29610  0.33592  1.0000
  C   C1186     1.0  0.90240  0.48081  0.50714  1.0000
  H   H1865     1.0  0.93608  0.45210  0.48555  1.0000
  H   H1866     1.0  0.88879  0.48040  0.51488  1.0000
  Fe  Fe245     1.0  0.90104  0.01341  0.58159  1.0000
  H   H1867     1.0  0.82519  0.17818  0.48786  1.0000
  H   H1868     1.0  0.85957  0.18501  0.45999  1.0000
  H   H1869     1.0  0.89223  0.06375  0.45128  1.0000
  H   H1870     1.0  0.84481  0.21770  0.45655  1.0000
  H   H1871     1.0  0.95114  0.33301  0.40743  1.0000
  N   N115      1.0  0.92718  0.06629  0.60093  1.0000
  H   H1872     1.0  0.87985  0.41146  0.52097  1.0000
  H   H1873     1.0  0.79991  0.19421  0.45719  1.0000
  H   H1874     1.0  0.81977  0.22167  0.45500  1.0000
  C   C1187     1.0  0.86150  0.37468  0.36284  1.0000
  H   H1875     1.0  0.76169  0.09460  0.58153  1.0000
  H   H1876     1.0  0.95089  0.48251  0.47911  1.0000
  H   H1877     1.0  0.77990  0.11809  0.53594  1.0000
  N   N116      1.0  0.87350  0.04262  0.46223  1.0000
  C   C1188     1.0  0.87411  0.02186  0.46579  1.0000
  C   C1189     1.0  0.89221  0.04818  0.45444  1.0000
  C   C1190     1.0  0.86843  0.05133  0.48016  1.0000
  C   C1191     1.0  0.85931  0.04906  0.44852  1.0000
  C   C1192     1.0  0.75312  0.11784  0.63593  1.0000
  C   C1193     1.0  0.80566  0.16454  0.33907  1.0000
  H   H1878     1.0  0.78014  0.09646  0.55099  1.0000
  S   S486      1.0  0.88194  0.30076  0.65783  1.0000
  H   H1879     1.0  0.86786  0.06701  0.47796  1.0000
  C   C1194     1.0  0.93735  0.48211  0.48700  1.0000
  H   H1880     1.0  0.88955  0.20683  0.64427  1.0000
  H   H1881     1.0  0.81128  0.15279  0.34894  1.0000
  H   H1882     1.0  0.93801  0.34990  0.56986  1.0000
  H   H1883     1.0  0.85872  0.06467  0.44518  1.0000
  H   H1884     1.0  0.90325  0.04362  0.46448  1.0000
  C   C1195     1.0  0.86458  0.34695  0.34559  1.0000
  H   H1885     1.0  0.87780  0.01482  0.45252  1.0000
  H   H1886     1.0  0.85439  0.04739  0.48646  1.0000
  H   H1887     1.0  0.86256  0.04252  0.43491  1.0000
  C   C1196     1.0  0.82766  0.18562  0.34796  1.0000
  N   N117      1.0  0.80757  0.18312  0.34608  1.0000
  H   H1888     1.0  0.95995  0.34035  0.55955  1.0000
  H   H1889     1.0  0.98397  0.34584  0.59187  1.0000
  C   C1197     1.0  0.99379  0.38959  0.51010  1.0000
  C   C1198     1.0  0.75980  0.11903  0.36476  1.0000
  C   C1199     1.0  0.91875  0.04886  0.60904  1.0000
  H   H1890     1.0  0.89472  0.35427  0.36275  1.0000
  H   H1891     1.0  0.90291  0.08409  0.60993  1.0000
  H   H1892     1.0  0.89665  0.42742  0.54329  1.0000
  H   H1893     1.0  0.92975  0.03748  0.61282  1.0000
  H   H1894     1.0  0.98004  0.32382  0.60535  1.0000
  H   H1895     1.0  0.80285  0.17299  0.37512  1.0000
  H   H1896     1.0  0.84521  0.16538  0.46122  1.0000
  H   H1897     1.0  0.84476  0.43004  0.54032  1.0000
  H   H1898     1.0  0.95102  0.06132  0.61782  1.0000
  H   H1899     1.0  0.95847  0.29909  0.44905  1.0000
  H   H1900     1.0  0.86650  0.38882  0.36423  1.0000
  H   H1901     1.0  0.85846  0.41233  0.57863  1.0000
  H   H1902     1.0  0.79236  0.11582  0.55695  1.0000
  H   H1903     1.0  0.81414  0.18567  0.43741  1.0000
  H   H1904     1.0  0.91954  0.30582  0.41657  1.0000
  H   H1905     1.0  0.84879  0.17974  0.43929  1.0000
  C   C1200     1.0  0.84659  0.18013  0.45494  1.0000
  C   C1201     1.0  0.99076  0.40635  0.49861  1.0000
  H   H1906     1.0  0.84632  0.40071  0.56230  1.0000
  S   S487      1.0  0.93046  0.01559  0.56859  1.0000
  H   H1907     1.0  0.96798  0.28268  0.41055  1.0000
  C   C1202     1.0  0.86043  0.40430  0.56586  1.0000
  H   H1908     1.0  0.83390  0.17462  0.35826  1.0000
  N   N118      1.0  0.94908  0.30500  0.42099  1.0000
  C   C1203     1.0  0.92907  0.30797  0.42775  1.0000
  C   C1204     1.0  0.95308  0.31805  0.40407  1.0000
  C   C1205     1.0  0.95308  0.28534  0.41607  1.0000
  C   C1206     1.0  0.96109  0.30869  0.43605  1.0000
  C   C1207     1.0  0.75743  0.10147  0.37479  1.0000
  H   H1909     1.0  0.95405  0.35985  0.60657  1.0000
  C   C1208     1.0  0.87263  0.40373  0.53336  1.0000
  H   H1910     1.0  0.96781  0.31554  0.39799  1.0000
  H   H1911     1.0  0.94368  0.31626  0.39269  1.0000
  H   H1912     1.0  0.95097  0.30851  0.60314  1.0000
  H   H1913     1.0  0.87203  0.33967  0.33367  1.0000
  H   H1914     1.0  0.94418  0.28219  0.40475  1.0000
  H   H1915     1.0  0.95034  0.27503  0.42848  1.0000
  H   H1916     1.0  0.95826  0.32344  0.44011  1.0000
  H   H1917     1.0  0.97629  0.30673  0.43137  1.0000
  C   C1209     1.0  0.94809  0.31774  0.59003  1.0000
  S   S488      1.0  0.96572  0.28984  0.36734  1.0000
  C   C1210     1.0  0.83226  0.21192  0.45153  1.0000
  H   H1918     1.0  0.88117  0.39027  0.53654  1.0000
  S   S489      1.0  0.77654  0.13464  0.37053  1.0000
  H   H1919     1.0  0.86596  0.44128  0.53265  1.0000
  H   H1920     1.0  0.95378  0.30990  0.57778  1.0000
  S   S490      1.0  0.96761  0.30602  0.64217  1.0000
  H   H1921     1.0  0.81484  0.20190  0.48545  1.0000
  H   H1922     1.0  0.88666  0.20273  0.35488  1.0000
  H   H1923     1.0  0.85872  0.26701  0.66584  1.0000
  H   H1924     1.0  0.94615  0.08553  0.60898  1.0000
  H   H1925     1.0  0.89656  0.04161  0.44105  1.0000
  H   H1926     1.0  0.83426  0.21226  0.43580  1.0000
  C   C1211     1.0  0.81298  0.18555  0.45309  1.0000
  H   H1927     1.0  0.94963  0.05094  0.58563  1.0000
  H   H1928     1.0  0.93251  0.34890  0.60514  1.0000
  H   H1929     1.0  0.92569  0.32254  0.43202  1.0000
  N   N119      1.0  0.95661  0.33593  0.58995  1.0000
  C   C1212     1.0  0.95330  0.34742  0.57197  1.0000
  H   H1930     1.0  0.83613  0.18481  0.33423  1.0000
  C   C1213     1.0  0.94796  0.34608  0.60603  1.0000
  H   H1931     1.0  0.95007  0.33768  0.61979  1.0000
  H   H1932     1.0  0.77509  0.14373  0.56890  1.0000
  H   H1933     1.0  0.74995  0.14588  0.57078  1.0000
  H   H1934     1.0  0.90958  0.05126  0.62208  1.0000
  C   C1214     1.0  0.77936  0.11209  0.55095  1.0000
  C   C1215     1.0  0.82733  0.19258  0.48098  1.0000
  H   H1935     1.0  0.86667  0.33767  0.35885  1.0000
  C   C1216     1.0  0.98965  0.29789  0.65119  1.0000
  H   H1936     1.0  0.84607  0.37649  0.36125  1.0000
  H   H1937     1.0  0.76596  0.09694  0.38652  1.0000
  H   H1938     1.0  0.86850  0.00092  0.35002  1.0000
  H   H1939     1.0  0.94523  0.07523  0.57675  1.0000
  H   H1940     1.0  0.91003  0.04341  0.59878  1.0000
  S   S491      1.0  0.96432  0.01462  0.60674  1.0000
  C   C1217     1.0  0.76151  0.11021  0.58128  1.0000
  C   C1218     1.0  0.89195  0.36345  0.34962  1.0000
  H   H1941     1.0  0.79062  0.16208  0.33778  1.0000
  N   N120      1.0  0.76220  0.11935  0.56175  1.0000
  C   C1219     1.0  0.99171  0.28226  0.66443  1.0000
  H   H1942     1.0  0.78196  0.18188  0.36408  1.0000
  H   H1943     1.0  0.80102  0.21243  0.33758  1.0000
  H   H1944     1.0  0.82956  0.19953  0.35320  1.0000
  H   H1945     1.0  0.79828  0.19787  0.37060  1.0000
  N   N121      1.0  0.87162  0.36567  0.34672  1.0000
  C   C1220     1.0  0.79713  0.18410  0.36474  1.0000
  C   C1221     1.0  0.76242  0.13999  0.56227  1.0000
  H   H1946     1.0  0.86371  0.36595  0.37645  1.0000
  H   H1947     1.0  0.84929  0.34802  0.34333  1.0000
  Fe  Fe246     1.0  0.94002  0.00104  0.59575  1.0000
  S   S492      1.0  0.91048  0.00073  0.60975  1.0000
  H   H1948     1.0  0.90010  0.35691  0.33760  1.0000
  H   H1949     1.0  0.75017  0.13801  0.34155  1.0000
  H   H1950     1.0  0.89773  0.37723  0.35093  1.0000
  C   C1222     1.0  0.91088  0.49809  0.50369  1.0000
  Fe  Fe247     1.0  0.98077  0.39173  0.90426  1.0000
  S   S493      1.0  0.95112  0.38226  0.90439  1.0000
  H   H1951     1.0  0.93522  0.36894  0.79721  1.0000
  S   S494      1.0  0.98223  0.41920  0.91680  1.0000
  H   H1952     1.0  0.75230  0.31515  0.89272  1.0000
  H   H1953     1.0  0.77600  0.32127  0.88714  1.0000
  S   S495      1.0  0.89163  0.30608  0.71133  1.0000
  Fe  Fe248     1.0  0.87774  0.38945  0.82365  1.0000
  S   S496      1.0  0.87130  0.40708  0.79672  1.0000
  S   S497      1.0  0.90918  0.38738  0.82788  1.0000
  Fe  Fe249     1.0  0.83645  0.37931  0.83100  1.0000
  S   S498      1.0  0.82816  0.39555  0.80394  1.0000
  S   S499      1.0  0.81602  0.36840  0.85537  1.0000
  Fe  Fe250     1.0  0.85535  0.38268  0.79037  1.0000
  S   S500      1.0  0.86013  0.37549  0.75934  1.0000
  Fe  Fe251     1.0  0.84507  0.41835  0.81253  1.0000
  S   S501      1.0  0.83054  0.44797  0.81458  1.0000
  S   S502      1.0  0.86255  0.36464  0.81692  1.0000
  S   S503      1.0  0.85263  0.40251  0.83993  1.0000
  H   H1954     1.0  0.77112  0.29697  0.89140  1.0000
  C   C1223     1.0  0.83081  0.48644  0.81565  1.0000
  C   C1224     1.0  0.84143  0.46969  0.81134  1.0000
  C   C1225     1.0  0.86018  0.47072  0.80434  1.0000
  C   C1226     1.0  0.86805  0.48834  0.80132  1.0000
  H   H1955     1.0  0.81628  0.48584  0.82101  1.0000
  H   H1956     1.0  0.86851  0.45800  0.80088  1.0000
  H   H1957     1.0  0.79223  0.30895  0.93503  1.0000
  C   C1227     1.0  0.76494  0.35290  0.84224  1.0000
  C   C1228     1.0  0.78357  0.35845  0.84043  1.0000
  C   C1229     1.0  0.79208  0.36289  0.85633  1.0000
  C   C1230     1.0  0.78146  0.36245  0.87386  1.0000
  H   H1958     1.0  0.79320  0.40008  0.83062  1.0000
  H   H1959     1.0  0.79152  0.35866  0.82685  1.0000
  H   H1960     1.0  0.78783  0.36608  0.88622  1.0000
  H   H1961     1.0  0.94726  0.37066  0.77407  1.0000
  H   H1962     1.0  0.81467  0.42796  0.84751  1.0000
  C   C1231     1.0  0.88306  0.32564  0.72442  1.0000
  C   C1232     1.0  0.87917  0.32262  0.74415  1.0000
  C   C1233     1.0  0.87207  0.33755  0.75507  1.0000
  C   C1234     1.0  0.86867  0.35581  0.74640  1.0000
  C   C1235     1.0  0.87258  0.35882  0.72669  1.0000
  C   C1236     1.0  0.87979  0.34391  0.71579  1.0000
  H   H1963     1.0  0.88155  0.30856  0.75102  1.0000
  H   H1964     1.0  0.86898  0.33485  0.77014  1.0000
  H   H1965     1.0  0.87002  0.37283  0.71975  1.0000
  H   H1966     1.0  0.88262  0.34655  0.70066  1.0000
  H   H1967     1.0  0.95254  0.36888  0.94780  1.0000
  H   H1968     1.0  0.85612  0.24433  0.72359  1.0000
  C   C1237     1.0  0.91984  0.35777  0.75584  1.0000
  H   H1969     1.0  0.98413  0.49784  0.99497  1.0000
  C   C1238     1.0  0.93932  0.38449  0.88313  1.0000
  C   C1239     1.0  0.94901  0.38824  0.86553  1.0000
  C   C1240     1.0  0.93948  0.38924  0.84883  1.0000
  C   C1241     1.0  0.92011  0.38681  0.84951  1.0000
  C   C1242     1.0  0.91030  0.38337  0.86712  1.0000
  C   C1243     1.0  0.91992  0.38208  0.88385  1.0000
  H   H1970     1.0  0.96392  0.39002  0.86473  1.0000
  H   H1971     1.0  0.94720  0.39185  0.83530  1.0000
  H   H1972     1.0  0.89542  0.38136  0.86783  1.0000
  H   H1973     1.0  0.91231  0.37909  0.89737  1.0000
  H   H1974     1.0  0.92381  0.34233  0.75711  1.0000
  H   H1975     1.0  0.94677  0.42065  0.97434  1.0000
  H   H1976     1.0  0.89779  0.38815  0.76597  1.0000
  H   H1977     1.0  0.96911  0.38622  0.94209  1.0000
  H   H1978     1.0  0.76688  0.42245  0.87107  1.0000
  H   H1979     1.0  0.94135  0.34801  0.78517  1.0000
  N   N122      1.0  0.78525  0.42458  0.84569  1.0000
  C   C1244     1.0  0.80252  0.42202  0.85611  1.0000
  C   C1245     1.0  0.78034  0.44495  0.84127  1.0000
  C   C1246     1.0  0.76966  0.41600  0.85739  1.0000
  C   C1247     1.0  0.78857  0.41531  0.82789  1.0000
  H   H1980     1.0  0.94354  0.41018  0.93421  1.0000
  H   H1981     1.0  0.80070  0.42908  0.86948  1.0000
  C   C1248     1.0  0.76717  0.31129  0.89608  1.0000
  C   C1249     1.0  0.90394  0.35553  0.78706  1.0000
  H   H1982     1.0  0.83817  0.27999  0.70283  1.0000
  H   H1983     1.0  0.85643  0.24242  0.67163  1.0000
  H   H1984     1.0  0.77766  0.45243  0.85436  1.0000
  H   H1985     1.0  0.77112  0.34211  0.91479  1.0000
  H   H1986     1.0  0.85970  0.28833  0.69180  1.0000
  H   H1987     1.0  0.76358  0.33158  0.93777  1.0000
  N   N123      1.0  0.76968  0.31201  0.91643  1.0000
  H   H1988     1.0  0.92407  0.41442  0.95118  1.0000
  Fe  Fe252     1.0  0.90193  0.30481  0.67993  1.0000
  H   H1989     1.0  0.80658  0.40684  0.85982  1.0000
  H   H1990     1.0  0.90272  0.36062  0.80145  1.0000
  H   H1991     1.0  0.79967  0.42207  0.81837  1.0000
  C   C1250     1.0  0.78986  0.30846  0.91981  1.0000
  C   C1251     1.0  0.85116  0.24364  0.70924  1.0000
  H   H1992     1.0  0.90769  0.34007  0.78863  1.0000
  H   H1993     1.0  0.85897  0.27878  0.71582  1.0000
  H   H1994     1.0  0.92187  0.39389  0.76249  1.0000
  C   C1252     1.0  0.93631  0.36317  0.78307  1.0000
  H   H1995     1.0  0.79839  0.31922  0.91157  1.0000
  C   C1253     1.0  0.85372  0.27708  0.70178  1.0000
  H   H1996     1.0  0.88975  0.35777  0.78150  1.0000
  H   H1997     1.0  0.75638  0.41771  0.84999  1.0000
  N   N124      1.0  0.91799  0.36557  0.77449  1.0000
  N   N125      1.0  0.94618  0.39464  0.96135  1.0000
  C   C1254     1.0  0.93388  0.38587  0.97677  1.0000
  C   C1255     1.0  0.95650  0.40919  0.96876  1.0000
  C   C1256     1.0  0.93464  0.40341  0.94606  1.0000
  C   C1257     1.0  0.95977  0.38001  0.95378  1.0000
  H   H1998     1.0  0.92344  0.39650  0.98285  1.0000
  H   H1999     1.0  0.94223  0.37908  0.98849  1.0000
  H   H2000     1.0  0.92594  0.37478  0.97162  1.0000
  N   N126      1.0  0.85933  0.25810  0.69554  1.0000
  H   H2001     1.0  0.87552  0.49646  0.86008  1.0000
  H   H2002     1.0  0.75870  0.34891  0.82995  1.0000
  H   H2003     1.0  0.99602  0.49377  0.87153  1.0000
  H   H2004     1.0  0.96887  0.37311  0.96481  1.0000
  H   H2005     1.0  0.92702  0.39273  0.93981  1.0000
  H   H2006     1.0  0.88491  0.24082  0.68978  1.0000
  H   H2007     1.0  0.96526  0.40309  0.98042  1.0000
  C   C1258     1.0  0.76280  0.33084  0.92229  1.0000
  C   C1259     1.0  0.91178  0.38585  0.77208  1.0000
  H   H2008     1.0  0.77294  0.40059  0.86067  1.0000
  H   H2009     1.0  0.96625  0.41583  0.95759  1.0000
  H   H2010     1.0  0.88654  0.26548  0.68401  1.0000
  H   H2011     1.0  0.90634  0.35992  0.74883  1.0000
  C   C1260     1.0  0.85247  0.25663  0.67668  1.0000
  C   C1261     1.0  0.76265  0.35745  0.87553  1.0000
  H   H2012     1.0  0.93064  0.36470  0.74611  1.0000
  H   H2013     1.0  0.88246  0.48898  0.79555  1.0000
  H   H2014     1.0  0.91044  0.39222  0.78588  1.0000
  H   H2015     1.0  0.83552  0.24553  0.71037  1.0000
  H   H2016     1.0  0.88590  0.25642  0.70827  1.0000
  C   C1262     1.0  0.75893  0.29747  0.92763  1.0000
  H   H2017     1.0  0.76027  0.29783  0.94309  1.0000
  C   C1263     1.0  0.75446  0.35206  0.85984  1.0000
  H   H2018     1.0  0.79552  0.29437  0.91554  1.0000
  H   H2019     1.0  0.79199  0.45176  0.83254  1.0000
  H   H2020     1.0  0.76756  0.44740  0.83313  1.0000
  H   H2021     1.0  0.85522  0.22918  0.70490  1.0000
  C   C1264     1.0  0.88006  0.25500  0.69446  1.0000
  H   H2022     1.0  0.97949  0.27492  0.66985  1.0000
  H   H2023     1.0  0.75451  0.35750  0.88895  1.0000
  C   C1265     1.0  0.99720  0.48987  0.88647  1.0000
  H   H2024     1.0  0.77565  0.41623  0.81998  1.0000
  H   H2025     1.0  0.83691  0.25912  0.67677  1.0000
  S   S504      1.0  0.92178  0.27974  0.67263  1.0000
  H   H2026     1.0  0.76368  0.28304  0.92372  1.0000
  H   H2027     1.0  0.90817  0.49704  0.87007  1.0000
  C   C1266     1.0  0.78307  0.63743  0.14706  1.0000
  H   H2028     1.0  0.78594  0.65216  0.14544  1.0000
  H   H2029     1.0  0.93371  0.64036  0.20296  1.0000
  H   H2030     1.0  0.76608  0.89130  0.30125  1.0000
  C   C1267     1.0  0.93285  0.62914  0.21488  1.0000
  S   S505      1.0  0.97351  0.61296  0.11098  1.0000
  C   C1268     1.0  0.76755  0.63171  0.13856  1.0000
  H   H2031     1.0  0.87018  0.68955  0.31669  1.0000
  Fe  Fe253     1.0  0.86427  0.55349  0.19010  1.0000
  S   S506      1.0  0.85635  0.57357  0.16523  1.0000
  S   S507      1.0  0.87105  0.52298  0.18254  1.0000
  Fe  Fe254     1.0  0.86274  0.58629  0.21624  1.0000
  S   S508      1.0  0.85338  0.60793  0.19311  1.0000
  S   S509      1.0  0.87232  0.59175  0.24532  1.0000
  Fe  Fe255     1.0  0.83432  0.58666  0.18519  1.0000
  S   S510      1.0  0.80482  0.58816  0.17413  1.0000
  Fe  Fe256     1.0  0.87601  0.59296  0.17492  1.0000
  S   S511      1.0  0.89333  0.61370  0.15670  1.0000
  S   S512      1.0  0.84162  0.56582  0.21006  1.0000
  S   S513      1.0  0.88599  0.57212  0.19804  1.0000
  S   S514      1.0  0.88851  0.66053  0.29299  1.0000
  C   C1269     1.0  0.79091  0.60532  0.16038  1.0000
  C   C1270     1.0  0.77531  0.59963  0.15202  1.0000
  C   C1271     1.0  0.76373  0.61270  0.14113  1.0000
  C   C1272     1.0  0.79469  0.62434  0.15789  1.0000
  H   H2032     1.0  0.77206  0.58503  0.15399  1.0000
  H   H2033     1.0  0.80621  0.62905  0.16475  1.0000
  C   C1273     1.0  0.87669  0.61121  0.25820  1.0000
  C   C1274     1.0  0.87100  0.62995  0.25239  1.0000
  C   C1275     1.0  0.87486  0.64476  0.26313  1.0000
  C   C1276     1.0  0.88450  0.64116  0.27980  1.0000
  C   C1277     1.0  0.89032  0.62244  0.28551  1.0000
  C   C1278     1.0  0.88637  0.60763  0.27484  1.0000
  H   H2034     1.0  0.86336  0.63303  0.23981  1.0000
  H   H2035     1.0  0.87019  0.65913  0.25856  1.0000
  H   H2036     1.0  0.89768  0.61932  0.29829  1.0000
  H   H2037     1.0  0.89080  0.59323  0.27960  1.0000
  H   H2038     1.0  0.83915  0.53929  0.15292  1.0000
  C   C1279     1.0  0.82380  0.54257  0.15129  1.0000
  H   H2039     1.0  0.99431  0.59493  0.02796  1.0000
  C   C1280     1.0  0.81657  0.53586  0.18479  1.0000
  C   C1281     1.0  0.95146  0.61131  0.12403  1.0000
  C   C1282     1.0  0.94016  0.62812  0.12549  1.0000
  C   C1283     1.0  0.92254  0.62827  0.13549  1.0000
  C   C1284     1.0  0.91580  0.61162  0.14437  1.0000
  C   C1285     1.0  0.92701  0.59458  0.14318  1.0000
  C   C1286     1.0  0.94488  0.59442  0.13293  1.0000
  H   H2040     1.0  0.94509  0.64120  0.11874  1.0000
  H   H2041     1.0  0.91412  0.64150  0.13635  1.0000
  H   H2042     1.0  0.92194  0.58160  0.14999  1.0000
  H   H2043     1.0  0.95352  0.58135  0.13190  1.0000
  H   H2044     1.0  0.92721  0.63602  0.22780  1.0000
  H   H2045     1.0  0.80953  0.52660  0.19615  1.0000
  C   C1287     1.0  0.79217  0.53626  0.16318  1.0000
  H   H2046     1.0  0.83824  0.68229  0.31038  1.0000
  H   H2047     1.0  0.91076  0.58857  0.22460  1.0000
  H   H2048     1.0  0.78842  0.53320  0.14895  1.0000
  H   H2049     1.0  0.87425  0.98546  0.33155  1.0000
  N   N127      1.0  0.84752  0.63541  0.12772  1.0000
  C   C1288     1.0  0.84812  0.64529  0.14501  1.0000
  C   C1289     1.0  0.84587  0.61508  0.13303  1.0000
  C   C1290     1.0  0.86502  0.63802  0.11557  1.0000
  C   C1291     1.0  0.83111  0.64323  0.11731  1.0000
  H   H2050     1.0  0.83517  0.64360  0.15455  1.0000
  H   H2051     1.0  0.84945  0.66067  0.14159  1.0000
  H   H2052     1.0  0.86030  0.63964  0.15323  1.0000
  H   H2053     1.0  0.84502  0.60719  0.12039  1.0000
  H   H2054     1.0  0.85829  0.60872  0.14047  1.0000
  H   H2055     1.0  0.83309  0.61254  0.14263  1.0000
  H   H2056     1.0  0.86677  0.65320  0.11129  1.0000
  H   H2057     1.0  0.86516  0.63061  0.10246  1.0000
  H   H2058     1.0  0.87769  0.63229  0.12303  1.0000
  H   H2059     1.0  0.83027  0.63617  0.10413  1.0000
  H   H2060     1.0  0.83174  0.65862  0.11327  1.0000
  H   H2061     1.0  0.81767  0.64129  0.12600  1.0000
  C   C1292     1.0  0.83245  0.69521  0.31718  1.0000
  Fe  Fe257     1.0  0.99615  0.59048  0.10293  1.0000
  C   C1293     1.0  0.81703  0.51111  0.16378  1.0000
  N   N128      1.0  0.92084  0.61432  0.21077  1.0000
  H   H2062     1.0  0.94744  0.62322  0.21730  1.0000
  C   C1294     1.0  0.90169  0.62285  0.20754  1.0000
  H   H2063     1.0  0.81800  0.69265  0.32336  1.0000
  H   H2064     1.0  0.81353  0.50713  0.14980  1.0000
  H   H2065     1.0  0.80940  0.50217  0.17500  1.0000
  H   H2066     1.0  0.84186  0.51167  0.21218  1.0000
  C   C1295     1.0  0.86063  0.50134  0.18967  1.0000
  H   H2067     1.0  0.81186  0.55067  0.18738  1.0000
  H   H2068     1.0  0.82099  0.53963  0.13673  1.0000
  H   H2069     1.0  0.83234  0.50730  0.16499  1.0000
  H   H2070     1.0  0.86352  0.71415  0.31135  1.0000
  H   H2071     1.0  0.83122  0.70692  0.30578  1.0000
  H   H2072     1.0  0.82072  0.55798  0.15241  1.0000
  H   H2073     1.0  0.92994  0.61603  0.18115  1.0000
  H   H2074     1.0  0.90166  0.63310  0.19477  1.0000
  H   H2075     1.0  0.75319  0.92928  0.31660  1.0000
  H   H2076     1.0  0.76164  0.89501  0.32592  1.0000
  N   N129      1.0  0.81237  0.53144  0.16575  1.0000
  C   C1296     1.0  0.92885  0.60547  0.19365  1.0000
  H   H2077     1.0  0.78316  0.52824  0.17400  1.0000
  H   H2078     1.0  0.91989  0.59453  0.18987  1.0000
  Fe  Fe258     1.0  0.90484  0.66309  0.31934  1.0000
  H   H2079     1.0  0.94318  0.59858  0.19560  1.0000
  S   S515      1.0  0.99102  0.56334  0.09109  1.0000
  H   H2080     1.0  0.91391  0.60612  0.24018  1.0000
  H   H2081     1.0  0.89202  0.61193  0.20541  1.0000
  H   H2082     1.0  0.89553  0.63034  0.21986  1.0000
  H   H2083     1.0  0.93408  0.59304  0.22991  1.0000
  S   S516      1.0  0.96723  0.69325  0.32487  1.0000
  S   S517      1.0  0.91311  0.69247  0.32292  1.0000
  C   C1297     1.0  0.91992  0.59988  0.22704  1.0000
  H   H2084     1.0  0.95883  0.54479  0.00245  1.0000
  C   C1298     1.0  0.75495  0.89188  0.31305  1.0000
  H   H2085     1.0  0.83192  0.53416  0.18657  1.0000
  H   H2086     1.0  0.78837  0.55158  0.16456  1.0000
  C   C1299     1.0  0.84623  0.49977  0.20410  1.0000
  S   S518      1.0  0.75364  0.64883  0.12476  1.0000
  C   C1300     1.0  0.86371  0.70254  0.32289  1.0000
  H   H2087     1.0  0.95866  0.51983  0.00880  1.0000
  H   H2088     1.0  0.74988  0.87747  0.31590  1.0000
  S   S519      1.0  0.93310  0.64961  0.32745  1.0000
  C   C1301     1.0  0.99417  0.52996  0.00640  1.0000
  H   H2089     1.0  0.75726  0.92514  0.29201  1.0000
  H   H2090     1.0  0.75183  0.60808  0.13475  1.0000
  H   H2091     1.0  0.99158  0.51898  0.01827  1.0000
  H   H2092     1.0  0.83658  0.72955  0.32949  1.0000
  N   N130      1.0  0.84465  0.69972  0.33174  1.0000
  H   H2093     1.0  0.99122  0.54393  0.01223  1.0000
  H   H2094     1.0  0.87322  0.70623  0.33340  1.0000
  Fe  Fe259     1.0  0.93297  0.54949  0.49809  1.0000
  S   S520      1.0  0.94278  0.57164  0.47577  1.0000
  S   S521      1.0  0.93942  0.52017  0.48777  1.0000
  Fe  Fe260     1.0  0.92247  0.57914  0.52678  1.0000
  S   S522      1.0  0.93107  0.60318  0.50625  1.0000
  S   S523      1.0  0.91470  0.58235  0.55809  1.0000
  Fe  Fe261     1.0  0.91691  0.58918  0.48473  1.0000
  S   S524      1.0  0.89873  0.60607  0.46335  1.0000
  Fe  Fe262     1.0  0.95617  0.58368  0.49874  1.0000
  S   S525      1.0  0.98425  0.59585  0.49229  1.0000
  S   S526      1.0  0.90587  0.56637  0.50589  1.0000
  S   S527      1.0  0.94868  0.56033  0.52052  1.0000
  Fe  Fe263     1.0  0.91419  0.95621  0.40435  1.0000
  S   S528      1.0  0.92741  0.98144  0.38870  1.0000
  S   S529      1.0  0.91348  0.92797  0.39204  1.0000
  H   H2095     1.0  0.94009  0.53848  0.45030  1.0000
  H   H2096     1.0  0.97074  0.63912  0.56500  1.0000
  Fe  Fe264     1.0  0.93972  0.98490  0.41636  1.0000
  N   N131      1.0  0.86958  0.62539  0.63612  1.0000
  H   H2097     1.0  0.80970  0.78293  0.58144  1.0000
  S   S530      1.0  0.92860  0.95830  0.43100  1.0000
  C   C1302     1.0  0.80201  0.91653  0.63235  1.0000
  S   S531      1.0  0.93997  0.97198  0.58615  1.0000
  S   S532      1.0  0.94212  0.97922  0.53181  1.0000
  Fe  Fe265     1.0  0.90960  0.97263  0.59749  1.0000
  S   S533      1.0  0.89863  0.94610  0.61343  1.0000
  N   N132      1.0  0.92306  0.92286  0.54485  1.0000
  Fe  Fe266     1.0  0.91156  0.70233  0.64695  1.0000
  S   S534      1.0  0.89374  0.67916  0.64137  1.0000
  S   S535      1.0  0.90417  0.73433  0.64683  1.0000
  Fe  Fe267     1.0  0.91948  0.66731  0.62488  1.0000
  S   S536      1.0  0.91705  0.66025  0.59464  1.0000
  S   S537      1.0  0.93677  0.69150  0.62892  1.0000
  Fe  Fe268     1.0  0.84264  0.86137  0.58130  1.0000
  S   S538      1.0  0.81258  0.86837  0.57484  1.0000
  S   S539      1.0  0.86085  0.88569  0.57137  1.0000
  Fe  Fe269     1.0  0.83538  0.81996  0.59378  1.0000
  S   S540      1.0  0.80440  0.82510  0.58842  1.0000
  S   S541      1.0  0.84499  0.78839  0.59916  1.0000
  Fe  Fe270     1.0  0.81446  0.84114  0.56128  1.0000
  S   S542      1.0  0.79990  0.84023  0.53396  1.0000
  Fe  Fe271     1.0  0.80486  0.85206  0.60249  1.0000
  S   S543      1.0  0.78348  0.86967  0.62084  1.0000
  S   S544      1.0  0.84510  0.83500  0.56578  1.0000
  S   S545      1.0  0.83526  0.84610  0.60980  1.0000
  Fe  Fe272     1.0  0.83164  0.85656  0.39323  1.0000
  S   S546      1.0  0.80787  0.85080  0.41490  1.0000
  S   S547      1.0  0.83728  0.88763  0.39223  1.0000
  Fe  Fe273     1.0  0.83473  0.81527  0.38264  1.0000
  S   S548      1.0  0.81091  0.80726  0.40387  1.0000
  S   S549      1.0  0.85134  0.79611  0.36177  1.0000
  Fe  Fe274     1.0  0.79595  0.83507  0.39306  1.0000
  S   S550      1.0  0.76440  0.84330  0.39007  1.0000
  Fe  Fe275     1.0  0.82469  0.82413  0.42374  1.0000
  S   S551      1.0  0.83412  0.81561  0.45361  1.0000
  S   S552      1.0  0.81893  0.84225  0.37086  1.0000
  S   S553      1.0  0.84929  0.83058  0.40302  1.0000
  Fe  Fe276     1.0  0.90131  0.68821  0.35298  1.0000
  S   S554      1.0  0.89124  0.65968  0.34908  1.0000
  S   S555      1.0  0.88356  0.70940  0.37067  1.0000
  H   H2098     1.0  0.88064  0.62668  0.60706  1.0000
  C   C1303     1.0  0.93612  0.72946  0.34625  1.0000
  H   H2099     1.0  0.89009  0.95761  0.37482  1.0000
  H   H2100     1.0  0.95947  0.75477  0.35412  1.0000
  Fe  Fe277     1.0  0.91989  0.64791  0.35746  1.0000
  S   S556      1.0  0.92739  0.62166  0.37675  1.0000
  H   H2101     1.0  0.85018  0.98952  0.34066  1.0000
  S   S557      1.0  0.92886  0.67588  0.36380  1.0000
  H   H2102     1.0  0.87185  0.95080  0.33858  1.0000
  N   N133      1.0  0.86770  0.97141  0.35903  1.0000
  S   S558      1.0  0.88707  0.97532  0.46749  1.0000
  H   H2103     1.0  0.92869  0.91857  0.51533  1.0000
  C   C1304     1.0  0.86060  0.77209  0.36473  1.0000
  C   C1305     1.0  0.85768  0.76077  0.38165  1.0000
  C   C1306     1.0  0.86500  0.74175  0.38320  1.0000
  C   C1307     1.0  0.87542  0.73374  0.36793  1.0000
  C   C1308     1.0  0.87848  0.74505  0.35102  1.0000
  C   C1309     1.0  0.87108  0.76407  0.34945  1.0000
  H   H2104     1.0  0.84965  0.76665  0.39353  1.0000
  H   H2105     1.0  0.86247  0.73316  0.39635  1.0000
  H   H2106     1.0  0.96357  0.62697  0.51655  1.0000
  H   H2107     1.0  0.89178  0.98244  0.36910  1.0000
  C   C1310     1.0  0.81007  0.83423  0.51155  1.0000
  C   C1311     1.0  0.79930  0.83770  0.49569  1.0000
  C   C1312     1.0  0.80649  0.83233  0.47780  1.0000
  C   C1313     1.0  0.82439  0.82299  0.47569  1.0000
  C   C1314     1.0  0.83514  0.81945  0.49158  1.0000
  C   C1315     1.0  0.82818  0.82534  0.50933  1.0000
  H   H2108     1.0  0.78525  0.84452  0.49727  1.0000
  H   H2109     1.0  0.79801  0.83507  0.46574  1.0000
  H   H2110     1.0  0.84904  0.81229  0.49007  1.0000
  H   H2111     1.0  0.83670  0.82280  0.52134  1.0000
  C   C1316     1.0  0.88776  0.74916  0.63329  1.0000
  C   C1317     1.0  0.87633  0.74201  0.62094  1.0000
  C   C1318     1.0  0.86344  0.75424  0.61069  1.0000
  C   C1319     1.0  0.86176  0.77382  0.61249  1.0000
  C   C1320     1.0  0.87326  0.78100  0.62475  1.0000
  C   C1321     1.0  0.88612  0.76875  0.63508  1.0000
  H   H2112     1.0  0.87736  0.72703  0.61936  1.0000
  H   H2113     1.0  0.85466  0.74844  0.60131  1.0000
  H   H2114     1.0  0.87218  0.79597  0.62638  1.0000
  H   H2115     1.0  0.93931  0.53861  0.42516  1.0000
  S   S559      1.0  0.89808  0.98536  0.57043  1.0000
  Fe  Fe278     1.0  0.90312  0.97694  0.43920  1.0000
  H   H2116     1.0  0.92866  0.94910  0.55499  1.0000
  H   H2117     1.0  0.98683  0.56483  0.52181  1.0000
  C   C1322     1.0  0.86289  0.95387  0.35159  1.0000
  C   C1323     1.0  0.92503  0.93013  0.52472  1.0000
  H   H2118     1.0  0.76929  0.82965  0.35209  1.0000
  C   C1324     1.0  0.86910  0.90270  0.58462  1.0000
  C   C1325     1.0  0.86962  0.92137  0.57651  1.0000
  C   C1326     1.0  0.87820  0.93489  0.58542  1.0000
  C   C1327     1.0  0.88657  0.92983  0.60245  1.0000
  C   C1328     1.0  0.88552  0.91131  0.61089  1.0000
  C   C1329     1.0  0.87690  0.89776  0.60198  1.0000
  H   H2119     1.0  0.86359  0.92533  0.56310  1.0000
  H   H2120     1.0  0.87846  0.94921  0.57904  1.0000
  H   H2121     1.0  0.89191  0.90730  0.62411  1.0000
  H   H2122     1.0  0.87694  0.88334  0.60820  1.0000
  H   H2123     1.0  0.97152  0.72100  0.35592  1.0000
  H   H2124     1.0  0.86508  0.94146  0.36212  1.0000
  C   C1330     1.0  0.89248  0.91618  0.39330  1.0000
  C   C1331     1.0  0.89293  0.89785  0.38745  1.0000
  C   C1332     1.0  0.87622  0.88859  0.38749  1.0000
  C   C1333     1.0  0.85890  0.89787  0.39285  1.0000
  C   C1334     1.0  0.85850  0.91616  0.39868  1.0000
  C   C1335     1.0  0.87522  0.92506  0.39936  1.0000
  H   H2125     1.0  0.90624  0.89084  0.38276  1.0000
  H   H2126     1.0  0.87669  0.87452  0.38285  1.0000
  H   H2127     1.0  0.84517  0.92337  0.40298  1.0000
  H   H2128     1.0  0.87473  0.93885  0.40440  1.0000
  C   C1336     1.0  0.92867  0.72708  0.37999  1.0000
  C   C1337     1.0  0.99467  0.98054  0.39691  1.0000
  H   H2129     1.0  0.75998  0.83735  0.62940  1.0000
  H   H2130     1.0  0.88636  0.73917  0.33908  1.0000
  C   C1338     1.0  0.92658  0.97934  0.51391  1.0000
  C   C1339     1.0  0.93385  0.97811  0.49522  1.0000
  C   C1340     1.0  0.92170  0.97718  0.48085  1.0000
  H   H2131     1.0  0.94888  0.97791  0.49180  1.0000
  H   H2132     1.0  0.92743  0.97644  0.46642  1.0000
  C   C1341     1.0  0.90747  0.61139  0.43961  1.0000
  C   C1342     1.0  0.92444  0.60275  0.43241  1.0000
  C   C1343     1.0  0.93041  0.60616  0.41318  1.0000
  C   C1344     1.0  0.91982  0.61877  0.40106  1.0000
  C   C1345     1.0  0.90310  0.62787  0.40835  1.0000
  C   C1346     1.0  0.89685  0.62400  0.42750  1.0000
  H   H2133     1.0  0.93296  0.59339  0.44160  1.0000
  H   H2134     1.0  0.94339  0.59915  0.40768  1.0000
  H   H2135     1.0  0.89477  0.63751  0.39914  1.0000
  H   H2136     1.0  0.88372  0.63078  0.43294  1.0000
  C   C1347     1.0  0.91532  0.60403  0.56822  1.0000
  C   C1348     1.0  0.91301  0.62128  0.55737  1.0000
  C   C1349     1.0  0.91349  0.63831  0.56577  1.0000
  C   C1350     1.0  0.91644  0.63831  0.58506  1.0000
  C   C1351     1.0  0.91896  0.62106  0.59593  1.0000
  C   C1352     1.0  0.91818  0.60400  0.58757  1.0000
  H   H2137     1.0  0.91052  0.62151  0.54254  1.0000
  H   H2138     1.0  0.91147  0.65159  0.55726  1.0000
  H   H2139     1.0  0.92158  0.62089  0.61070  1.0000
  H   H2140     1.0  0.92005  0.59068  0.59604  1.0000
  C   C1353     1.0  0.75108  0.84726  0.36972  1.0000
  H   H2141     1.0  0.96707  0.72795  0.64623  1.0000
  C   C1354     1.0  0.91777  0.93871  0.55661  1.0000
  H   H2142     1.0  0.85683  0.60037  0.64814  1.0000
  H   H2143     1.0  0.95252  0.92336  0.54870  1.0000
  H   H2144     1.0  0.90624  0.90376  0.56274  1.0000
  H   H2145     1.0  0.91535  0.51588  0.45470  1.0000
  C   C1355     1.0  0.88757  0.96936  0.36374  1.0000
  H   H2146     1.0  0.94596  0.74366  0.64591  1.0000
  N   N134      1.0  0.85212  0.87214  0.45081  1.0000
  C   C1356     1.0  0.86279  0.86118  0.43634  1.0000
  C   C1357     1.0  0.85733  0.89187  0.44831  1.0000
  C   C1358     1.0  0.85657  0.86368  0.46983  1.0000
  C   C1359     1.0  0.83174  0.87177  0.44869  1.0000
  H   H2147     1.0  0.85926  0.86673  0.42182  1.0000
  H   H2148     1.0  0.85951  0.84609  0.43818  1.0000
  H   H2149     1.0  0.87824  0.86159  0.43703  1.0000
  H   H2150     1.0  0.84981  0.90044  0.45925  1.0000
  H   H2151     1.0  0.87272  0.89273  0.44916  1.0000
  H   H2152     1.0  0.85365  0.89869  0.43427  1.0000
  H   H2153     1.0  0.84815  0.87103  0.48117  1.0000
  H   H2154     1.0  0.87173  0.86424  0.47210  1.0000
  H   H2155     1.0  0.85340  0.84860  0.47178  1.0000
  H   H2156     1.0  0.82314  0.87946  0.45964  1.0000
  H   H2157     1.0  0.82743  0.85705  0.45000  1.0000
  H   H2158     1.0  0.82788  0.87834  0.43456  1.0000
  N   N135      1.0  0.81768  0.77675  0.55279  1.0000
  C   C1360     1.0  0.83533  0.78633  0.55190  1.0000
  C   C1361     1.0  0.82067  0.76013  0.54168  1.0000
  C   C1362     1.0  0.80268  0.78995  0.54487  1.0000
  H   H2159     1.0  0.83339  0.79908  0.55987  1.0000
  H   H2160     1.0  0.84021  0.79086  0.53709  1.0000
  H   H2161     1.0  0.84685  0.77705  0.55835  1.0000
  H   H2162     1.0  0.83202  0.74999  0.54725  1.0000
  H   H2163     1.0  0.82485  0.76433  0.52656  1.0000
  H   H2164     1.0  0.80766  0.75251  0.54208  1.0000
  H   H2165     1.0  0.80002  0.80261  0.55301  1.0000
  H   H2166     1.0  0.78914  0.78324  0.54514  1.0000
  H   H2167     1.0  0.80652  0.79514  0.52994  1.0000
  N   N136      1.0  0.94338  0.73144  0.36478  1.0000
  C   C1363     1.0  0.85942  0.60852  0.63419  1.0000
  C   C1364     1.0  0.99134  0.98740  0.59481  1.0000
  H   H2168     1.0  0.86762  0.59887  0.62461  1.0000
  H   H2169     1.0  0.89593  0.63186  0.64550  1.0000
  C   C1365     1.0  0.85830  0.63773  0.64899  1.0000
  H   H2170     1.0  0.97393  0.58866  0.55391  1.0000
  H   H2171     1.0  0.93359  0.72842  0.39422  1.0000
  H   H2172     1.0  0.84545  0.72048  0.35165  1.0000
  C   C1366     1.0  0.86501  0.98751  0.34463  1.0000
  H   H2173     1.0  0.85599  0.63046  0.66344  1.0000
  H   H2174     1.0  0.97931  0.66562  0.35536  1.0000
  H   H2175     1.0  0.99666  0.63314  0.54068  1.0000
  H   H2176     1.0  0.84791  0.95474  0.34811  1.0000
  H   H2177     1.0  0.89327  0.52158  0.44433  1.0000
  S   S560      1.0  0.96778  0.99451  0.42350  1.0000
  H   H2178     1.0  0.84087  0.88995  0.61714  1.0000
  C   C1367     1.0  0.84567  0.68395  0.34670  1.0000
  C   C1368     1.0  0.96585  0.59893  0.54432  1.0000
  H   H2179     1.0  0.79439  0.93011  0.62749  1.0000
  N   N137      1.0  0.91235  0.54365  0.44024  1.0000
  H   H2180     1.0  0.91566  0.73665  0.37837  1.0000
  H   H2181     1.0  0.92440  0.71245  0.37988  1.0000
  H   H2182     1.0  0.84554  0.61244  0.62825  1.0000
  H   H2183     1.0  0.97977  0.97925  0.59248  1.0000
  H   H2184     1.0  0.89675  0.60995  0.63482  1.0000
  C   C1369     1.0  0.90231  0.97703  0.48523  1.0000
  C   C1370     1.0  0.82851  0.89407  0.62676  1.0000
  H   H2185     1.0  0.85686  0.96306  0.38731  1.0000
  H   H2186     1.0  0.90592  0.56865  0.42194  1.0000
  N   N138      1.0  0.97141  0.61836  0.54481  1.0000
  H   H2187     1.0  0.91619  0.93383  0.57192  1.0000
  C   C1371     1.0  0.75632  0.83857  0.35308  1.0000
  N   N139      1.0  0.81901  0.91227  0.61982  1.0000
  H   H2188     1.0  0.94528  0.63096  0.53474  1.0000
  C   C1372     1.0  0.99673  0.67874  0.66038  1.0000
  H   H2189     1.0  0.91076  0.54540  0.47028  1.0000
  S   S561      1.0  0.88788  0.97288  0.41390  1.0000
  C   C1373     1.0  0.90451  0.55247  0.45740  1.0000
  H   H2190     1.0  0.91428  0.51627  0.42956  1.0000
  H   H2191     1.0  0.88791  0.55233  0.42488  1.0000
  H   H2192     1.0  0.96620  0.71928  0.38115  1.0000
  C   C1374     1.0  0.90862  0.52346  0.44223  1.0000
  C   C1375     1.0  0.94117  0.91338  0.55053  1.0000
  C   C1376     1.0  0.93290  0.54536  0.43784  1.0000
  C   C1377     1.0  0.90342  0.55333  0.42358  1.0000
  H   H2193     1.0  0.88900  0.55172  0.45954  1.0000
  H   H2194     1.0  0.84482  0.92471  0.61033  1.0000
  H   H2195     1.0  0.84429  0.64238  0.64369  1.0000
  H   H2196     1.0  0.95401  0.75302  0.37927  1.0000
  H   H2197     1.0  0.90910  0.54722  0.41030  1.0000
  C   C1378     1.0  0.99149  0.67256  0.34911  1.0000
  H   H2198     1.0  0.90382  0.51083  0.50875  1.0000
  H   H2199     1.0  0.93628  0.94019  0.52212  1.0000
  H   H2200     1.0  0.88604  0.61198  0.65838  1.0000
  C   C1379     1.0  0.88789  0.61947  0.64399  1.0000
  H   H2201     1.0  0.99511  0.61566  0.52455  1.0000
  H   H2202     1.0  0.85928  0.64114  0.61125  1.0000
  H   H2203     1.0  0.94569  0.90135  0.54193  1.0000
  H   H2204     1.0  0.82596  0.90734  0.59062  1.0000
  C   C1380     1.0  0.96071  0.63117  0.53128  1.0000
  H   H2205     1.0  0.82524  0.94138  0.61468  1.0000
  H   H2206     1.0  0.83159  0.68162  0.35396  1.0000
  H   H2207     1.0  0.81887  0.88248  0.62766  1.0000
  H   H2208     1.0  0.84030  0.97692  0.37308  1.0000
  C   C1381     1.0  0.83195  0.92741  0.61976  1.0000
  H   H2209     1.0  0.80344  0.89999  0.60003  1.0000
  C   C1382     1.0  0.81352  0.91103  0.60039  1.0000
  C   C1383     1.0  0.94845  0.75101  0.36547  1.0000
  H   H2210     1.0  0.96823  0.59422  0.52986  1.0000
  H   H2211     1.0  0.93627  0.56038  0.43616  1.0000
  H   H2212     1.0  0.79196  0.90533  0.63272  1.0000
  C   C1384     1.0  0.99081  0.98708  0.41484  1.0000
  Fe  Fe279     1.0  0.92838  0.98667  0.55990  1.0000
  H   H2213     1.0  0.88116  0.64816  0.61810  1.0000
  H   H2214     1.0  0.90729  0.56764  0.45654  1.0000
  H   H2215     1.0  0.89450  0.91598  0.54331  1.0000
  C   C1385     1.0  0.81211  0.77066  0.57271  1.0000
  H   H2216     1.0  0.79894  0.76321  0.57402  1.0000
  H   H2217     1.0  0.80562  0.91746  0.64715  1.0000
  H   H2218     1.0  0.90429  0.94641  0.55262  1.0000
  H   H2219     1.0  0.93231  0.71485  0.34530  1.0000
  H   H2220     1.0  0.95697  0.70335  0.36675  1.0000
  Fe  Fe280     1.0  0.94566  0.67436  0.65523  1.0000
  H   H2221     1.0  0.93601  0.76130  0.36356  1.0000
  H   H2222     1.0  0.91177  0.93787  0.52009  1.0000
  H   H2223     1.0  0.89480  0.77451  0.64457  1.0000
  C   C1386     1.0  0.85538  0.97496  0.37619  1.0000
  C   C1387     1.0  0.87277  0.63579  0.61734  1.0000
  H   H2224     1.0  0.87999  0.97832  0.50730  1.0000
  C   C1388     1.0  0.90832  0.90929  0.54762  1.0000
  H   H2225     1.0  0.82334  0.76107  0.57931  1.0000
  C   C1389     1.0  0.96025  0.71825  0.36733  1.0000
  H   H2226     1.0  0.98724  0.69823  0.63761  1.0000
  H   H2227     1.0  0.94013  0.90781  0.56569  1.0000
  H   H2228     1.0  0.83351  0.89462  0.64110  1.0000
  H   H2229     1.0  0.90141  0.98054  0.53251  1.0000
  C   C1390     1.0  0.89501  0.97832  0.50390  1.0000
  C   C1391     1.0  0.90714  0.97961  0.51820  1.0000
  H   H2230     1.0  0.83663  0.92860  0.63414  1.0000
  H   H2231     1.0  0.96443  0.64600  0.53129  1.0000
  C   C1392     1.0  0.96725  0.62433  0.56412  1.0000
  H   H2232     1.0  0.91190  0.89698  0.53917  1.0000
  S   S562      1.0  0.93039  0.64916  0.64972  1.0000
  H   H2233     1.0  0.80661  0.92459  0.59450  1.0000
  H   H2234     1.0  0.98319  0.97892  0.38826  1.0000
  H   H2235     1.0  0.92331  0.73907  0.34381  1.0000
  H   H2236     1.0  0.85510  0.68673  0.35774  1.0000
  H   H2237     1.0  0.95066  0.59788  0.54856  1.0000
  H   H2238     1.0  0.95207  0.62365  0.56864  1.0000
  H   H2239     1.0  0.85125  0.67051  0.34080  1.0000
  H   H2240     1.0  0.97526  0.61505  0.57461  1.0000
  C   C1393     1.0  0.76062  0.86699  0.63236  1.0000
  H   H2241     1.0  0.87341  0.77268  0.33628  1.0000
  C   C1394     1.0  0.95304  0.73108  0.65363  1.0000
  C   C1395     1.0  0.99177  0.61894  0.53947  1.0000
  H   H2242     1.0  0.86555  0.65062  0.65073  1.0000
  H   H2243     1.0  0.85889  0.98790  0.38240  1.0000
  Fe  Fe281     1.0  0.90174  0.99831  0.40042  1.0000
  H   H2244     1.0  0.89729  0.96631  0.35124  1.0000
  H   H2245     1.0  0.82226  0.71573  0.34652  1.0000
  C   C1396     1.0  0.75245  0.84968  0.63487  1.0000
  C   C1397     1.0  0.75060  0.88282  0.63977  1.0000
  H   H2246     1.0  0.75668  0.89629  0.63795  1.0000
  H   H2247     1.0  0.94441  0.71910  0.65230  1.0000
  C   C1398     1.0  0.83685  0.71713  0.34016  1.0000
  C   C1399     1.0  0.92841  0.49880  0.49355  1.0000
  Fe  Fe282     1.0  0.94026  0.67851  0.33353  1.0000
  C   C1400     1.0  0.98951  0.68630  0.33394  1.0000
  H   H2248     1.0  0.94688  0.73244  0.33440  1.0000
  H   H2249     1.0  0.92181  0.51668  0.86194  1.0000
  H   H2250     1.0  0.91738  0.62361  0.79444  1.0000
  C   C1401     1.0  0.96589  0.75016  0.67498  1.0000
  C   C1402     1.0  0.89753  0.53354  0.83768  1.0000
  H   H2251     1.0  0.88243  0.51926  0.88270  1.0000
  S   S563      1.0  0.97330  0.58720  0.86793  1.0000
  Fe  Fe283     1.0  0.83029  0.58871  0.82243  1.0000
  S   S564      1.0  0.84089  0.58071  0.79299  1.0000
  S   S565      1.0  0.79889  0.59814  0.82823  1.0000
  Fe  Fe284     1.0  0.86985  0.58203  0.83675  1.0000
  S   S566      1.0  0.88285  0.57430  0.80875  1.0000
  S   S567      1.0  0.88558  0.58006  0.86353  1.0000
  Fe  Fe285     1.0  0.86500  0.59868  0.79562  1.0000
  S   S568      1.0  0.88064  0.62044  0.77558  1.0000
  Fe  Fe286     1.0  0.85801  0.55677  0.80835  1.0000
  S   S569      1.0  0.86823  0.52682  0.80133  1.0000
  S   S570      1.0  0.85353  0.60784  0.82419  1.0000
  S   S571      1.0  0.84582  0.56346  0.83721  1.0000
  H   H2252     1.0  0.89620  0.63979  0.84893  1.0000
  H   H2253     1.0  0.89049  0.61807  0.84073  1.0000
  H   H2254     1.0  0.92789  0.65274  0.80615  1.0000
  C   C1403     1.0  0.98664  0.54283  0.97504  1.0000
  S   S572      1.0  0.88652  0.64303  0.68581  1.0000
  H   H2255     1.0  0.75435  0.62753  0.98536  1.0000
  H   H2256     1.0  0.93560  0.63940  0.82719  1.0000
  H   H2257     1.0  0.91908  0.65961  0.82907  1.0000
  H   H2258     1.0  0.90226  0.60919  0.80953  1.0000
  C   C1404     1.0  0.99720  0.59772  0.99733  1.0000
  C   C1405     1.0  0.88226  0.62610  0.75050  1.0000
  C   C1406     1.0  0.89470  0.63955  0.74264  1.0000
  C   C1407     1.0  0.89635  0.64476  0.72296  1.0000
  C   C1408     1.0  0.88544  0.63668  0.71078  1.0000
  C   C1409     1.0  0.87301  0.62322  0.71863  1.0000
  C   C1410     1.0  0.87146  0.61790  0.73831  1.0000
  H   H2259     1.0  0.90313  0.64602  0.75185  1.0000
  H   H2260     1.0  0.90595  0.65513  0.71723  1.0000
  H   H2261     1.0  0.86446  0.61685  0.70945  1.0000
  H   H2262     1.0  0.86180  0.60758  0.74405  1.0000
  H   H2263     1.0  0.87923  0.63722  0.81187  1.0000
  H   H2264     1.0  0.83038  0.51681  0.81607  1.0000
  C   C1411     1.0  0.78536  0.60691  0.84819  1.0000
  C   C1412     1.0  0.76690  0.61493  0.84588  1.0000
  C   C1413     1.0  0.93549  0.73786  0.68283  1.0000
  C   C1414     1.0  0.76217  0.62035  0.87933  1.0000
  C   C1415     1.0  0.78062  0.61236  0.88166  1.0000
  C   C1416     1.0  0.79217  0.60576  0.86622  1.0000
  C   C1417     1.0  0.76956  0.62506  0.94973  1.0000
  H   H2265     1.0  0.78608  0.61124  0.89549  1.0000
  H   H2266     1.0  0.80629  0.59963  0.86829  1.0000
  H   H2267     1.0  0.92614  0.61063  0.81526  1.0000
  C   C1418     1.0  0.94921  0.58333  0.86704  1.0000
  C   C1419     1.0  0.93725  0.58107  0.88346  1.0000
  C   C1420     1.0  0.91784  0.57974  0.88214  1.0000
  C   C1421     1.0  0.91025  0.58037  0.86444  1.0000
  C   C1422     1.0  0.92231  0.58175  0.84804  1.0000
  C   C1423     1.0  0.94165  0.58354  0.84933  1.0000
  H   H2268     1.0  0.94287  0.58098  0.89715  1.0000
  H   H2269     1.0  0.90862  0.57860  0.89492  1.0000
  H   H2270     1.0  0.91667  0.58180  0.83438  1.0000
  H   H2271     1.0  0.95085  0.58512  0.83658  1.0000
  H   H2272     1.0  0.89505  0.65104  0.79702  1.0000
  H   H2273     1.0  0.88643  0.65847  0.81984  1.0000
  H   H2274     1.0  0.91375  0.62044  0.84754  1.0000
  N   N140      1.0  0.98244  0.52818  0.99053  1.0000
  H   H2275     1.0  0.95311  0.52944  0.98544  1.0000
  C   C1424     1.0  0.75423  0.64094  0.97603  1.0000
  N   N141      1.0  0.89336  0.51947  0.85366  1.0000
  H   H2276     1.0  0.76605  0.66289  0.94512  1.0000
  C   C1425     1.0  0.91366  0.61891  0.80954  1.0000
  Fe  Fe287     1.0  0.99039  0.57838  0.89350  1.0000
  C   C1426     1.0  0.89138  0.64600  0.81203  1.0000
  H   H2277     1.0  0.97816  0.71342  0.67679  1.0000
  H   H2278     1.0  0.75188  0.65357  0.92896  1.0000
  H   H2279     1.0  0.90300  0.52673  0.82468  1.0000
  C   C1427     1.0  0.75299  0.65566  0.94416  1.0000
  H   H2280     1.0  0.96502  0.71835  0.69858  1.0000
  S   S573      1.0  0.97990  0.56956  0.92336  1.0000
  C   C1428     1.0  0.92321  0.64727  0.82077  1.0000
  N   N142      1.0  0.90749  0.63507  0.82067  1.0000
  C   C1429     1.0  0.90173  0.62807  0.84030  1.0000
  N   N143      1.0  0.95455  0.73398  0.67372  1.0000
  C   C1430     1.0  0.75548  0.62181  0.86124  1.0000
  H   H2281     1.0  0.98716  0.60989  0.99605  1.0000
  H   H2282     1.0  0.76154  0.61612  0.83198  1.0000
  Fe  Fe288     1.0  0.90574  0.66238  0.66687  1.0000
  H   H2283     1.0  0.96733  0.75277  0.68996  1.0000
  H   H2284     1.0  0.87296  0.53855  0.86732  1.0000
  C   C1431     1.0  0.88594  0.52936  0.87034  1.0000
  H   H2285     1.0  0.76908  0.62238  0.93458  1.0000
  H   H2286     1.0  0.88455  0.54228  0.83405  1.0000
  H   H2287     1.0  0.95571  0.70424  0.68245  1.0000
  H   H2288     1.0  0.89632  0.53875  0.87459  1.0000
  H   H2289     1.0  0.92798  0.75049  0.67562  1.0000
  H   H2290     1.0  0.76714  0.64800  0.97815  1.0000
  H   H2291     1.0  0.90796  0.54326  0.84109  1.0000
  H   H2292     1.0  0.97806  0.54185  0.96280  1.0000
  S   S574      1.0  0.92156  0.68649  0.67386  1.0000
  H   H2293     1.0  0.92655  0.72592  0.68210  1.0000
  H   H2294     1.0  0.93596  0.74026  0.69799  1.0000
  H   H2295     1.0  0.76997  0.61112  0.95814  1.0000
  H   H2296     1.0  0.78302  0.63146  0.95110  1.0000
  C   C1432     1.0  0.83876  0.50405  0.81285  1.0000
  H   H2297     1.0  0.98372  0.55730  0.97973  1.0000
  C   C1433     1.0  0.96376  0.71681  0.68333  1.0000
  C   C1434     1.0  0.99482  0.50377  0.89933  1.0000
  N   N144      1.0  0.75316  0.63750  0.95599  1.0000
  H   H2298     1.0  0.99156  0.51830  0.89430  1.0000
  H   H2299     1.0  0.86589  0.51572  0.84477  1.0000
  C   C1435     1.0  0.98655  0.50929  0.98356  1.0000
  S   S575      1.0  0.97472  0.66928  0.66697  1.0000
  C   C1436     1.0  0.85739  0.50510  0.80545  1.0000
  C   C1437     1.0  0.87914  0.50730  0.84843  1.0000
  H   H2300     1.0  0.95932  0.76332  0.66780  1.0000
  H   H2301     1.0  0.98034  0.74766  0.66817  1.0000
  S   S576      1.0  0.99534  0.51606  0.93471  1.0000
  C   C1438     1.0  0.91079  0.50784  0.85805  1.0000
  H   H2302     1.0  0.97756  0.50727  0.97190  1.0000
  C   C1439     1.0  0.96234  0.53065  0.99712  1.0000
  H   H2303     1.0  0.88425  0.49981  0.83573  1.0000
  H   H2304     1.0  0.91672  0.50027  0.84567  1.0000
  C   C1440     1.0  0.99643  0.49877  0.91863  1.0000
