data_image0
_chemical_formula_structural       HFeSCHSFeSFeS2C6HC2H4SCFeH2CH3CHC2H2CHCH5CSCNSCH2CH2CH3CHC2H2CNH2FeCH8C2HNCH6SH2FeCHNHC2H2SCHSHFeHFeSCSH2C4HCH3CNC2HSCHFeH2CH2C3H2CH2CH2CHSH3CSCSH2SHFeH4CH2NH2C3HNC2H7SH5CSCH3FeSH2NH2CFeSFeS3C2SC3HCH2SH3S2H4CNHCHCHCH3C2H7NH2NH2CHCHC4FeCFeS2NC2SCH5NC2HCHCS2HSH2S2H5C2H4C2H2CHC4H3FeHC2FeHCHCHSH3CFeH3C2H2FeCHSFeS2FeS2FeSFeS3HCH2C6H4C2HCHNH4CHCHC6H2CH2C3H6CH3C3H4CHSC2HFeNHCH3CH3CH5CH2SHFeS2FeS2FeSFeS3HFeC3HC2HNH3C5H2NHC4HC6H9CH4CH4CH5C2H4SH2CHNC4SHCHCH5CH2NC2HFeSHCFeSHFeSCFe2SHSFeS2C6H4S2H2FeCHC3H2C2HC3H2CH4CHSCHCSHNH3C2HCHCSHC2H4SH5CHCHC2H2CH3NCHCH5C2H3C2H3SH2CH4CHSFeH2CHSHFeS2FeS2Fe2S3FeS2CFeC6H4CH3C4HC5H6C2HFeHCHC2H4FeCH3SH2CH3CHNCNC2SHCH4CHCH2CH2CHSFeS2FeS2FeSFeS3C6H4C7H3C3H7CS2H3CHFeH3CHNH3NHC2H5NH4CHC2H2C2HCH2CH6SFeS2FeS2FeSFeS3C2H2NC6H4C6H5CH2CH4C2H5CNHSH3C2SH3C2H2CH3CNH4C2HSH2CH2CFeHCH4SNSHFeS2H3FeSHFeS2FeSFeSHFeS2H2C6H4C6HCH2CHSH3CHFeHNH2CNCHSCHCH5CFeHC2NH4C3FeH3CH2CH3S2H2SCH5CHCHSH2CHCFeHSFeH2CHS2FeSFeS2FeSFeS3HS2H5C6H4C6HCH2SFe2CHNCH2SHCFeNCH2CH3SH3SHCSH4C2H2CHCH2CH2CH3CH3NCH4C2FeCSFeSCFeSHFeS2FeS3H4Fe2S2C6H4CHFeH3SC2SHC4SCH2C3H4CH5CHC2HSHCH4CSCNCHCHCH5SNH2SH2NHCSFeSCHSH7FeS2FeS2FeSCFeS2CSHC6H4FeC3SC6HC3H6NCH5SH3CHC2H4CNCH2CH2SH2CHCH4FeHSH4CSNC2S2FeS2FeS2FeSFeS3C2H2C3H2C2H4C6H9CHNFeH5C2NC5H2CH7CH3CHSHCHCH3CHCHCH3CNH2CSFeS2FeS2FeSFeS3C3H2CHCH2C6H4C6H6C2HCH2CFeH2CH3NHSC2H6CH3CNH7CHCH4CHCSH2FeHFeSFeS2FeS2FeS2CHNCH2FeS2CH3C6H5CHC6H4CFeH2CH3CH2CHSFeNSCH2CSHSH2NSH6CH9CH2CHCHS3NFeSFeHSFeS3HSHCSFeS2FeCFeHS2H2C2HFeSC6H4C6H2CH2CHFeNC4H12CH4CH2CHFeNH4SHSCHCHCHSH2CFeSCHSHFeSFeSCSHCH3C4SC2HCH2CFeHCFeCH6CSH4NC3HCH7C3HCH6CH2NHC3H2NCH6C2HCH3CH2C2HFeSCHSHFeSFeS2FeH2CH2C6H4CHCH2CHC3HNC2H3CNC2SCH3CH3NHCHCHSH5CH2SHCSHFeHC2HC2HSH4FeS2CHC3H2C2SHCSCHC2H6NH3CSH4FeH3CH3C2SHNH7NHCH2SCFeNH2CH2C2H2CH2CH2FeSHFeCS2CHCHCSH3CFeH4CNHCSH3CH4CHCSCH4C2NH2CH2SH3CHCHSH4NCFeHC2HFeHCSC2SFeCFeS2FeS2FeSFeS3H3CNHC6H2CHCH4C5SH4C6H4CHSCH9CSHSH3NC3H2SH2FeCHC2H4CFeSHFeS2FeS2FeSFeS3HCH2C6H4CH4C4H2C7H2SH3NH2CNH4CH3CHCHNC2H5C2HCHCH2CNH2CHCH6CH3CSHCH3C2H3CH4CH
_chemical_formula_sum              "H1152 Fe144 S288 C720 N72"
_cell_length_a       53.7789
_cell_length_b       53.8977
_cell_length_c       54.178
_cell_angle_alpha    90.0033
_cell_angle_beta     90.061
_cell_angle_gamma    89.2278

_space_group_name_H-M_alt    "P 1"
_space_group_IT_number       1

loop_
  _space_group_symop_operation_xyz
  'x, y, z'

loop_
  _atom_site_type_symbol
  _atom_site_label
  _atom_site_symmetry_multiplicity
  _atom_site_fract_x
  _atom_site_fract_y
  _atom_site_fract_z
  _atom_site_occupancy
  H   H1        1.0  0.21302  0.28075  0.22560  1.0000
  Fe  Fe1       1.0  0.12889  0.29875  0.26942  1.0000
  S   S1        1.0  0.11448  0.26173  0.28078  1.0000
  C   C1        1.0  0.16709  0.31019  0.19210  1.0000
  H   H2        1.0  0.21138  0.30881  0.01407  1.0000
  S   S2        1.0  0.11893  0.27982  0.33794  1.0000
  Fe  Fe2       1.0  0.14430  0.26234  0.30960  1.0000
  S   S3        1.0  0.16435  0.22535  0.31266  1.0000
  Fe  Fe3       1.0  0.09041  0.28239  0.30759  1.0000
  S   S4        1.0  0.05103  0.26976  0.31493  1.0000
  S   S5        1.0  0.16036  0.29829  0.29666  1.0000
  C   C2        1.0  0.17682  0.32614  0.23266  1.0000
  C   C3        1.0  0.23038  0.31475  0.01178  1.0000
  C   C4        1.0  0.02385  0.30673  0.29115  1.0000
  C   C5        1.0  0.19687  0.22359  0.30920  1.0000
  C   C6        1.0  0.20755  0.20201  0.29909  1.0000
  C   C7        1.0  0.23348  0.19886  0.29824  1.0000
  H   H3        1.0  0.04760  0.28941  0.18995  1.0000
  C   C8        1.0  0.23831  0.23869  0.31804  1.0000
  C   C9        1.0  0.21233  0.24224  0.31814  1.0000
  H   H4        1.0  0.19563  0.18759  0.29210  1.0000
  H   H5        1.0  0.07009  0.31491  0.37147  1.0000
  H   H6        1.0  0.04328  0.24178  0.23978  1.0000
  H   H7        1.0  0.20423  0.25886  0.32617  1.0000
  S   S6        1.0  0.23413  0.30940  0.06229  1.0000
  C   C10       1.0  0.02342  0.28500  0.30524  1.0000
  Fe  Fe4       1.0  0.25150  0.33667  0.15095  1.0000
  H   H8        1.0  0.04144  0.31488  0.28636  1.0000
  H   H9        1.0  0.24766  0.13374  0.29790  1.0000
  C   C11       1.0  0.25704  0.15638  0.34130  1.0000
  H   H10       1.0  0.06518  0.31267  0.33883  1.0000
  H   H11       1.0  0.21890  0.24815  0.22145  1.0000
  H   H12       1.0  0.07978  0.29853  0.24985  1.0000
  C   C12       1.0  0.22599  0.26519  0.23049  1.0000
  H   H13       1.0  0.24818  0.30960  0.22995  1.0000
  C   C13       1.0  0.22769  0.12678  0.35690  1.0000
  C   C14       1.0  0.06599  0.30015  0.23463  1.0000
  H   H14       1.0  0.22476  0.26240  0.25084  1.0000
  H   H15       1.0  0.04960  0.31073  0.24171  1.0000
  C   C15       1.0  0.04020  0.27835  0.20561  1.0000
  H   H16       1.0  0.19469  0.31648  0.16377  1.0000
  C   C16       1.0  0.16156  0.34099  0.47351  1.0000
  H   H17       1.0  0.03122  0.26977  0.25347  1.0000
  H   H18       1.0  0.07672  0.24380  0.20823  1.0000
  H   H19       1.0  0.21914  0.14510  0.31131  1.0000
  H   H20       1.0  0.07486  0.31144  0.21991  1.0000
  H   H21       1.0  0.06170  0.25870  0.26145  1.0000
  C   C17       1.0  0.18980  0.31912  0.18297  1.0000
  S   S7        1.0  0.13171  0.30306  0.22800  1.0000
  C   C18       1.0  0.24895  0.21684  0.30837  1.0000
  N   N1        1.0  0.05894  0.27541  0.22542  1.0000
  S   S8        1.0  0.10224  0.31969  0.29405  1.0000
  C   C19       1.0  0.23407  0.13066  0.31301  1.0000
  H   H22       1.0  0.21930  0.10813  0.35466  1.0000
  H   H23       1.0  0.09004  0.27331  0.20046  1.0000
  C   C20       1.0  0.11398  0.33587  0.41407  1.0000
  H   H24       1.0  0.10631  0.32022  0.42382  1.0000
  H   H25       1.0  0.02314  0.28806  0.21250  1.0000
  C   C21       1.0  0.24610  0.31594  0.03250  1.0000
  H   H26       1.0  0.22559  0.11225  0.30956  1.0000
  H   H27       1.0  0.25446  0.10062  0.22373  1.0000
  H   H28       1.0  0.25900  0.09359  0.33484  1.0000
  C   C22       1.0  0.08123  0.26248  0.21555  1.0000
  H   H29       1.0  0.15454  0.30064  0.17985  1.0000
  C   C23       1.0  0.04833  0.26077  0.24586  1.0000
  C   C24       1.0  0.20577  0.33206  0.19862  1.0000
  H   H30       1.0  0.18465  0.30140  0.49363  1.0000
  H   H31       1.0  0.02302  0.32934  0.34150  1.0000
  C   C25       1.0  0.16053  0.31373  0.21697  1.0000
  N   N2        1.0  0.24627  0.13158  0.33745  1.0000
  H   H32       1.0  0.25259  0.07054  0.18916  1.0000
  H   H33       1.0  0.18083  0.33856  0.46641  1.0000
  Fe  Fe5       1.0  0.13248  0.31601  0.32275  1.0000
  C   C26       1.0  0.25243  0.27404  0.19565  1.0000
  H   H34       1.0  0.12217  0.31466  0.38123  1.0000
  H   H35       1.0  0.24137  0.18207  0.29068  1.0000
  H   H36       1.0  0.25479  0.09568  0.16748  1.0000
  H   H37       1.0  0.21226  0.14080  0.35635  1.0000
  H   H38       1.0  0.09573  0.25996  0.23005  1.0000
  H   H39       1.0  0.03445  0.26004  0.19820  1.0000
  H   H40       1.0  0.23973  0.28941  0.18974  1.0000
  H   H41       1.0  0.24245  0.17125  0.34130  1.0000
  C   C27       1.0  0.12285  0.33270  0.38988  1.0000
  C   C28       1.0  0.02922  0.34138  0.35702  1.0000
  H   H42       1.0  0.23620  0.12757  0.37562  1.0000
  N   N3        1.0  0.25173  0.27049  0.22270  1.0000
  C   C29       1.0  0.07111  0.32536  0.35378  1.0000
  H   H43       1.0  0.17184  0.32925  0.25175  1.0000
  H   H44       1.0  0.02613  0.33087  0.37441  1.0000
  H   H45       1.0  0.14883  0.33102  0.46080  1.0000
  H   H46       1.0  0.09094  0.32968  0.35033  1.0000
  H   H47       1.0  0.24675  0.25700  0.18564  1.0000
  H   H48       1.0  0.25015  0.25269  0.32596  1.0000
  S   S9        1.0  0.25503  0.29904  0.13348  1.0000
  H   H49       1.0  0.15253  0.29437  0.48812  1.0000
  H   H50       1.0  0.11973  0.32627  0.49590  1.0000
  Fe  Fe6       1.0  0.25542  0.31971  0.09704  1.0000
  C   C30       1.0  0.19923  0.33543  0.22346  1.0000
  H   H51       1.0  0.25711  0.12602  0.20209  1.0000
  N   N4        1.0  0.15920  0.33195  0.49917  1.0000
  H   H52       1.0  0.25975  0.29150  0.25545  1.0000
  C   C31       1.0  0.26019  0.29337  0.23500  1.0000
  C   C32       1.0  0.16532  0.30516  0.50007  1.0000
  H   H53       1.0  0.24297  0.25295  0.69941  1.0000
  H   H54       1.0  0.21987  0.25377  0.81864  1.0000
  S   S10       1.0  0.12986  0.27033  0.73015  1.0000
  C   C33       1.0  0.07301  0.33227  0.62505  1.0000
  H   H55       1.0  0.08645  0.28750  0.81422  1.0000
  S   S11       1.0  0.12385  0.29670  0.67601  1.0000
  H   H56       1.0  0.18552  0.18710  0.72611  1.0000
  Fe  Fe7       1.0  0.09830  0.28474  0.70655  1.0000
  H   H57       1.0  0.20404  0.28422  0.74727  1.0000
  Fe  Fe8       1.0  0.15531  0.28637  0.70183  1.0000
  S   S12       1.0  0.19347  0.27119  0.69193  1.0000
  C   C34       1.0  0.23519  0.25305  0.77118  1.0000
  S   S13       1.0  0.15706  0.32409  0.71944  1.0000
  H   H58       1.0  0.14543  0.33791  0.64309  1.0000
  H   H59       1.0  0.19105  0.32489  0.85545  1.0000
  C   C35       1.0  0.20464  0.24300  0.70442  1.0000
  C   C36       1.0  0.18850  0.22459  0.71249  1.0000
  C   C37       1.0  0.19811  0.20160  0.72064  1.0000
  C   C38       1.0  0.22388  0.19710  0.72129  1.0000
  H   H60       1.0  0.25981  0.21295  0.71520  1.0000
  C   C39       1.0  0.23040  0.23867  0.70546  1.0000
  H   H61       1.0  0.16860  0.22770  0.71161  1.0000
  H   H62       1.0  0.09239  0.27708  0.77052  1.0000
  H   H63       1.0  0.04443  0.29157  0.62761  1.0000
  C   C40       1.0  0.19652  0.27514  0.76410  1.0000
  N   N5        1.0  0.21632  0.26975  0.78238  1.0000
  C   C41       1.0  0.02994  0.29928  0.71639  1.0000
  C   C42       1.0  0.03306  0.27540  0.70670  1.0000
  H   H64       1.0  0.06605  0.26152  0.81701  1.0000
  S   S14       1.0  0.23524  0.16745  0.72990  1.0000
  C   C43       1.0  0.20545  0.25768  0.80429  1.0000
  H   H65       1.0  0.02897  0.25860  0.78964  1.0000
  Fe  Fe9       1.0  0.13001  0.30854  0.74655  1.0000
  H   H66       1.0  0.01233  0.33614  0.64246  1.0000
  H   H67       1.0  0.15520  0.34102  0.59848  1.0000
  C   C44       1.0  0.06672  0.28161  0.81234  1.0000
  H   H68       1.0  0.18193  0.28771  0.77185  1.0000
  H   H69       1.0  0.19665  0.23977  0.79939  1.0000
  C   C45       1.0  0.16571  0.31728  0.82549  1.0000
  C   C46       1.0  0.18475  0.33043  0.83726  1.0000
  C   C47       1.0  0.22816  0.29314  0.79003  1.0000
  H   H70       1.0  0.25378  0.21947  0.82636  1.0000
  H   H71       1.0  0.04576  0.31111  0.71852  1.0000
  C   C48       1.0  0.15719  0.32446  0.80204  1.0000
  H   H72       1.0  0.21435  0.30624  0.79835  1.0000
  H   H73       1.0  0.15747  0.30159  0.83470  1.0000
  C   C49       1.0  0.13340  0.33600  0.50779  1.0000
  H   H74       1.0  0.06633  0.27586  0.74996  1.0000
  H   H75       1.0  0.06522  0.29242  0.65352  1.0000
  C   C50       1.0  0.24000  0.21595  0.71424  1.0000
  H   H76       1.0  0.24333  0.26134  0.75425  1.0000
  S   S15       1.0  0.06291  0.26348  0.69881  1.0000
  H   H77       1.0  0.24291  0.28970  0.80418  1.0000
  H   H78       1.0  0.05169  0.31758  0.76292  1.0000
  H   H79       1.0  0.16369  0.29782  0.51921  1.0000
  C   C51       1.0  0.07242  0.27215  0.76922  1.0000
  S   S16       1.0  0.13278  0.30796  0.78815  1.0000
  C   C52       1.0  0.04829  0.30125  0.64530  1.0000
  S   S17       1.0  0.23541  0.31839  0.89478  1.0000
  H   H80       1.0  0.22703  0.23494  0.76577  1.0000
  H   H81       1.0  0.13089  0.32974  0.52720  1.0000
  S   S18       1.0  0.09662  0.32170  0.72515  1.0000
  H   H82       1.0  0.02482  0.33062  0.61217  1.0000
  Fe  Fe10      1.0  0.12371  0.33318  0.69578  1.0000
  H   H83       1.0  0.18719  0.25788  0.75797  1.0000
  H   H84       1.0  0.07107  0.25181  0.77228  1.0000
  H   H85       1.0  0.19095  0.26973  0.81301  1.0000
  H   H86       1.0  0.23683  0.30268  0.77407  1.0000
  C   C53       1.0  0.05896  0.31320  0.78166  1.0000
  H   H87       1.0  0.22617  0.32220  0.97268  1.0000
  H   H88       1.0  0.24635  0.20942  0.66070  1.0000
  N   N6        1.0  0.05724  0.28640  0.78714  1.0000
  H   H89       1.0  0.24314  0.18860  0.63516  1.0000
  H   H90       1.0  0.05565  0.29195  0.82642  1.0000
  C   C54       1.0  0.23879  0.32213  0.98826  1.0000
  C   C55       1.0  0.25615  0.20164  0.64424  1.0000
  C   C56       1.0  0.03101  0.27865  0.78532  1.0000
  H   H91       1.0  0.25077  0.24911  0.78418  1.0000
  N   N7        1.0  0.05162  0.32817  0.64161  1.0000
  C   C57       1.0  0.01202  0.26059  0.70334  1.0000
  C   C58       1.0  0.02886  0.33907  0.63047  1.0000
  H   H92       1.0  0.07860  0.31954  0.78244  1.0000
  H   H93       1.0  0.04806  0.32456  0.79507  1.0000
  H   H94       1.0  0.25946  0.21728  0.63129  1.0000
  H   H95       1.0  0.09061  0.32488  0.63325  1.0000
  H   H96       1.0  0.01884  0.28938  0.79818  1.0000
  H   H97       1.0  0.03253  0.29745  0.65803  1.0000
  H   H98       1.0  0.02351  0.28155  0.76635  1.0000
  S   S19       1.0  0.25834  0.26018  0.85972  1.0000
  H   H99       1.0  0.07041  0.32312  0.60684  1.0000
  H   H100      1.0  0.04039  0.33793  0.67851  1.0000
  H   H101      1.0  0.01417  0.24213  0.69569  1.0000
  H   H102      1.0  0.17484  0.33954  0.53494  1.0000
  H   H103      1.0  0.07309  0.33194  0.67480  1.0000
  C   C59       1.0  0.05635  0.34013  0.66568  1.0000
  S   S20       1.0  0.23415  0.34428  0.18824  1.0000
  C   C60       1.0  0.13221  0.35293  0.37687  1.0000
  H   H104      1.0  0.14098  0.39181  0.37876  1.0000
  H   H105      1.0  0.13686  0.61376  0.45737  1.0000
  H   H106      1.0  0.13332  0.55955  0.41551  1.0000
  Fe  Fe11      1.0  0.13211  0.66301  0.47978  1.0000
  S   S21       1.0  0.09327  0.64862  0.48183  1.0000
  H   H107      1.0  0.15658  0.36106  0.47207  1.0000
  H   H108      1.0  0.07894  0.36699  0.32828  1.0000
  N   N8        1.0  0.05562  0.34817  0.35430  1.0000
  H   H109      1.0  0.10657  0.56634  0.45197  1.0000
  H   H110      1.0  0.24436  0.36610  0.05158  1.0000
  C   C61       1.0  0.12582  0.57726  0.40768  1.0000
  Fe  Fe12      1.0  0.12402  0.44621  0.49879  1.0000
  S   S22       1.0  0.14778  0.63335  0.50510  1.0000
  Fe  Fe13      1.0  0.10537  0.39589  0.48048  1.0000
  S   S23       1.0  0.10229  0.36213  0.45556  1.0000
  S   S24       1.0  0.09003  0.43485  0.47752  1.0000
  S   S25       1.0  0.14631  0.48020  0.48902  1.0000
  C   C62       1.0  0.13362  0.37610  0.38867  1.0000
  C   C63       1.0  0.12499  0.37922  0.41303  1.0000
  S   S26       1.0  0.24763  0.35680  0.11473  1.0000
  C   C64       1.0  0.25907  0.38019  0.05438  1.0000
  C   C65       1.0  0.14141  0.60056  0.44225  1.0000
  C   C66       1.0  0.11482  0.35915  0.42564  1.0000
  H   H111      1.0  0.12580  0.39722  0.42185  1.0000
  C   C67       1.0  0.10806  0.55482  0.50557  1.0000
  H   H112      1.0  0.09475  0.59675  0.45896  1.0000
  H   H113      1.0  0.10941  0.57264  0.39611  1.0000
  S   S27       1.0  0.14096  0.40779  0.49824  1.0000
  H   H114      1.0  0.08285  0.36993  0.37325  1.0000
  H   H115      1.0  0.09257  0.61489  0.40478  1.0000
  H   H116      1.0  0.21611  0.63342  0.15782  1.0000
  S   S28       1.0  0.14676  0.66632  0.44066  1.0000
  S   S29       1.0  0.14052  0.35041  0.34542  1.0000
  H   H117      1.0  0.14958  0.58350  0.45070  1.0000
  H   H118      1.0  0.08260  0.58004  0.43310  1.0000
  H   H119      1.0  0.25749  0.38710  0.07364  1.0000
  H   H120      1.0  0.15607  0.60948  0.43089  1.0000
  C   C68       1.0  0.14426  0.53115  0.49189  1.0000
  N   N9        1.0  0.11908  0.59503  0.42743  1.0000
  H   H121      1.0  0.22952  0.42026  0.05847  1.0000
  C   C69       1.0  0.23214  0.41292  0.03941  1.0000
  H   H122      1.0  0.24529  0.37666  0.00718  1.0000
  C   C70       1.0  0.10706  0.50965  0.50419  1.0000
  H   H123      1.0  0.14032  0.58497  0.39530  1.0000
  C   C71       1.0  0.09992  0.58406  0.44350  1.0000
  H   H124      1.0  0.12352  0.62738  0.40461  1.0000
  H   H125      1.0  0.05150  0.38091  0.37681  1.0000
  H   H126      1.0  0.19437  0.65483  0.17177  1.0000
  C   C72       1.0  0.10928  0.61825  0.41633  1.0000
  C   C73       1.0  0.21372  0.64727  0.17293  1.0000
  H   H127      1.0  0.10395  0.63202  0.43078  1.0000
  H   H128      1.0  0.21690  0.39955  0.03585  1.0000
  H   H129      1.0  0.14254  0.57119  0.49428  1.0000
  H   H130      1.0  0.23250  0.66720  0.13115  1.0000
  H   H131      1.0  0.21556  0.63720  0.19080  1.0000
  H   H132      1.0  0.16322  0.53056  0.48522  1.0000
  H   H133      1.0  0.21145  0.34554  0.23563  1.0000
  N   N10       1.0  0.25680  0.40083  0.03657  1.0000
  H   H134      1.0  0.22971  0.42868  0.02632  1.0000
  H   H135      1.0  0.01687  0.35810  0.35723  1.0000
  N   N11       1.0  0.23214  0.66725  0.17093  1.0000
  H   H136      1.0  0.05344  0.35065  0.31476  1.0000
  H   H137      1.0  0.06213  0.35371  0.39319  1.0000
  C   C74       1.0  0.06326  0.36385  0.37531  1.0000
  H   H138      1.0  0.04784  0.37944  0.33071  1.0000
  C   C75       1.0  0.13259  0.55413  0.49699  1.0000
  H   H139      1.0  0.03690  0.39331  0.50235  1.0000
  C   C76       1.0  0.05905  0.36195  0.33098  1.0000
  C   C77       1.0  0.13151  0.50884  0.49550  1.0000
  C   C78       1.0  0.25755  0.65651  0.17262  1.0000
  C   C79       1.0  0.25939  0.39111  0.01118  1.0000
  Fe  Fe14      1.0  0.13911  0.66043  0.53567  1.0000
  C   C80       1.0  0.03519  0.64736  0.51657  1.0000
  Fe  Fe15      1.0  0.12133  0.40212  0.53441  1.0000
  S   S30       1.0  0.14080  0.37565  0.56095  1.0000
  S   S31       1.0  0.10754  0.44168  0.53659  1.0000
  N   N12       1.0  0.23494  0.65655  0.83328  1.0000
  C   C81       1.0  0.11188  0.38997  0.62911  1.0000
  C   C82       1.0  0.11713  0.39158  0.60368  1.0000
  S   S32       1.0  0.21712  0.36945  0.84127  1.0000
  C   C83       1.0  0.12196  0.37056  0.64344  1.0000
  H   H140      1.0  0.12826  0.35599  0.50734  1.0000
  H   H141      1.0  0.10935  0.40663  0.59280  1.0000
  H   H142      1.0  0.11198  0.59058  0.59781  1.0000
  H   H143      1.0  0.15124  0.54189  0.56729  1.0000
  H   H144      1.0  0.05417  0.64137  0.51923  1.0000
  N   N13       1.0  0.14320  0.58039  0.57498  1.0000
  C   C84       1.0  0.22160  0.63780  0.81863  1.0000
  C   C85       1.0  0.19476  0.35139  0.82600  1.0000
  H   H145      1.0  0.10721  0.59533  0.56533  1.0000
  C   C86       1.0  0.14291  0.35461  0.60691  1.0000
  H   H146      1.0  0.09995  0.40381  0.63767  1.0000
  C   C87       1.0  0.16126  0.58214  0.59547  1.0000
  S   S33       1.0  0.09239  0.58292  0.51236  1.0000
  S   S34       1.0  0.11437  0.36859  0.67510  1.0000
  H   H147      1.0  0.20295  0.66770  0.85468  1.0000
  S   S35       1.0  0.03590  0.44249  0.52414  1.0000
  H   H148      1.0  0.17222  0.36590  0.51521  1.0000
  H   H149      1.0  0.23350  0.63512  0.86682  1.0000
  S   S36       1.0  0.10076  0.64624  0.54145  1.0000
  S   S37       1.0  0.16007  0.65899  0.57181  1.0000
  H   H150      1.0  0.07643  0.53294  0.51582  1.0000
  H   H151      1.0  0.16179  0.60826  0.55379  1.0000
  H   H152      1.0  0.12659  0.61611  0.58248  1.0000
  H   H153      1.0  0.12647  0.54719  0.58905  1.0000
  H   H154      1.0  0.17814  0.57053  0.59187  1.0000
  C   C88       1.0  0.13526  0.55439  0.57195  1.0000
  C   C89       1.0  0.24716  0.64441  0.85464  1.0000
  H   H155      1.0  0.24128  0.41010  0.81848  1.0000
  H   H156      1.0  0.03072  0.35943  0.62763  1.0000
  H   H157      1.0  0.16384  0.66859  0.62393  1.0000
  H   H158      1.0  0.21218  0.64641  0.80233  1.0000
  C   C90       1.0  0.18635  0.35850  0.80247  1.0000
  C   C91       1.0  0.15497  0.58892  0.55195  1.0000
  H   H159      1.0  0.15305  0.57591  0.61322  1.0000
  H   H160      1.0  0.19392  0.37476  0.79371  1.0000
  C   C92       1.0  0.13285  0.37399  0.59255  1.0000
  H   H161      1.0  0.25692  0.43778  0.80904  1.0000
  C   C93       1.0  0.12127  0.59629  0.58043  1.0000
  C   C94       1.0  0.01242  0.42106  0.51792  1.0000
  C   C95       1.0  0.09540  0.53255  0.50915  1.0000
  C   C96       1.0  0.13739  0.35280  0.63221  1.0000
  H   H162      1.0  0.14154  0.58870  0.53638  1.0000
  H   H163      1.0  0.12140  0.55266  0.55676  1.0000
  H   H164      1.0  0.17113  0.57692  0.54672  1.0000
  Fe  Fe16      1.0  0.24278  0.34861  0.86725  1.0000
  H   H165      1.0  0.20708  0.62854  0.82983  1.0000
  C   C97       1.0  0.25991  0.41832  0.81533  1.0000
  C   C98       1.0  0.25398  0.66828  0.81765  1.0000
  Fe  Fe17      1.0  0.08898  0.67461  0.51376  1.0000
  H   H166      1.0  0.16748  0.60167  0.59806  1.0000
  C   C99       1.0  0.02908  0.67263  0.51547  1.0000
  H   H167      1.0  0.16134  0.35058  0.77231  1.0000
  C   C100      1.0  0.01670  0.62953  0.51447  1.0000
  H   H168      1.0  0.25696  0.42113  0.76600  1.0000
  S   S38       1.0  0.08658  0.38848  0.51670  1.0000
  H   H169      1.0  0.24227  0.39329  0.77649  1.0000
  H   H170      1.0  0.23460  0.62317  0.81162  1.0000
  H   H171      1.0  0.05983  0.36035  0.66355  1.0000
  C   C101      1.0  0.16790  0.34481  0.79032  1.0000
  Fe  Fe18      1.0  0.07438  0.42828  0.51528  1.0000
  H   H172      1.0  0.07578  0.35240  0.62152  1.0000
  H   H173      1.0  0.25735  0.65805  0.86610  1.0000
  H   H174      1.0  0.19611  0.34305  0.50951  1.0000
  C   C102      1.0  0.17644  0.34562  0.51535  1.0000
  C   C103      1.0  0.21707  0.67569  0.84209  1.0000
  H   H175      1.0  0.02167  0.61003  0.51559  1.0000
  H   H176      1.0  0.25702  0.40598  0.99711  1.0000
  Fe  Fe19      1.0  0.10837  0.62132  0.50930  1.0000
  C   C104      1.0  0.01805  0.39791  0.50748  1.0000
  H   H177      1.0  0.09706  0.49258  0.50698  1.0000
  S   S39       1.0  0.21364  0.74752  0.15825  1.0000
  Fe  Fe20      1.0  0.17178  0.76346  0.29369  1.0000
  S   S40       1.0  0.14593  0.78894  0.27319  1.0000
  S   S41       1.0  0.20680  0.74864  0.27523  1.0000
  Fe  Fe21      1.0  0.14696  0.77533  0.34357  1.0000
  S   S42       1.0  0.12085  0.80348  0.32636  1.0000
  S   S43       1.0  0.14150  0.77012  0.38476  1.0000
  Fe  Fe22      1.0  0.11547  0.77419  0.29752  1.0000
  S   S44       1.0  0.07799  0.75865  0.28606  1.0000
  Fe  Fe23      1.0  0.15396  0.81541  0.30413  1.0000
  S   S45       1.0  0.16722  0.85311  0.29192  1.0000
  S   S46       1.0  0.14087  0.74569  0.31529  1.0000
  S   S47       1.0  0.18048  0.79028  0.32409  1.0000
  H   H178      1.0  0.06101  0.80783  0.30299  1.0000
  C   C105      1.0  0.13630  0.71662  0.43717  1.0000
  H   H179      1.0  0.19491  0.80703  0.19495  1.0000
  H   H180      1.0  0.02584  0.74303  0.37385  1.0000
  C   C106      1.0  0.19606  0.86290  0.30379  1.0000
  C   C107      1.0  0.21064  0.87899  0.28974  1.0000
  C   C108      1.0  0.23432  0.88598  0.29801  1.0000
  C   C109      1.0  0.24318  0.87783  0.32095  1.0000
  C   C110      1.0  0.22829  0.86231  0.33536  1.0000
  C   C111      1.0  0.20492  0.85462  0.32668  1.0000
  H   H181      1.0  0.20366  0.88603  0.27234  1.0000
  H   H182      1.0  0.23269  0.86156  0.21434  1.0000
  H   H183      1.0  0.23486  0.85612  0.35324  1.0000
  H   H184      1.0  0.19358  0.84270  0.33796  1.0000
  C   C112      1.0  0.14247  0.74090  0.39961  1.0000
  C   C113      1.0  0.13548  0.73943  0.42453  1.0000
  H   H185      1.0  0.24839  0.74858  0.24228  1.0000
  C   C114      1.0  0.04496  0.79621  0.30045  1.0000
  H   H186      1.0  0.07631  0.77229  0.33838  1.0000
  N   N14       1.0  0.20767  0.83194  0.22322  1.0000
  H   H187      1.0  0.12967  0.75608  0.43422  1.0000
  H   H188      1.0  0.18733  0.86238  0.20678  1.0000
  H   H189      1.0  0.01848  0.82511  0.31011  1.0000
  H   H190      1.0  0.18225  0.85850  0.23933  1.0000
  C   C115      1.0  0.04817  0.77172  0.29235  1.0000
  H   H191      1.0  0.06018  0.72107  0.39616  1.0000
  C   C116      1.0  0.03978  0.75666  0.36742  1.0000
  H   H192      1.0  0.02934  0.73801  0.28271  1.0000
  C   C117      1.0  0.21199  0.74938  0.19076  1.0000
  C   C118      1.0  0.18865  0.74978  0.20231  1.0000
  C   C119      1.0  0.18679  0.74985  0.22821  1.0000
  C   C120      1.0  0.20831  0.74916  0.24272  1.0000
  C   C121      1.0  0.23166  0.74908  0.23118  1.0000
  C   C122      1.0  0.23350  0.74961  0.20531  1.0000
  H   H193      1.0  0.17191  0.74967  0.19120  1.0000
  H   H194      1.0  0.16870  0.74982  0.23693  1.0000
  C   C123      1.0  0.06356  0.72471  0.34646  1.0000
  H   H195      1.0  0.05709  0.73166  0.32815  1.0000
  H   H196      1.0  0.10118  0.75549  0.35309  1.0000
  C   C124      1.0  0.20409  0.81368  0.24318  1.0000
  C   C125      1.0  0.22983  0.84698  0.22860  1.0000
  C   C126      1.0  0.07323  0.73506  0.38876  1.0000
  H   H197      1.0  0.22780  0.80608  0.20015  1.0000
  H   H198      1.0  0.20072  0.82296  0.26125  1.0000
  H   H199      1.0  0.16834  0.83752  0.21794  1.0000
  H   H200      1.0  0.22050  0.80110  0.24512  1.0000
  H   H201      1.0  0.23485  0.81055  0.31910  1.0000
  H   H202      1.0  0.23049  0.79577  0.28995  1.0000
  C   C127      1.0  0.02081  0.80597  0.30446  1.0000
  H   H203      1.0  0.24545  0.89814  0.28686  1.0000
  H   H204      1.0  0.07501  0.75006  0.40279  1.0000
  H   H205      1.0  0.21398  0.83187  0.18399  1.0000
  C   C128      1.0  0.21123  0.81870  0.19954  1.0000
  C   C129      1.0  0.24188  0.80975  0.29978  1.0000
  C   C130      1.0  0.08241  0.76383  0.35612  1.0000
  H   H206      1.0  0.25158  0.74983  0.19670  1.0000
  H   H207      1.0  0.22816  0.85663  0.24666  1.0000
  H   H208      1.0  0.13116  0.71583  0.45645  1.0000
  H   H209      1.0  0.15544  0.72020  0.36808  1.0000
  C   C131      1.0  0.14995  0.71927  0.38725  1.0000
  H   H210      1.0  0.08462  0.77909  0.36978  1.0000
  S   S48       1.0  0.25905  0.72475  0.10449  1.0000
  C   C132      1.0  0.14441  0.69511  0.42504  1.0000
  C   C133      1.0  0.18545  0.84832  0.22167  1.0000
  H   H211      1.0  0.09192  0.72602  0.38715  1.0000
  Fe  Fe24      1.0  0.25148  0.74483  0.14016  1.0000
  N   N15       1.0  0.06470  0.74504  0.36473  1.0000
  H   H212      1.0  0.05053  0.71002  0.35239  1.0000
  C   C134      1.0  0.15104  0.69648  0.39998  1.0000
  H   H213      1.0  0.18770  0.80186  0.23950  1.0000
  H   H214      1.0  0.04005  0.77222  0.38091  1.0000
  H   H215      1.0  0.24706  0.83536  0.22920  1.0000
  C   C135      1.0  0.02708  0.75695  0.28905  1.0000
  H   H216      1.0  0.03296  0.76437  0.34949  1.0000
  H   H217      1.0  0.23820  0.82825  0.29134  1.0000
  H   H218      1.0  0.08220  0.71596  0.34351  1.0000
  C   C136      1.0  0.22826  0.68531  0.19115  1.0000
  H   H219      1.0  0.24217  0.70038  0.19034  1.0000
  H   H220      1.0  0.20954  0.69437  0.19002  1.0000
  H   H221      1.0  0.15741  0.67994  0.39048  1.0000
  H   H222      1.0  0.24236  0.69539  0.14513  1.0000
  H   H223      1.0  0.21009  0.68835  0.14490  1.0000
  C   C137      1.0  0.22904  0.68000  0.14696  1.0000
  H   H224      1.0  0.22996  0.67639  0.20961  1.0000
  H   H225      1.0  0.05712  0.76283  0.63846  1.0000
  S   S49       1.0  0.22159  0.75206  0.85564  1.0000
  H   H226      1.0  0.16078  0.71053  0.55655  1.0000
  Fe  Fe25      1.0  0.15914  0.76126  0.67298  1.0000
  S   S50       1.0  0.13304  0.79254  0.68274  1.0000
  S   S51       1.0  0.16838  0.75942  0.63226  1.0000
  Fe  Fe26      1.0  0.16169  0.74366  0.72646  1.0000
  S   S52       1.0  0.13436  0.77265  0.73976  1.0000
  S   S53       1.0  0.18340  0.71697  0.75075  1.0000
  Fe  Fe27      1.0  0.11259  0.76419  0.70506  1.0000
  S   S54       1.0  0.07221  0.76056  0.69254  1.0000
  Fe  Fe28      1.0  0.15715  0.79804  0.71598  1.0000
  S   S55       1.0  0.17023  0.83461  0.73139  1.0000
  S   S56       1.0  0.13810  0.73258  0.69392  1.0000
  S   S57       1.0  0.18521  0.76945  0.70426  1.0000
  H   H227      1.0  0.06244  0.78754  0.61677  1.0000
  Fe  Fe29      1.0  0.25903  0.73933  0.87019  1.0000
  C   C138      1.0  0.20102  0.84272  0.72430  1.0000
  C   C139      1.0  0.21345  0.85921  0.73984  1.0000
  C   C140      1.0  0.23799  0.86609  0.73471  1.0000
  H   H228      1.0  0.21216  0.79891  0.80232  1.0000
  C   C141      1.0  0.21889  0.96419  0.70186  1.0000
  C   C142      1.0  0.21320  0.83335  0.70342  1.0000
  H   H229      1.0  0.20416  0.86638  0.75611  1.0000
  N   N16       1.0  0.22361  0.93868  0.71091  1.0000
  H   H230      1.0  0.24674  0.83378  0.68154  1.0000
  H   H231      1.0  0.20368  0.82078  0.69117  1.0000
  H   H232      1.0  0.11216  0.75239  0.65054  1.0000
  C   C143      1.0  0.24867  0.93040  0.70303  1.0000
  C   C144      1.0  0.16566  0.70835  0.62812  1.0000
  C   C145      1.0  0.16635  0.73120  0.61592  1.0000
  C   C146      1.0  0.16471  0.73183  0.59007  1.0000
  C   C147      1.0  0.16194  0.70983  0.57648  1.0000
  H   H233      1.0  0.11982  0.78611  0.62224  1.0000
  H   H234      1.0  0.16708  0.70768  0.64803  1.0000
  N   N17       1.0  0.24825  0.80543  0.78661  1.0000
  H   H235      1.0  0.20011  0.97109  0.70738  1.0000
  C   C148      1.0  0.22215  0.93847  0.73816  1.0000
  C   C149      1.0  0.04399  0.76288  0.70927  1.0000
  C   C150      1.0  0.04328  0.76665  0.73481  1.0000
  C   C151      1.0  0.02149  0.76068  0.69625  1.0000
  H   H236      1.0  0.06047  0.76836  0.74503  1.0000
  C   C152      1.0  0.21206  0.74386  0.82559  1.0000
  C   C153      1.0  0.18851  0.75151  0.81715  1.0000
  C   C154      1.0  0.17997  0.74431  0.79370  1.0000
  C   C155      1.0  0.19480  0.72904  0.77873  1.0000
  C   C156      1.0  0.21860  0.72193  0.78689  1.0000
  C   C157      1.0  0.22733  0.72955  0.81013  1.0000
  H   H237      1.0  0.17662  0.76270  0.82894  1.0000
  H   H238      1.0  0.16154  0.74981  0.78759  1.0000
  H   H239      1.0  0.23025  0.71049  0.77512  1.0000
  H   H240      1.0  0.24564  0.72397  0.81624  1.0000
  H   H241      1.0  0.24137  0.83279  0.81478  1.0000
  H   H242      1.0  0.12499  0.76458  0.59768  1.0000
  H   H243      1.0  0.18570  0.92707  0.70652  1.0000
  H   H244      1.0  0.24564  0.67675  0.80082  1.0000
  H   H245      1.0  0.22522  0.91945  0.74566  1.0000
  C   C158      1.0  0.24962  0.83112  0.79601  1.0000
  H   H246      1.0  0.25310  0.91150  0.71002  1.0000
  H   H247      1.0  0.22012  0.96515  0.68138  1.0000
  H   H248      1.0  0.23278  0.97734  0.70952  1.0000
  H   H249      1.0  0.24752  0.87803  0.74730  1.0000
  C   C159      1.0  0.11031  0.77550  0.60738  1.0000
  H   H250      1.0  0.20528  0.92152  0.68010  1.0000
  H   H251      1.0  0.20364  0.94507  0.74478  1.0000
  H   H252      1.0  0.25079  0.81603  0.74845  1.0000
  H   H253      1.0  0.02184  0.75774  0.67651  1.0000
  C   C160      1.0  0.10236  0.74203  0.63580  1.0000
  H   H254      1.0  0.22021  0.77900  0.77693  1.0000
  H   H255      1.0  0.11626  0.72938  0.62705  1.0000
  H   H256      1.0  0.07985  0.78577  0.64511  1.0000
  H   H257      1.0  0.06518  0.73206  0.60454  1.0000
  H   H258      1.0  0.16559  0.74940  0.58048  1.0000
  C   C161      1.0  0.07169  0.77453  0.62990  1.0000
  C   C162      1.0  0.23757  0.84080  0.69794  1.0000
  H   H259      1.0  0.10239  0.78907  0.59397  1.0000
  H   H260      1.0  0.23644  0.95070  0.74653  1.0000
  H   H261      1.0  0.21154  0.81070  0.77126  1.0000
  H   H262      1.0  0.20824  0.90223  0.70685  1.0000
  S   S58       1.0  0.12686  0.69141  0.51011  1.0000
  H   H263      1.0  0.08819  0.73042  0.64507  1.0000
  H   H264      1.0  0.07100  0.75696  0.58326  1.0000
  C   C163      1.0  0.07973  0.74467  0.59742  1.0000
  H   H265      1.0  0.09397  0.73293  0.58783  1.0000
  N   N18       1.0  0.09099  0.75918  0.61760  1.0000
  C   C164      1.0  0.02021  0.76794  0.74718  1.0000
  C   C165      1.0  0.20485  0.92171  0.70063  1.0000
  C   C166      1.0  0.16179  0.68695  0.58860  1.0000
  C   C167      1.0  0.25005  0.85728  0.71353  1.0000
  S   S59       1.0  0.05251  0.69471  0.51885  1.0000
  H   H266      1.0  0.01983  0.77066  0.76696  1.0000
  C   C168      1.0  0.22191  0.79823  0.78420  1.0000
  H   H267      1.0  0.23949  0.84435  0.78377  1.0000
  C   C169      1.0  0.16378  0.68625  0.61444  1.0000
  H   H268      1.0  0.25204  0.78870  0.82254  1.0000
  H   H269      1.0  0.20688  0.68462  0.82646  1.0000
  H   H270      1.0  0.25035  0.92972  0.68258  1.0000
  H   H271      1.0  0.22661  0.69074  0.85239  1.0000
  H   H272      1.0  0.26000  0.78464  0.75469  1.0000
  C   C170      1.0  0.26038  0.80387  0.76217  1.0000
  H   H273      1.0  0.43588  0.08884  0.26383  1.0000
  H   H274      1.0  0.42971  0.12029  0.32536  1.0000
  N   N19       1.0  0.45485  0.17862  0.44968  1.0000
  C   C171      1.0  0.43135  0.19054  0.44147  1.0000
  C   C172      1.0  0.43752  0.10111  0.32538  1.0000
  H   H275      1.0  0.48803  0.02791  0.42376  1.0000
  Fe  Fe30      1.0  0.29588  0.30654  0.13426  1.0000
  S   S60       1.0  0.32491  0.28116  0.15129  1.0000
  H   H276      1.0  0.33404  0.21071  0.20780  1.0000
  C   C173      1.0  0.47602  0.19391  0.44175  1.0000
  Fe  Fe31      1.0  0.30818  0.16816  0.23440  1.0000
  S   S61       1.0  0.32861  0.19285  0.26049  1.0000
  H   H277      1.0  0.44190  0.14134  0.44458  1.0000
  Fe  Fe32      1.0  0.30212  0.12687  0.27274  1.0000
  S   S62       1.0  0.32146  0.14849  0.30252  1.0000
  C   C174      1.0  0.40250  0.08723  0.30140  1.0000
  Fe  Fe33      1.0  0.29973  0.18159  0.28807  1.0000
  Fe  Fe34      1.0  0.34868  0.15799  0.27256  1.0000
  S   S63       1.0  0.39052  0.15425  0.27487  1.0000
  H   H278      1.0  0.43333  0.05025  0.28856  1.0000
  S   S64       1.0  0.33067  0.13403  0.24372  1.0000
  Fe  Fe35      1.0  0.48789  0.15679  0.37206  1.0000
  S   S65       1.0  0.45214  0.17923  0.37123  1.0000
  S   S66       1.0  0.48203  0.11741  0.38317  1.0000
  C   C175      1.0  0.40681  0.16401  0.30133  1.0000
  C   C176      1.0  0.43285  0.16485  0.30037  1.0000
  C   C177      1.0  0.44676  0.16959  0.32174  1.0000
  C   C178      1.0  0.43471  0.17427  0.34413  1.0000
  C   C179      1.0  0.40861  0.17450  0.34495  1.0000
  C   C180      1.0  0.39466  0.16913  0.32362  1.0000
  H   H279      1.0  0.44238  0.16152  0.28309  1.0000
  H   H280      1.0  0.46682  0.16993  0.32080  1.0000
  H   H281      1.0  0.39918  0.17833  0.36218  1.0000
  H   H282      1.0  0.37458  0.16870  0.32450  1.0000
  S   S67       1.0  0.51050  0.10440  0.44605  1.0000
  S   S68       1.0  0.27807  0.15924  0.26122  1.0000
  H   H283      1.0  0.45411  0.19477  0.48607  1.0000
  H   H284      1.0  0.43328  0.05215  0.32176  1.0000
  Fe  Fe36      1.0  0.51013  0.10817  0.35416  1.0000
  C   C181      1.0  0.36835  0.32679  0.14802  1.0000
  H   H285      1.0  0.47498  0.14450  0.44360  1.0000
  C   C182      1.0  0.29811  0.06142  0.27723  1.0000
  C   C183      1.0  0.32408  0.06008  0.27642  1.0000
  C   C184      1.0  0.33635  0.03681  0.27695  1.0000
  H   H286      1.0  0.33473  0.07694  0.27556  1.0000
  H   H287      1.0  0.49669  0.09470  0.49615  1.0000
  C   C185      1.0  0.31514  0.25297  0.16446  1.0000
  C   C186      1.0  0.29381  0.24098  0.15608  1.0000
  H   H288      1.0  0.28283  0.24911  0.14135  1.0000
  C   C187      1.0  0.30167  0.20684  0.18479  1.0000
  C   C188      1.0  0.32262  0.21914  0.19359  1.0000
  C   C189      1.0  0.32947  0.24199  0.18327  1.0000
  H   H289      1.0  0.39826  0.32952  0.10848  1.0000
  H   H290      1.0  0.47216  0.16675  0.48357  1.0000
  C   C190      1.0  0.29995  0.11100  0.18156  1.0000
  H   H291      1.0  0.34607  0.25107  0.18976  1.0000
  H   H292      1.0  0.35644  0.03592  0.27646  1.0000
  H   H293      1.0  0.47495  0.21289  0.44979  1.0000
  H   H294      1.0  0.28443  0.06544  0.22211  1.0000
  C   C191      1.0  0.45711  0.15369  0.43848  1.0000
  H   H295      1.0  0.45651  0.15468  0.41799  1.0000
  S   S69       1.0  0.29353  0.17746  0.19645  1.0000
  C   C192      1.0  0.47518  0.05402  0.36145  1.0000
  H   H296      1.0  0.27144  0.27881  0.18922  1.0000
  C   C193      1.0  0.28723  0.21787  0.16607  1.0000
  S   S70       1.0  0.28194  0.09034  0.27685  1.0000
  H   H297      1.0  0.31155  0.09963  0.16875  1.0000
  N   N20       1.0  0.42995  0.08729  0.30308  1.0000
  H   H298      1.0  0.49667  0.04943  0.44755  1.0000
  H   H299      1.0  0.39475  0.10651  0.30048  1.0000
  H   H300      1.0  0.43094  0.09201  0.34254  1.0000
  C   C194      1.0  0.44031  0.09934  0.28092  1.0000
  C   C195      1.0  0.28456  0.03931  0.27828  1.0000
  H   H301      1.0  0.46093  0.10087  0.28217  1.0000
  C   C196      1.0  0.26776  0.11156  0.21252  1.0000
  H   H302      1.0  0.43253  0.11839  0.27846  1.0000
  C   C197      1.0  0.26626  0.11249  0.33856  1.0000
  S   S71       1.0  0.29680  0.32379  0.09650  1.0000
  H   H303      1.0  0.27993  0.12144  0.22567  1.0000
  C   C198      1.0  0.43953  0.06150  0.30458  1.0000
  C   C199      1.0  0.45497  0.17631  0.47689  1.0000
  H   H304      1.0  0.43087  0.19260  0.42097  1.0000
  H   H305      1.0  0.30841  0.06467  0.19897  1.0000
  H   H306      1.0  0.28085  0.11597  0.32447  1.0000
  H   H307      1.0  0.39607  0.07740  0.28454  1.0000
  S   S72       1.0  0.28131  0.21155  0.31107  1.0000
  H   H308      1.0  0.28311  0.32402  0.04484  1.0000
  H   H309      1.0  0.31277  0.12137  0.19382  1.0000
  H   H310      1.0  0.26446  0.04013  0.27889  1.0000
  H   H311      1.0  0.45812  0.10262  0.32665  1.0000
  H   H312      1.0  0.27653  0.07008  0.16604  1.0000
  C   C200      1.0  0.46657  0.03386  0.37501  1.0000
  H   H313      1.0  0.42900  0.20939  0.44958  1.0000
  C   C201      1.0  0.29694  0.07721  0.21079  1.0000
  H   H314      1.0  0.45241  0.03669  0.38895  1.0000
  C   C202      1.0  0.29684  0.01601  0.27868  1.0000
  C   C203      1.0  0.27065  0.32349  0.02925  1.0000
  H   H315      1.0  0.39406  0.07808  0.31772  1.0000
  H   H316      1.0  0.46024  0.06099  0.30461  1.0000
  C   C204      1.0  0.26589  0.08236  0.17888  1.0000
  H   H317      1.0  0.28976  0.12527  0.17042  1.0000
  H   H318      1.0  0.30971  0.08649  0.22397  1.0000
  H   H319      1.0  0.50025  0.05778  0.41578  1.0000
  N   N21       1.0  0.28266  0.09551  0.19592  1.0000
  C   C205      1.0  0.49394  0.05063  0.34393  1.0000
  H   H320      1.0  0.49408  0.18550  0.44762  1.0000
  C   C206      1.0  0.50196  0.04205  0.42905  1.0000
  H   H321      1.0  0.46722  0.07217  0.36460  1.0000
  H   H322      1.0  0.47650  0.19589  0.42126  1.0000
  H   H323      1.0  0.27051  0.16103  0.32647  1.0000
  H   H324      1.0  0.27556  0.11217  0.35692  1.0000
  H   H325      1.0  0.28788  0.25289  0.22391  1.0000
  C   C207      1.0  0.50351  0.02680  0.33933  1.0000
  C   C208      1.0  0.32283  0.01465  0.27814  1.0000
  H   H326      1.0  0.35000  0.32871  0.15742  1.0000
  H   H327      1.0  0.27107  0.20842  0.15907  1.0000
  H   H328      1.0  0.41498  0.17938  0.44687  1.0000
  C   C209      1.0  0.26832  0.24949  0.22961  1.0000
  C   C210      1.0  0.47713  0.01032  0.37147  1.0000
  H   H329      1.0  0.43900  0.16527  0.48360  1.0000
  H   H330      1.0  0.38252  0.32292  0.16253  1.0000
  H   H331      1.0  0.27953  0.29798  0.22950  1.0000
  S   S73       1.0  0.50551  0.07621  0.32800  1.0000
  H   H332      1.0  0.36731  0.31004  0.13602  1.0000
  H   H333      1.0  0.26714  0.15759  0.35918  1.0000
  C   C211      1.0  0.50406  0.11326  0.49538  1.0000
  H   H334      1.0  0.26256  0.23192  0.22053  1.0000
  H   H335      1.0  0.26830  0.24623  0.24993  1.0000
  H   H336      1.0  0.35306  0.33726  0.10208  1.0000
  H   H337      1.0  0.41368  0.34235  0.13490  1.0000
  C   C212      1.0  0.27253  0.22632  0.82482  1.0000
  H   H338      1.0  0.36060  0.15895  0.86459  1.0000
  S   S74       1.0  0.49612  0.11430  0.63892  1.0000
  Fe  Fe37      1.0  0.26602  0.33516  0.91796  1.0000
  H   H339      1.0  0.27108  0.03371  0.72455  1.0000
  H   H340      1.0  0.33267  0.03684  0.79249  1.0000
  C   C213      1.0  0.35075  0.14964  0.81697  1.0000
  H   H341      1.0  0.33827  0.13799  0.87727  1.0000
  S   S75       1.0  0.29657  0.31267  0.89982  1.0000
  H   H342      1.0  0.30457  0.16291  0.85792  1.0000
  Fe  Fe38      1.0  0.31432  0.12241  0.75574  1.0000
  S   S76       1.0  0.29672  0.12757  0.71852  1.0000
  S   S77       1.0  0.32347  0.08687  0.77649  1.0000
  Fe  Fe39      1.0  0.32172  0.17791  0.76259  1.0000
  S   S78       1.0  0.30575  0.18776  0.72561  1.0000
  S   S79       1.0  0.33602  0.20700  0.78876  1.0000
  Fe  Fe40      1.0  0.27644  0.16028  0.73530  1.0000
  Fe  Fe41      1.0  0.32746  0.15471  0.71160  1.0000
  S   S80       1.0  0.34505  0.15345  0.67367  1.0000
  S   S81       1.0  0.29105  0.15245  0.77334  1.0000
  S   S82       1.0  0.34648  0.14742  0.74769  1.0000
  Fe  Fe42      1.0  0.48153  0.15217  0.62925  1.0000
  S   S83       1.0  0.46069  0.17273  0.65953  1.0000
  S   S84       1.0  0.46794  0.14123  0.59157  1.0000
  C   C214      1.0  0.32060  0.12158  0.83385  1.0000
  Fe  Fe43      1.0  0.50634  0.15089  0.57868  1.0000
  C   C215      1.0  0.42879  0.16624  0.66375  1.0000
  C   C216      1.0  0.41678  0.17396  0.68552  1.0000
  C   C217      1.0  0.39127  0.16953  0.68910  1.0000
  C   C218      1.0  0.37748  0.15780  0.67066  1.0000
  C   C219      1.0  0.38948  0.15012  0.64891  1.0000
  C   C220      1.0  0.41508  0.15405  0.64557  1.0000
  H   H343      1.0  0.42721  0.18348  0.69964  1.0000
  H   H344      1.0  0.38220  0.17568  0.70587  1.0000
  H   H345      1.0  0.37897  0.14104  0.63456  1.0000
  H   H346      1.0  0.42409  0.14804  0.62873  1.0000
  C   C221      1.0  0.31022  0.01314  0.76962  1.0000
  H   H347      1.0  0.26543  0.17592  0.68597  1.0000
  H   H348      1.0  0.36161  0.16691  0.81960  1.0000
  H   H349      1.0  0.33961  0.15235  0.79992  1.0000
  C   C222      1.0  0.48195  0.02090  0.60122  1.0000
  C   C223      1.0  0.31134  0.05834  0.76621  1.0000
  C   C224      1.0  0.29397  0.05732  0.74702  1.0000
  C   C225      1.0  0.28462  0.03431  0.73932  1.0000
  H   H350      1.0  0.28753  0.07426  0.73828  1.0000
  C   C226      1.0  0.27988  0.24658  0.83919  1.0000
  C   C227      1.0  0.30418  0.25527  0.83719  1.0000
  C   C228      1.0  0.32123  0.24323  0.82139  1.0000
  C   C229      1.0  0.31385  0.22297  0.80700  1.0000
  C   C230      1.0  0.28927  0.21493  0.80835  1.0000
  H   H351      1.0  0.33964  0.03000  0.72563  1.0000
  H   H352      1.0  0.31000  0.27087  0.84827  1.0000
  H   H353      1.0  0.34020  0.24960  0.82041  1.0000
  H   H354      1.0  0.28324  0.19961  0.79713  1.0000
  H   H355      1.0  0.36356  0.12617  0.85880  1.0000
  H   H356      1.0  0.34577  0.02292  0.69386  1.0000
  C   C231      1.0  0.34993  0.14179  0.86077  1.0000
  C   C232      1.0  0.31684  0.16562  0.84164  1.0000
  H   H357      1.0  0.32669  0.18352  0.84415  1.0000
  Fe  Fe44      1.0  0.26652  0.29837  0.87475  1.0000
  H   H358      1.0  0.47906  0.01676  0.58189  1.0000
  C   C233      1.0  0.26303  0.33074  0.98530  1.0000
  H   H359      1.0  0.28773  0.21563  0.67973  1.0000
  C   C234      1.0  0.47637  0.04465  0.61027  1.0000
  C   C235      1.0  0.34543  0.01488  0.71276  1.0000
  H   H360      1.0  0.30126  0.22237  0.65027  1.0000
  H   H361      1.0  0.33334  0.10541  0.83074  1.0000
  H   H362      1.0  0.30874  0.12314  0.81704  1.0000
  H   H363      1.0  0.28005  0.16459  0.61992  1.0000
  Fe  Fe45      1.0  0.48534  0.10421  0.60035  1.0000
  C   C236      1.0  0.49081  0.03207  0.65086  1.0000
  H   H364      1.0  0.29631  0.19325  0.61548  1.0000
  H   H365      1.0  0.30818  0.11709  0.84958  1.0000
  H   H366      1.0  0.49750  0.12039  0.53407  1.0000
  S   S85       1.0  0.46746  0.06827  0.58981  1.0000
  H   H367      1.0  0.50606  0.17187  0.72898  1.0000
  H   H368      1.0  0.47485  0.06788  0.64251  1.0000
  C   C237      1.0  0.27431  0.16877  0.66881  1.0000
  H   H369      1.0  0.30463  0.16794  0.82522  1.0000
  H   H370      1.0  0.49430  0.03649  0.67003  1.0000
  H   H371      1.0  0.36402  0.13402  0.81342  1.0000
  C   C238      1.0  0.48012  0.04996  0.63524  1.0000
  H   H372      1.0  0.30986  0.16904  0.63408  1.0000
  N   N22       1.0  0.33452  0.14464  0.83833  1.0000
  C   C239      1.0  0.31937  0.03618  0.77751  1.0000
  N   N23       1.0  0.27969  0.18903  0.65132  1.0000
  C   C240      1.0  0.29195  0.17855  0.62917  1.0000
  C   C241      1.0  0.38877  0.02388  0.71952  1.0000
  S   S86       1.0  0.27229  0.32787  0.84650  1.0000
  H   H373      1.0  0.48878  0.18425  0.70336  1.0000
  C   C242      1.0  0.29642  0.20708  0.66311  1.0000
  H   H374      1.0  0.40743  0.01644  0.72486  1.0000
  H   H375      1.0  0.29161  0.15864  0.67423  1.0000
  H   H376      1.0  0.50891  0.20406  0.72065  1.0000
  H   H377      1.0  0.50633  0.15119  0.67730  1.0000
  C   C243      1.0  0.50702  0.18496  0.71315  1.0000
  H   H378      1.0  0.31421  0.19806  0.66908  1.0000
  C   C244      1.0  0.29277  0.01215  0.75051  1.0000
  H   H379      1.0  0.38385  0.03909  0.73265  1.0000
  H   H380      1.0  0.39051  0.03233  0.70085  1.0000
  C   C245      1.0  0.50456  0.12778  0.51693  1.0000
  H   H381      1.0  0.29777  0.33759  0.00376  1.0000
  H   H382      1.0  0.26147  0.15495  0.66072  1.0000
  C   C246      1.0  0.27900  0.33097  0.00585  1.0000
  H   H383      1.0  0.51024  0.19534  0.66476  1.0000
  S   S87       1.0  0.30695  0.39359  0.09694  1.0000
  Fe  Fe46      1.0  0.43579  0.52868  0.10496  1.0000
  S   S88       1.0  0.41854  0.53156  0.14262  1.0000
  S   S89       1.0  0.47588  0.52148  0.09360  1.0000
  Fe  Fe47      1.0  0.38531  0.53359  0.07937  1.0000
  S   S90       1.0  0.36402  0.53697  0.11480  1.0000
  S   S91       1.0  0.36523  0.53932  0.04344  1.0000
  Fe  Fe48      1.0  0.39478  0.56228  0.12621  1.0000
  S   S92       1.0  0.39041  0.60059  0.14301  1.0000
  Fe  Fe49      1.0  0.38921  0.50588  0.12768  1.0000
  S   S93       1.0  0.37671  0.47218  0.14943  1.0000
  S   S94       1.0  0.41433  0.56107  0.08972  1.0000
  S   S95       1.0  0.40824  0.50071  0.09126  1.0000
  C   C247      1.0  0.32544  0.41572  0.11223  1.0000
  C   C248      1.0  0.33676  0.43434  0.09820  1.0000
  C   C249      1.0  0.35214  0.45196  0.10948  1.0000
  C   C250      1.0  0.35653  0.45098  0.13491  1.0000
  C   C251      1.0  0.34521  0.43234  0.14897  1.0000
  C   C252      1.0  0.32954  0.41488  0.13771  1.0000
  H   H384      1.0  0.33364  0.43519  0.07849  1.0000
  H   H385      1.0  0.36067  0.46626  0.09846  1.0000
  H   H386      1.0  0.34828  0.43166  0.16870  1.0000
  H   H387      1.0  0.32048  0.40095  0.14876  1.0000
  C   C253      1.0  0.32122  0.64883  0.12728  1.0000
  C   C254      1.0  0.34314  0.65961  0.13571  1.0000
  C   C255      1.0  0.36419  0.64459  0.14065  1.0000
  C   C256      1.0  0.36358  0.61882  0.13684  1.0000
  C   C257      1.0  0.34164  0.60809  0.12836  1.0000
  C   C258      1.0  0.32048  0.62303  0.12385  1.0000
  C   C259      1.0  0.39044  0.49951  0.02310  1.0000
  H   H388      1.0  0.38109  0.65298  0.14734  1.0000
  H   H389      1.0  0.34085  0.58824  0.12571  1.0000
  H   H390      1.0  0.30351  0.61453  0.11753  1.0000
  C   C260      1.0  0.43985  0.46025  0.14758  1.0000
  C   C261      1.0  0.36463  0.60031  0.06739  1.0000
  C   C262      1.0  0.48085  0.44241  0.15395  1.0000
  H   H391      1.0  0.47451  0.42385  0.14777  1.0000
  H   H392      1.0  0.48574  0.54573  0.14120  1.0000
  H   H393      1.0  0.38252  0.62417  0.02794  1.0000
  H   H394      1.0  0.47288  0.48883  0.17099  1.0000
  H   H395      1.0  0.43217  0.44244  0.14084  1.0000
  H   H396      1.0  0.35854  0.37012  0.10329  1.0000
  H   H397      1.0  0.39202  0.49223  0.04158  1.0000
  C   C263      1.0  0.27656  0.41899  0.04153  1.0000
  S   S96       1.0  0.29259  0.34346  0.15305  1.0000
  S   S97       1.0  0.29449  0.66679  0.12018  1.0000
  H   H398      1.0  0.45805  0.47466  0.10483  1.0000
  H   H399      1.0  0.40346  0.36234  0.11015  1.0000
  H   H400      1.0  0.35304  0.58592  0.07639  1.0000
  C   C264      1.0  0.32917  0.62761  0.06140  1.0000
  H   H401      1.0  0.31665  0.61414  0.07054  1.0000
  Fe  Fe50      1.0  0.28920  0.36025  0.11537  1.0000
  H   H402      1.0  0.26123  0.64295  0.15749  1.0000
  H   H403      1.0  0.46520  0.44232  0.10744  1.0000
  H   H404      1.0  0.42873  0.47536  0.13871  1.0000
  C   C265      1.0  0.47547  0.48673  0.15072  1.0000
  H   H405      1.0  0.47876  0.44329  0.17438  1.0000
  N   N24       1.0  0.37424  0.34922  0.13358  1.0000
  H   H406      1.0  0.32874  0.58321  0.03809  1.0000
  H   H407      1.0  0.49557  0.48924  0.14659  1.0000
  H   H408      1.0  0.33582  0.64059  0.07591  1.0000
  N   N25       1.0  0.35018  0.61479  0.04903  1.0000
  H   H409      1.0  0.46523  0.50233  0.14172  1.0000
  C   C266      1.0  0.50323  0.54017  0.13289  1.0000
  C   C267      1.0  0.50344  0.52885  0.10962  1.0000
  H   H410      1.0  0.38995  0.36862  0.16450  1.0000
  H   H411      1.0  0.31776  0.63866  0.04812  1.0000
  H   H412      1.0  0.37222  0.61232  0.08227  1.0000
  H   H413      1.0  0.35618  0.64458  0.02342  1.0000
  H   H414      1.0  0.48960  0.46492  0.10929  1.0000
  N   N26       1.0  0.46656  0.46254  0.14174  1.0000
  H   H415      1.0  0.38056  0.59037  0.05855  1.0000
  H   H416      1.0  0.43625  0.46155  0.16777  1.0000
  H   H417      1.0  0.27800  0.38235  0.00819  1.0000
  H   H418      1.0  0.37884  0.38833  0.13986  1.0000
  C   C268      1.0  0.47007  0.46092  0.11470  1.0000
  H   H419      1.0  0.37411  0.64629  0.05142  1.0000
  C   C269      1.0  0.37810  0.52216  0.01893  1.0000
  C   C270      1.0  0.36647  0.63331  0.03742  1.0000
  H   H420      1.0  0.29537  0.41022  0.04003  1.0000
  H   H421      1.0  0.35722  0.37366  0.16016  1.0000
  C   C271      1.0  0.37519  0.37090  0.15025  1.0000
  C   C272      1.0  0.39853  0.34572  0.12125  1.0000
  H   H422      1.0  0.27743  0.37054  0.05286  1.0000
  C   C273      1.0  0.35477  0.35342  0.11474  1.0000
  H   H423      1.0  0.32929  0.60800  0.01579  1.0000
  H   H424      1.0  0.50106  0.44370  0.14969  1.0000
  C   C274      1.0  0.34057  0.59787  0.02987  1.0000
  H   H425      1.0  0.35601  0.58804  0.02005  1.0000
  H   H426      1.0  0.27514  0.42656  0.06065  1.0000
  H   H427      1.0  0.27562  0.43487  0.02844  1.0000
  H   H428      1.0  0.27194  0.67109  0.17094  1.0000
  H   H429      1.0  0.33630  0.35651  0.12345  1.0000
  H   H430      1.0  0.26069  0.64680  0.19049  1.0000
  S   S98       1.0  0.33525  0.36180  0.86207  1.0000
  Fe  Fe51      1.0  0.42470  0.51839  0.87176  1.0000
  S   S99       1.0  0.38806  0.53432  0.85855  1.0000
  S   S100      1.0  0.45961  0.52632  0.85006  1.0000
  Fe  Fe52      1.0  0.40224  0.49824  0.91879  1.0000
  S   S101      1.0  0.36418  0.51303  0.91005  1.0000
  S   S102      1.0  0.40947  0.47768  0.95410  1.0000
  Fe  Fe53      1.0  0.37200  0.49840  0.87206  1.0000
  S   S103      1.0  0.33968  0.47892  0.85433  1.0000
  Fe  Fe54      1.0  0.38355  0.54745  0.89759  1.0000
  S   S104      1.0  0.37471  0.58635  0.91086  1.0000
  S   S105      1.0  0.40905  0.48113  0.88158  1.0000
  S   S106      1.0  0.42112  0.53371  0.90996  1.0000
  C   C275      1.0  0.39805  0.49514  0.97910  1.0000
  C   C276      1.0  0.38595  0.51790  0.97501  1.0000
  H   H431      1.0  0.42002  0.57252  0.87392  1.0000
  H   H432      1.0  0.38457  0.52544  0.95662  1.0000
  N   N27       1.0  0.35090  0.43217  0.93809  1.0000
  C   C277      1.0  0.32727  0.64186  0.86655  1.0000
  C   C278      1.0  0.33355  0.61869  0.85624  1.0000
  C   C279      1.0  0.34794  0.60133  0.86967  1.0000
  C   C280      1.0  0.35616  0.60714  0.89346  1.0000
  C   C281      1.0  0.34991  0.63030  0.90370  1.0000
  C   C282      1.0  0.33542  0.64756  0.89036  1.0000
  H   H433      1.0  0.32730  0.61416  0.83782  1.0000
  H   H434      1.0  0.35265  0.58351  0.86163  1.0000
  H   H435      1.0  0.35614  0.63488  0.92212  1.0000
  H   H436      1.0  0.33139  0.45631  0.91275  1.0000
  C   C283      1.0  0.33642  0.39440  0.86058  1.0000
  C   C284      1.0  0.35948  0.40608  0.85861  1.0000
  C   C285      1.0  0.36077  0.43209  0.85721  1.0000
  C   C286      1.0  0.33894  0.44647  0.85711  1.0000
  C   C287      1.0  0.31589  0.43480  0.85884  1.0000
  C   C288      1.0  0.31467  0.40888  0.86097  1.0000
  H   H437      1.0  0.37640  0.39498  0.85816  1.0000
  H   H438      1.0  0.37862  0.44094  0.85553  1.0000
  H   H439      1.0  0.29898  0.44591  0.85895  1.0000
  H   H440      1.0  0.29689  0.40012  0.86271  1.0000
  H   H441      1.0  0.45077  0.61482  0.91773  1.0000
  C   C289      1.0  0.48803  0.52258  0.86605  1.0000
  H   H442      1.0  0.33504  0.45053  0.96982  1.0000
  H   H443      1.0  0.47144  0.50817  0.89914  1.0000
  C   C290      1.0  0.34821  0.40699  0.94850  1.0000
  H   H444      1.0  0.36420  0.40201  0.96067  1.0000
  H   H445      1.0  0.34737  0.39270  0.93361  1.0000
  H   H446      1.0  0.43410  0.58450  0.84669  1.0000
  H   H447      1.0  0.37629  0.45174  0.91479  1.0000
  C   C291      1.0  0.32933  0.43801  0.92212  1.0000
  C   C292      1.0  0.37570  0.53122  0.99484  1.0000
  H   H448      1.0  0.28987  0.36669  0.79381  1.0000
  H   H449      1.0  0.32727  0.42373  0.90752  1.0000
  H   H450      1.0  0.37387  0.41925  0.90810  1.0000
  H   H451      1.0  0.46279  0.62028  0.85033  1.0000
  H   H452      1.0  0.46212  0.56530  0.89163  1.0000
  C   C293      1.0  0.29876  0.41568  0.79300  1.0000
  N   N28       1.0  0.44673  0.60071  0.88077  1.0000
  H   H453      1.0  0.33053  0.66524  0.89857  1.0000
  S   S107      1.0  0.30918  0.66328  0.84937  1.0000
  H   H454      1.0  0.29632  0.43505  0.78622  1.0000
  H   H455      1.0  0.36624  0.54873  0.99148  1.0000
  H   H456      1.0  0.31016  0.40526  0.77923  1.0000
  C   C294      1.0  0.51040  0.52936  0.85467  1.0000
  C   C295      1.0  0.46790  0.58303  0.88296  1.0000
  S   S108      1.0  0.27250  0.34630  0.95816  1.0000
  H   H457      1.0  0.43963  0.63758  0.86725  1.0000
  H   H458      1.0  0.42016  0.61896  0.90457  1.0000
  H   H459      1.0  0.41077  0.60247  0.86316  1.0000
  C   C296      1.0  0.45522  0.62388  0.86913  1.0000
  C   C297      1.0  0.48853  0.51354  0.89021  1.0000
  H   H460      1.0  0.33085  0.40543  0.95952  1.0000
  H   H461      1.0  0.31166  0.43856  0.93276  1.0000
  C   C298      1.0  0.43663  0.60621  0.90558  1.0000
  H   H462      1.0  0.47576  0.57814  0.86455  1.0000
  H   H463      1.0  0.39074  0.42948  0.93485  1.0000
  H   H464      1.0  0.30996  0.41654  0.81025  1.0000
  C   C299      1.0  0.42708  0.58968  0.86535  1.0000
  N   N29       1.0  0.27457  0.40368  0.79726  1.0000
  H   H465      1.0  0.36830  0.44679  0.97067  1.0000
  H   H466      1.0  0.26930  0.41899  0.83358  1.0000
  H   H467      1.0  0.43021  0.58903  0.91492  1.0000
  H   H468      1.0  0.35442  0.46971  0.95097  1.0000
  C   C300      1.0  0.35212  0.45055  0.95830  1.0000
  C   C301      1.0  0.37394  0.43313  0.92330  1.0000
  H   H469      1.0  0.48318  0.59063  0.89443  1.0000
  S   S109      1.0  0.26983  0.36769  0.89218  1.0000
  H   H470      1.0  0.51012  0.53640  0.83598  1.0000
  H   H471      1.0  0.27104  0.39133  0.75969  1.0000
  C   C302      1.0  0.40026  0.48592  0.00317  1.0000
  H   H472      1.0  0.47013  0.63269  0.88022  1.0000
  H   H473      1.0  0.28931  0.37851  0.82464  1.0000
  C   C303      1.0  0.27885  0.37832  0.80690  1.0000
  Fe  Fe55      1.0  0.29886  0.34467  0.87335  1.0000
  H   H474      1.0  0.26845  0.65461  0.81160  1.0000
  C   C304      1.0  0.26062  0.40231  0.77379  1.0000
  H   H475      1.0  0.26122  0.63027  0.84865  1.0000
  H   H476      1.0  0.40963  0.46834  0.00641  1.0000
  H   H477      1.0  0.26096  0.36878  0.81040  1.0000
  H   H478      1.0  0.40844  0.96232  0.28707  1.0000
  S   S110      1.0  0.31813  0.73912  0.11265  1.0000
  N   N30       1.0  0.34353  0.82136  0.11021  1.0000
  S   S111      1.0  0.28560  0.77664  0.05797  1.0000
  H   H479      1.0  0.32058  0.79359  0.09371  1.0000
  Fe  Fe56      1.0  0.30484  0.75901  0.14710  1.0000
  S   S112      1.0  0.32886  0.78028  0.17400  1.0000
  S   S113      1.0  0.49579  0.92888  0.35612  1.0000
  H   H480      1.0  0.27618  0.82318  0.33271  1.0000
  H   H481      1.0  0.44633  0.95813  0.32959  1.0000
  H   H482      1.0  0.43067  0.97902  0.35023  1.0000
  Fe  Fe57      1.0  0.30782  0.90000  0.24914  1.0000
  S   S114      1.0  0.31842  0.87387  0.27949  1.0000
  H   H483      1.0  0.47334  0.83835  0.42689  1.0000
  Fe  Fe58      1.0  0.32443  0.94639  0.27862  1.0000
  S   S115      1.0  0.33468  0.92282  0.31157  1.0000
  S   S116      1.0  0.33944  0.98599  0.27935  1.0000
  Fe  Fe59      1.0  0.35244  0.89706  0.28416  1.0000
  S   S117      1.0  0.39271  0.88454  0.28444  1.0000
  Fe  Fe60      1.0  0.29936  0.90208  0.30359  1.0000
  S   S118      1.0  0.34351  0.92100  0.25136  1.0000
  H   H484      1.0  0.28623  0.99912  0.27964  1.0000
  Fe  Fe61      1.0  0.49005  0.89808  0.38306  1.0000
  S   S119      1.0  0.45947  0.87004  0.38007  1.0000
  S   S120      1.0  0.48578  0.92307  0.41576  1.0000
  H   H485      1.0  0.49587  0.93015  0.46893  1.0000
  H   H486      1.0  0.38468  0.98447  0.34760  1.0000
  C   C305      1.0  0.41045  0.88079  0.31157  1.0000
  C   C306      1.0  0.43626  0.88395  0.31019  1.0000
  C   C307      1.0  0.45121  0.88127  0.33128  1.0000
  C   C308      1.0  0.44059  0.87446  0.35377  1.0000
  C   C309      1.0  0.41479  0.87091  0.35516  1.0000
  C   C310      1.0  0.39966  0.87448  0.33416  1.0000
  H   H487      1.0  0.44474  0.88854  0.29270  1.0000
  H   H488      1.0  0.47110  0.88370  0.32995  1.0000
  H   H489      1.0  0.40649  0.86555  0.37250  1.0000
  H   H490      1.0  0.37979  0.87177  0.33531  1.0000
  C   C311      1.0  0.38532  0.97589  0.32893  1.0000
  C   C312      1.0  0.32409  0.82941  0.12784  1.0000
  C   C313      1.0  0.31648  0.80754  0.18777  1.0000
  C   C314      1.0  0.33137  0.82158  0.20367  1.0000
  C   C315      1.0  0.32265  0.84442  0.21316  1.0000
  C   C316      1.0  0.29918  0.85362  0.20630  1.0000
  H   H491      1.0  0.42215  0.93406  0.29882  1.0000
  C   C317      1.0  0.29258  0.81629  0.18191  1.0000
  H   H492      1.0  0.34986  0.81497  0.20842  1.0000
  H   H493      1.0  0.33439  0.85523  0.22519  1.0000
  C   C318      1.0  0.33167  0.81004  0.08840  1.0000
  H   H494      1.0  0.28052  0.84061  0.30505  1.0000
  S   S121      1.0  0.28739  0.92780  0.27305  1.0000
  H   H495      1.0  0.41969  0.92475  0.34399  1.0000
  H   H496      1.0  0.50232  0.82311  0.41930  1.0000
  H   H497      1.0  0.36722  0.96656  0.32580  1.0000
  C   C319      1.0  0.40660  0.94766  0.30136  1.0000
  H   H498      1.0  0.40277  0.94528  0.36399  1.0000
  Fe  Fe62      1.0  0.28417  0.75608  0.09466  1.0000
  H   H499      1.0  0.49835  0.85582  0.41457  1.0000
  N   N31       1.0  0.26862  0.80318  0.29911  1.0000
  H   H500      1.0  0.38905  0.93768  0.29730  1.0000
  H   H501      1.0  0.29590  0.72471  0.04668  1.0000
  C   C320      1.0  0.40366  0.93800  0.34478  1.0000
  N   N32       1.0  0.40642  0.95818  0.32657  1.0000
  C   C321      1.0  0.28747  0.75997  0.02981  1.0000
  H   H502      1.0  0.31115  0.84339  0.11957  1.0000
  S   S122      1.0  0.28291  0.72666  0.16059  1.0000
  C   C322      1.0  0.27736  0.80290  0.27323  1.0000
  H   H503      1.0  0.35000  0.78564  0.12685  1.0000
  C   C323      1.0  0.35811  0.84308  0.10254  1.0000
  H   H504      1.0  0.30299  0.81731  0.31358  1.0000
  H   H505      1.0  0.28066  0.80552  0.17025  1.0000
  H   H506      1.0  0.49764  0.87211  0.48132  1.0000
  H   H507      1.0  0.31273  0.81346  0.13381  1.0000
  H   H508      1.0  0.43289  0.98649  0.31792  1.0000
  C   C324      1.0  0.50526  0.92503  0.48584  1.0000
  Fe  Fe63      1.0  0.29234  0.70864  0.12437  1.0000
  H   H509      1.0  0.50345  0.98836  0.35050  1.0000
  C   C325      1.0  0.28423  0.83946  0.19063  1.0000
  C   C326      1.0  0.49162  0.86820  0.46205  1.0000
  N   N33       1.0  0.50324  0.84514  0.45250  1.0000
  H   H510      1.0  0.38650  0.92718  0.34133  1.0000
  H   H511      1.0  0.26688  0.78933  0.26191  1.0000
  H   H512      1.0  0.33225  0.83764  0.14484  1.0000
  H   H513      1.0  0.26617  0.84651  0.18505  1.0000
  C   C327      1.0  0.29311  0.73459  0.02949  1.0000
  C   C328      1.0  0.49394  0.84029  0.42728  1.0000
  C   C329      1.0  0.36017  0.80285  0.12214  1.0000
  Fe  Fe64      1.0  0.49439  0.95342  0.38926  1.0000
  H   H514      1.0  0.36729  0.85190  0.11870  1.0000
  H   H515      1.0  0.34604  0.85742  0.09360  1.0000
  H   H516      1.0  0.38639  0.99102  0.31500  1.0000
  C   C330      1.0  0.43007  0.97109  0.33123  1.0000
  H   H517      1.0  0.34562  0.80358  0.07460  1.0000
  H   H518      1.0  0.47096  0.86732  0.46181  1.0000
  C   C331      1.0  0.27237  0.77834  0.31018  1.0000
  H   H519      1.0  0.34389  0.67947  0.13849  1.0000
  H   H520      1.0  0.29232  0.77259  0.30992  1.0000
  H   H521      1.0  0.29746  0.79774  0.27207  1.0000
  S   S123      1.0  0.28812  0.88283  0.21647  1.0000
  S   S124      1.0  0.46876  0.98642  0.39136  1.0000
  H   H522      1.0  0.31861  0.82319  0.07900  1.0000
  H   H523      1.0  0.36804  0.81002  0.13975  1.0000
  S   S125      1.0  0.27292  0.88628  0.33178  1.0000
  C   C332      1.0  0.28273  0.82177  0.31325  1.0000
  H   H524      1.0  0.27522  0.82153  0.26451  1.0000
  H   H525      1.0  0.37290  0.83772  0.08914  1.0000
  H   H526      1.0  0.37587  0.79730  0.10990  1.0000
  H   H527      1.0  0.50514  0.80646  0.46204  1.0000
  H   H528      1.0  0.47632  0.82179  0.46983  1.0000
  C   C333      1.0  0.49683  0.82422  0.46881  1.0000
  H   H529      1.0  0.49700  0.88444  0.45071  1.0000
  C   C334      1.0  0.49529  0.00661  0.35333  1.0000
  H   H530      1.0  0.50376  0.82729  0.48794  1.0000
  S   S126      1.0  0.27285  0.77807  0.12824  1.0000
  H   H531      1.0  0.26600  0.77802  0.32974  1.0000
  H   H532      1.0  0.26161  0.76398  0.30006  1.0000
  C   C335      1.0  0.28387  0.77252  0.00728  1.0000
  H   H533      1.0  0.27923  0.79211  0.00741  1.0000
  C   C336      1.0  0.29537  0.72194  0.00686  1.0000
  Fe  Fe65      1.0  0.31234  0.75502  0.87204  1.0000
  H   H534      1.0  0.39704  0.86517  0.59802  1.0000
  S   S127      1.0  0.33957  0.78399  0.85994  1.0000
  Fe  Fe66      1.0  0.30003  0.70007  0.86756  1.0000
  H   H535      1.0  0.39549  0.97614  0.70675  1.0000
  H   H536      1.0  0.35524  0.76401  0.94023  1.0000
  C   C337      1.0  0.28575  0.75975  0.98459  1.0000
  H   H537      1.0  0.38630  0.98461  0.75051  1.0000
  S   S128      1.0  0.29080  0.73345  0.84419  1.0000
  S   S129      1.0  0.32495  0.72105  0.89290  1.0000
  Fe  Fe67      1.0  0.30019  0.89350  0.73135  1.0000
  S   S130      1.0  0.27925  0.91395  0.76065  1.0000
  Fe  Fe68      1.0  0.34900  0.91819  0.74548  1.0000
  S   S131      1.0  0.33111  0.93938  0.77689  1.0000
  S   S132      1.0  0.38801  0.93072  0.73659  1.0000
  Fe  Fe69      1.0  0.31156  0.90347  0.78477  1.0000
  S   S133      1.0  0.29827  0.88742  0.82089  1.0000
  Fe  Fe70      1.0  0.30070  0.94742  0.74965  1.0000
  S   S134      1.0  0.28115  0.98360  0.73973  1.0000
  S   S135      1.0  0.33200  0.88152  0.75576  1.0000
  S   S136      1.0  0.31923  0.92786  0.71801  1.0000
  H   H538      1.0  0.35400  0.97880  0.74571  1.0000
  S   S137      1.0  0.48094  0.93473  0.62584  1.0000
  S   S138      1.0  0.46204  0.87567  0.66295  1.0000
  H   H539      1.0  0.40425  0.87681  0.56779  1.0000
  H   H540      1.0  0.28242  0.76941  0.96740  1.0000
  H   H541      1.0  0.38291  0.89360  0.58734  1.0000
  H   H542      1.0  0.39844  0.91527  0.62463  1.0000
  H   H543      1.0  0.32191  0.76396  0.93950  1.0000
  C   C338      1.0  0.40770  0.91516  0.71547  1.0000
  C   C339      1.0  0.42935  0.92702  0.70752  1.0000
  C   C340      1.0  0.44588  0.91514  0.69115  1.0000
  C   C341      1.0  0.44114  0.89106  0.68302  1.0000
  C   C342      1.0  0.41944  0.87918  0.69083  1.0000
  C   C343      1.0  0.40261  0.89129  0.70685  1.0000
  H   H544      1.0  0.43352  0.94541  0.71423  1.0000
  H   H545      1.0  0.46253  0.92449  0.68524  1.0000
  H   H546      1.0  0.41566  0.86053  0.68460  1.0000
  H   H547      1.0  0.38602  0.88197  0.71298  1.0000
  C   C344      1.0  0.32706  0.81158  0.84722  1.0000
  C   C345      1.0  0.30287  0.81955  0.85290  1.0000
  C   C346      1.0  0.29422  0.84283  0.84465  1.0000
  C   C347      1.0  0.30925  0.85779  0.82979  1.0000
  C   C348      1.0  0.33301  0.84931  0.82319  1.0000
  C   C349      1.0  0.34204  0.82646  0.83226  1.0000
  H   H548      1.0  0.29108  0.80818  0.86425  1.0000
  C   C350      1.0  0.44415  0.88082  0.59723  1.0000
  H   H549      1.0  0.34477  0.86078  0.81184  1.0000
  H   H550      1.0  0.36076  0.82038  0.82777  1.0000
  S   S139      1.0  0.26635  0.70430  0.89168  1.0000
  Fe  Fe71      1.0  0.50631  0.92051  0.59590  1.0000
  Fe  Fe72      1.0  0.49121  0.90011  0.64618  1.0000
  C   C351      1.0  0.42532  0.91909  0.58283  1.0000
  H   H551      1.0  0.28015  0.80971  0.76308  1.0000
  N   N34       1.0  0.33813  0.80012  0.93567  1.0000
  C   C352      1.0  0.36834  0.99347  0.74482  1.0000
  H   H552      1.0  0.36047  0.83167  0.92658  1.0000
  H   H553      1.0  0.27585  0.84936  0.84987  1.0000
  S   S140      1.0  0.29553  0.71737  0.95658  1.0000
  H   H554      1.0  0.37777  0.80325  0.93168  1.0000
  C   C353      1.0  0.29171  0.73439  0.98433  1.0000
  Fe  Fe73      1.0  0.29075  0.72756  0.91608  1.0000
  N   N35       1.0  0.42136  0.89646  0.59769  1.0000
  C   C354      1.0  0.40045  0.88238  0.58723  1.0000
  H   H555      1.0  0.26089  0.76896  0.79734  1.0000
  H   H556      1.0  0.44930  0.87533  0.57808  1.0000
  C   C355      1.0  0.33827  0.80526  0.96246  1.0000
  H   H557      1.0  0.32189  0.79695  0.97173  1.0000
  H   H558      1.0  0.35519  0.79730  0.97147  1.0000
  H   H559      1.0  0.41263  0.88679  0.63522  1.0000
  S   S141      1.0  0.48742  0.92182  0.55849  1.0000
  H   H560      1.0  0.36045  0.80767  0.90368  1.0000
  H   H561      1.0  0.44203  0.86371  0.60853  1.0000
  H   H562      1.0  0.31475  0.80728  0.90426  1.0000
  S   S142      1.0  0.28038  0.86693  0.70587  1.0000
  H   H563      1.0  0.44092  0.93024  0.59023  1.0000
  C   C356      1.0  0.31537  0.81095  0.92448  1.0000
  S   S143      1.0  0.28003  0.76323  0.89702  1.0000
  H   H564      1.0  0.31642  0.99621  0.77856  1.0000
  H   H565      1.0  0.43031  0.91448  0.56339  1.0000
  H   H566      1.0  0.26385  0.68313  0.82785  1.0000
  H   H567      1.0  0.29828  0.80299  0.93274  1.0000
  C   C357      1.0  0.49264  0.00295  0.61685  1.0000
  C   C358      1.0  0.33864  0.77300  0.93161  1.0000
  H   H568      1.0  0.33772  0.82556  0.96624  1.0000
  H   H569      1.0  0.33924  0.76859  0.91157  1.0000
  C   C359      1.0  0.36021  0.81119  0.92398  1.0000
  H   H570      1.0  0.43095  0.91398  0.63205  1.0000
  C   C360      1.0  0.41552  0.90346  0.62346  1.0000
  H   H571      1.0  0.40850  0.93131  0.58254  1.0000
  H   H572      1.0  0.31441  0.83143  0.92695  1.0000
  C   C361      1.0  0.50453  0.92047  0.53069  1.0000
  H   H573      1.0  0.26330  0.94295  0.71009  1.0000
  H   H574      1.0  0.46026  0.89088  0.60492  1.0000
  C   C362      1.0  0.49754  0.00876  0.64155  1.0000
  H   H575      1.0  0.47340  0.93313  0.50876  1.0000
  H   H576      1.0  0.49797  0.98502  0.60948  1.0000
  H   H577      1.0  0.37812  0.99176  0.68287  1.0000
  C   C363      1.0  0.49256  0.92675  0.50846  1.0000
  H   H578      1.0  0.26922  0.83748  0.79721  1.0000
  H   H579      1.0  0.28091  0.79371  0.80673  1.0000
  H   H580      1.0  0.36343  0.96907  0.70223  1.0000
  N   N36       1.0  0.36990  0.00419  0.71977  1.0000
  C   C364      1.0  0.37702  0.98450  0.70204  1.0000
  H   H581      1.0  0.36340  0.00781  0.75881  1.0000
  H   H582      1.0  0.33065  0.00058  0.71320  1.0000
  H   H583      1.0  0.29989  0.70232  0.00681  1.0000
  H   H584      1.0  0.50195  0.84316  0.69961  1.0000
  C   C365      1.0  0.26112  0.78847  0.80405  1.0000
  C   C366      1.0  0.54515  0.05059  0.43718  1.0000
  Fe  Fe74      1.0  0.51443  0.12235  0.40858  1.0000
  C   C367      1.0  0.72956  0.09066  0.18498  1.0000
  S   S144      1.0  0.51841  0.16270  0.39978  1.0000
  Fe  Fe75      1.0  0.71371  0.29363  0.13314  1.0000
  S   S145      1.0  0.69146  0.26131  0.14702  1.0000
  C   C368      1.0  0.73296  0.29625  0.02299  1.0000
  Fe  Fe76      1.0  0.72756  0.15381  0.23079  1.0000
  S   S146      1.0  0.70512  0.17841  0.25574  1.0000
  H   H585      1.0  0.65503  0.02318  0.33093  1.0000
  Fe  Fe77      1.0  0.73211  0.11247  0.26935  1.0000
  S   S147      1.0  0.71100  0.13442  0.29804  1.0000
  S   S148      1.0  0.72838  0.31880  0.16245  1.0000
  Fe  Fe78      1.0  0.68518  0.14371  0.26672  1.0000
  S   S149      1.0  0.64343  0.14000  0.26781  1.0000
  S   S150      1.0  0.70507  0.11992  0.23869  1.0000
  S   S151      1.0  0.74947  0.07468  0.27722  1.0000
  H   H586      1.0  0.60710  0.19507  0.30176  1.0000
  H   H587      1.0  0.64860  0.19120  0.28131  1.0000
  H   H588      1.0  0.52928  0.15411  0.45502  1.0000
  H   H589      1.0  0.51793  0.02411  0.32561  1.0000
  Fe  Fe79      1.0  0.73240  0.32620  0.09093  1.0000
  Fe  Fe80      1.0  0.54402  0.14940  0.36937  1.0000
  S   S152      1.0  0.58160  0.16675  0.36370  1.0000
  S   S153      1.0  0.54227  0.10931  0.38044  1.0000
  C   C369      1.0  0.62738  0.14430  0.29590  1.0000
  C   C370      1.0  0.60183  0.13940  0.29678  1.0000
  C   C371      1.0  0.58785  0.14517  0.31797  1.0000
  C   C372      1.0  0.59927  0.15633  0.33826  1.0000
  C   C373      1.0  0.62492  0.16082  0.33756  1.0000
  C   C374      1.0  0.63902  0.15456  0.31655  1.0000
  H   H590      1.0  0.59272  0.13143  0.28088  1.0000
  H   H591      1.0  0.56810  0.14164  0.31834  1.0000
  H   H592      1.0  0.63384  0.16940  0.35325  1.0000
  H   H593      1.0  0.65871  0.15838  0.31609  1.0000
  C   C375      1.0  0.70863  0.02550  0.23768  1.0000
  H   H594      1.0  0.61869  0.20000  0.23477  1.0000
  Fe  Fe81      1.0  0.73299  0.16710  0.28463  1.0000
  H   H595      1.0  0.65662  0.21190  0.25694  1.0000
  H   H596      1.0  0.65195  0.02630  0.29806  1.0000
  H   H597      1.0  0.60953  0.17995  0.25933  1.0000
  S   S154      1.0  0.74868  0.19863  0.30689  1.0000
  C   C376      1.0  0.73780  0.04727  0.26397  1.0000
  C   C377      1.0  0.71731  0.04771  0.24805  1.0000
  S   S155      1.0  0.74284  0.16576  0.19391  1.0000
  H   H598      1.0  0.70802  0.06510  0.24386  1.0000
  C   C378      1.0  0.70680  0.23583  0.16098  1.0000
  C   C379      1.0  0.69378  0.22136  0.17803  1.0000
  C   C380      1.0  0.70499  0.20024  0.18869  1.0000
  C   C381      1.0  0.72909  0.19307  0.18186  1.0000
  S   S156      1.0  0.74876  0.29284  0.11051  1.0000
  C   C382      1.0  0.73120  0.22908  0.15466  1.0000
  H   H599      1.0  0.67484  0.22637  0.18278  1.0000
  H   H600      1.0  0.69461  0.18902  0.20149  1.0000
  C   C383      1.0  0.69853  0.01153  0.30911  1.0000
  C   C384      1.0  0.60856  0.19947  0.25267  1.0000
  C   C385      1.0  0.73513  0.32210  0.02334  1.0000
  H   H601      1.0  0.53225  0.03822  0.39034  1.0000
  H   H602      1.0  0.58862  0.20388  0.24907  1.0000
  H   H603      1.0  0.62493  0.25589  0.27501  1.0000
  H   H604      1.0  0.65482  0.22294  0.28828  1.0000
  C   C386      1.0  0.64601  0.21050  0.27451  1.0000
  H   H605      1.0  0.75320  0.09026  0.22824  1.0000
  H   H606      1.0  0.71806  0.08245  0.19990  1.0000
  H   H607      1.0  0.61407  0.22656  0.30911  1.0000
  H   H608      1.0  0.59706  0.24776  0.25875  1.0000
  H   H609      1.0  0.69277  0.02596  0.22537  1.0000
  C   C387      1.0  0.65384  0.01257  0.31335  1.0000
  H   H610      1.0  0.58595  0.21921  0.29272  1.0000
  C   C388      1.0  0.52263  0.16136  0.49372  1.0000
  C   C389      1.0  0.53403  0.02291  0.40408  1.0000
  H   H611      1.0  0.56455  0.04322  0.43784  1.0000
  S   S157      1.0  0.69595  0.32461  0.11110  1.0000
  H   H612      1.0  0.70101  0.02224  0.32648  1.0000
  C   C390      1.0  0.74936  0.02445  0.26960  1.0000
  H   H613      1.0  0.74122  0.23998  0.14128  1.0000
  H   H614      1.0  0.62676  0.24476  0.24377  1.0000
  H   H615      1.0  0.73092  0.28618  0.04012  1.0000
  H   H616      1.0  0.52997  0.17994  0.49308  1.0000
  C   C391      1.0  0.61691  0.24243  0.26169  1.0000
  S   S158      1.0  0.51375  0.14730  0.34076  1.0000
  C   C392      1.0  0.74219  0.20755  0.16485  1.0000
  N   N37       1.0  0.61938  0.21670  0.27089  1.0000
  C   C393      1.0  0.60605  0.21439  0.29463  1.0000
  H   H617      1.0  0.72548  0.11102  0.18459  1.0000
  C   C394      1.0  0.52213  0.14681  0.47215  1.0000
  H   H618      1.0  0.69779  0.02515  0.29367  1.0000
  C   C395      1.0  0.52858  0.01016  0.44643  1.0000
  H   H619      1.0  0.54483  0.06679  0.42439  1.0000
  H   H620      1.0  0.72305  0.08275  0.16718  1.0000
  H   H621      1.0  0.75037  0.05009  0.20610  1.0000
  H   H622      1.0  0.52380  0.01597  0.46559  1.0000
  H   H623      1.0  0.75388  0.22426  0.22531  1.0000
  S   S159      1.0  0.73604  0.33936  0.05117  1.0000
  N   N38       1.0  0.52745  0.03143  0.42920  1.0000
  H   H624      1.0  0.54042  0.05789  0.45586  1.0000
  H   H625      1.0  0.75337  0.26871  0.23765  1.0000
  S   S160      1.0  0.75655  0.14438  0.25907  1.0000
  H   H626      1.0  0.55344  0.01556  0.40325  1.0000
  H   H627      1.0  0.75469  0.04896  0.17326  1.0000
  N   N39       1.0  0.75633  0.08557  0.18905  1.0000
  H   H628      1.0  0.75507  0.25756  0.19347  1.0000
  C   C396      1.0  0.51267  0.12277  0.47292  1.0000
  S   S161      1.0  0.70645  0.07468  0.71077  1.0000
  Fe  Fe82      1.0  0.71921  0.30023  0.86073  1.0000
  S   S162      1.0  0.69609  0.27961  0.83266  1.0000
  C   C397      1.0  0.56194  0.04104  0.64909  1.0000
  H   H629      1.0  0.68876  0.01635  0.76047  1.0000
  S   S163      1.0  0.70351  0.31645  0.89592  1.0000
  H   H630      1.0  0.59163  0.06946  0.62144  1.0000
  H   H631      1.0  0.56760  0.17452  0.69793  1.0000
  H   H632      1.0  0.73970  0.33222  0.96117  1.0000
  H   H633      1.0  0.54917  0.05260  0.58863  1.0000
  H   H634      1.0  0.73966  0.20486  0.90830  1.0000
  H   H635      1.0  0.54338  0.19172  0.66238  1.0000
  H   H636      1.0  0.70107  0.18730  0.89023  1.0000
  Fe  Fe83      1.0  0.53229  0.12654  0.62278  1.0000
  S   S164      1.0  0.56693  0.11233  0.64255  1.0000
  S   S165      1.0  0.52278  0.11297  0.58476  1.0000
  Fe  Fe84      1.0  0.71659  0.16039  0.75504  1.0000
  S   S166      1.0  0.71288  0.18772  0.72406  1.0000
  S   S167      1.0  0.72911  0.17342  0.79275  1.0000
  Fe  Fe85      1.0  0.71001  0.11539  0.72123  1.0000
  S   S168      1.0  0.70632  0.13985  0.68772  1.0000
  C   C398      1.0  0.54646  0.05313  0.60898  1.0000
  Fe  Fe86      1.0  0.68143  0.16361  0.71113  1.0000
  S   S169      1.0  0.64625  0.18092  0.69513  1.0000
  S   S170      1.0  0.68301  0.13811  0.74403  1.0000
  C   C399      1.0  0.73792  0.32207  0.97829  1.0000
  S   S171      1.0  0.51875  0.16546  0.61576  1.0000
  H   H637      1.0  0.67586  0.21988  0.93043  1.0000
  C   C400      1.0  0.58955  0.13174  0.65580  1.0000
  C   C401      1.0  0.60849  0.12097  0.67028  1.0000
  C   C402      1.0  0.62632  0.13584  0.68192  1.0000
  C   C403      1.0  0.62523  0.16164  0.67931  1.0000
  C   C404      1.0  0.60649  0.17240  0.66452  1.0000
  C   C405      1.0  0.58878  0.15749  0.65267  1.0000
  H   H638      1.0  0.60930  0.10106  0.67267  1.0000
  H   H639      1.0  0.64072  0.12737  0.69322  1.0000
  H   H640      1.0  0.60577  0.19233  0.66219  1.0000
  H   H641      1.0  0.57466  0.16588  0.64103  1.0000
  Fe  Fe87      1.0  0.73793  0.16137  0.70361  1.0000
  C   C406      1.0  0.71733  0.02519  0.71338  1.0000
  C   C407      1.0  0.71956  0.04822  0.72523  1.0000
  C   C408      1.0  0.73203  0.04946  0.74785  1.0000
  S   S172      1.0  0.74371  0.13517  0.73518  1.0000
  C   C409      1.0  0.52447  0.15300  0.68697  1.0000
  C   C410      1.0  0.56546  0.01272  0.61470  1.0000
  C   C411      1.0  0.59064  0.04953  0.61603  1.0000
  C   C412      1.0  0.55162  0.17984  0.70993  1.0000
  C   C413      1.0  0.70649  0.25086  0.82049  1.0000
  C   C414      1.0  0.72765  0.23873  0.82980  1.0000
  H   H642      1.0  0.53929  0.14774  0.67358  1.0000
  C   C415      1.0  0.72052  0.20353  0.80252  1.0000
  C   C416      1.0  0.69993  0.21603  0.79247  1.0000
  C   C417      1.0  0.69279  0.23950  0.80165  1.0000
  H   H643      1.0  0.54357  0.03346  0.65437  1.0000
  H   H644      1.0  0.67557  0.25137  0.89686  1.0000
  H   H645      1.0  0.68911  0.20735  0.77808  1.0000
  H   H646      1.0  0.67644  0.24879  0.79423  1.0000
  H   H647      1.0  0.56831  0.01054  0.59447  1.0000
  H   H648      1.0  0.73867  0.24746  0.84384  1.0000
  N   N40       1.0  0.70493  0.22464  0.90369  1.0000
  C   C418      1.0  0.74199  0.02768  0.75856  1.0000
  H   H649      1.0  0.74509  0.10080  0.68276  1.0000
  H   H650      1.0  0.70794  0.02415  0.69574  1.0000
  H   H651      1.0  0.75052  0.20552  0.82878  1.0000
  H   H652      1.0  0.65012  0.02955  0.74052  1.0000
  H   H653      1.0  0.54595  0.07292  0.61473  1.0000
  S   S173      1.0  0.73658  0.27963  0.94958  1.0000
  H   H654      1.0  0.67394  0.20682  0.88626  1.0000
  H   H655      1.0  0.70261  0.19991  0.93474  1.0000
  H   H656      1.0  0.70323  0.26390  0.91023  1.0000
  C   C419      1.0  0.73588  0.29624  0.97784  1.0000
  H   H657      1.0  0.75638  0.22749  0.77108  1.0000
  C   C420      1.0  0.69463  0.20654  0.88602  1.0000
  C   C421      1.0  0.73766  0.33487  0.00091  1.0000
  H   H658      1.0  0.70418  0.23226  0.94262  1.0000
  H   H659      1.0  0.74076  0.23737  0.91553  1.0000
  H   H660      1.0  0.75215  0.05607  0.68446  1.0000
  H   H661      1.0  0.57635  0.03058  0.65969  1.0000
  C   C422      1.0  0.73442  0.21501  0.82113  1.0000
  N   N41       1.0  0.56614  0.03908  0.62219  1.0000
  C   C423      1.0  0.69622  0.24985  0.89698  1.0000
  H   H662      1.0  0.55509  0.19894  0.71682  1.0000
  H   H663      1.0  0.73379  0.06710  0.75720  1.0000
  C   C424      1.0  0.51378  0.15191  0.51616  1.0000
  H   H664      1.0  0.75575  0.27256  0.76054  1.0000
  H   H665      1.0  0.59436  0.04852  0.59585  1.0000
  S   S174      1.0  0.73844  0.33534  0.84981  1.0000
  H   H666      1.0  0.53028  0.21550  0.68179  1.0000
  H   H667      1.0  0.56222  0.06071  0.65537  1.0000
  C   C425      1.0  0.73240  0.22349  0.90283  1.0000
  H   H668      1.0  0.52782  0.04553  0.61286  1.0000
  C   C426      1.0  0.69649  0.21884  0.92897  1.0000
  H   H669      1.0  0.70272  0.25514  0.87827  1.0000
  H   H670      1.0  0.55202  0.16704  0.72604  1.0000
  H   H671      1.0  0.60597  0.03950  0.62576  1.0000
  H   H672      1.0  0.70042  0.21077  0.86672  1.0000
  Fe  Fe88      1.0  0.73840  0.30158  0.91375  1.0000
  H   H673      1.0  0.73944  0.22739  0.88395  1.0000
  S   S175      1.0  0.75240  0.28289  0.87918  1.0000
  H   H674      1.0  0.75147  0.02865  0.77617  1.0000
  H   H675      1.0  0.52493  0.13906  0.70210  1.0000
  H   H676      1.0  0.73178  0.26340  0.00013  1.0000
  H   H677      1.0  0.63370  0.02236  0.76842  1.0000
  C   C427      1.0  0.73344  0.28338  0.00030  1.0000
  S   S176      1.0  0.76039  0.33583  0.90676  1.0000
  N   N42       1.0  0.52779  0.17847  0.69639  1.0000
  C   C428      1.0  0.52796  0.19605  0.67544  1.0000
  C   C429      1.0  0.64048  0.01445  0.75064  1.0000
  S   S177      1.0  0.51339  0.17089  0.54269  1.0000
  S   S178      1.0  0.69056  0.38046  0.15618  1.0000
  Fe  Fe89      1.0  0.62997  0.52232  0.07668  1.0000
  S   S179      1.0  0.66814  0.53675  0.08356  1.0000
  S   S180      1.0  0.61651  0.50409  0.04209  1.0000
  Fe  Fe90      1.0  0.61144  0.53679  0.12754  1.0000
  S   S181      1.0  0.64880  0.55140  0.13933  1.0000
  S   S182      1.0  0.57677  0.54216  0.15071  1.0000
  Fe  Fe91      1.0  0.64928  0.56920  0.10187  1.0000
  S   S183      1.0  0.65588  0.60963  0.09277  1.0000
  Fe  Fe92      1.0  0.66446  0.51742  0.12008  1.0000
  S   S184      1.0  0.69854  0.49408  0.12907  1.0000
  S   S185      1.0  0.61119  0.55639  0.09123  1.0000
  S   S186      1.0  0.62710  0.50116  0.11210  1.0000
  C   C430      1.0  0.54860  0.53699  0.13482  1.0000
  C   C431      1.0  0.54876  0.52619  0.11139  1.0000
  H   H678      1.0  0.68283  0.47010  0.08332  1.0000
  H   H679      1.0  0.56619  0.52075  0.10289  1.0000
  C   C432      1.0  0.74459  0.41495  0.23018  1.0000
  C   C433      1.0  0.67607  0.62816  0.11032  1.0000
  C   C434      1.0  0.67874  0.65322  0.10392  1.0000
  H   H680      1.0  0.74920  0.41582  0.16767  1.0000
  H   H681      1.0  0.66826  0.66084  0.08857  1.0000
  C   C435      1.0  0.70565  0.63384  0.14367  1.0000
  C   C436      1.0  0.68951  0.61849  0.13029  1.0000
  H   H682      1.0  0.61796  0.61621  0.14813  1.0000
  H   H683      1.0  0.74937  0.63471  0.11007  1.0000
  H   H684      1.0  0.71612  0.62623  0.15905  1.0000
  H   H685      1.0  0.68755  0.59921  0.13539  1.0000
  C   C437      1.0  0.69145  0.41120  0.14525  1.0000
  C   C438      1.0  0.71189  0.41994  0.13207  1.0000
  C   C439      1.0  0.71379  0.44543  0.12694  1.0000
  C   C440      1.0  0.69477  0.46207  0.13400  1.0000
  C   C441      1.0  0.67369  0.45307  0.14587  1.0000
  C   C442      1.0  0.67226  0.42777  0.15187  1.0000
  H   H686      1.0  0.72672  0.40727  0.12680  1.0000
  H   H687      1.0  0.73011  0.45233  0.11767  1.0000
  H   H688      1.0  0.65903  0.46580  0.15150  1.0000
  H   H689      1.0  0.65643  0.42111  0.16213  1.0000
  H   H690      1.0  0.52555  0.55250  0.16365  1.0000
  H   H691      1.0  0.60905  0.58790  0.13371  1.0000
  H   H692      1.0  0.72422  0.41873  0.23155  1.0000
  H   H693      1.0  0.64506  0.42526  0.03049  1.0000
  H   H694      1.0  0.66700  0.52116  0.03478  1.0000
  C   C443      1.0  0.67605  0.46829  0.06402  1.0000
  H   H695      1.0  0.55332  0.59345  0.14141  1.0000
  N   N43       1.0  0.66302  0.44464  0.06018  1.0000
  Fe  Fe93      1.0  0.71360  0.34984  0.13869  1.0000
  H   H696      1.0  0.64647  0.44565  0.09630  1.0000
  H   H697      1.0  0.69700  0.42393  0.05437  1.0000
  H   H698      1.0  0.56495  0.63303  0.16170  1.0000
  H   H699      1.0  0.64198  0.45840  0.02915  1.0000
  H   H700      1.0  0.74214  0.37334  0.18309  1.0000
  C   C444      1.0  0.68001  0.42366  0.06607  1.0000
  C   C445      1.0  0.52628  0.52201  0.09895  1.0000
  N   N44       1.0  0.58253  0.61760  0.12950  1.0000
  C   C446      1.0  0.60177  0.60423  0.14398  1.0000
  C   C447      1.0  0.56173  0.60073  0.12413  1.0000
  C   C448      1.0  0.59343  0.62635  0.10607  1.0000
  C   C449      1.0  0.57322  0.63908  0.14388  1.0000
  C   C450      1.0  0.73810  0.38121  0.20169  1.0000
  H   H701      1.0  0.59423  0.59707  0.16170  1.0000
  H   H702      1.0  0.52662  0.51333  0.08092  1.0000
  C   C451      1.0  0.74388  0.42272  0.18631  1.0000
  H   H703      1.0  0.63092  0.42607  0.07444  1.0000
  H   H704      1.0  0.67088  0.40547  0.06313  1.0000
  H   H705      1.0  0.71754  0.38392  0.20276  1.0000
  H   H706      1.0  0.74346  0.36702  0.21568  1.0000
  H   H707      1.0  0.62766  0.45919  0.07226  1.0000
  H   H708      1.0  0.72624  0.67186  0.07426  1.0000
  H   H709      1.0  0.66348  0.48442  0.06044  1.0000
  C   C452      1.0  0.70855  0.65884  0.13710  1.0000
  H   H710      1.0  0.54675  0.61011  0.11331  1.0000
  H   H711      1.0  0.60043  0.61056  0.09467  1.0000
  H   H712      1.0  0.74975  0.40177  0.24524  1.0000
  C   C453      1.0  0.52578  0.54401  0.14555  1.0000
  H   H713      1.0  0.56810  0.58427  0.11330  1.0000
  S   S187      1.0  0.74905  0.35363  0.11751  1.0000
  H   H714      1.0  0.67101  0.44382  0.02124  1.0000
  C   C454      1.0  0.65494  0.44289  0.03414  1.0000
  H   H715      1.0  0.55860  0.64959  0.13355  1.0000
  C   C455      1.0  0.64105  0.44380  0.07652  1.0000
  H   H716      1.0  0.75431  0.43268  0.23386  1.0000
  H   H717      1.0  0.68610  0.42427  0.08570  1.0000
  H   H718      1.0  0.58849  0.65214  0.14822  1.0000
  C   C456      1.0  0.75117  0.63168  0.08978  1.0000
  H   H719      1.0  0.73216  0.62766  0.08271  1.0000
  C   C457      1.0  0.63361  0.51104  0.01548  1.0000
  H   H720      1.0  0.72336  0.42600  0.18614  1.0000
  C   C458      1.0  0.65828  0.51881  0.01709  1.0000
  H   H721      1.0  0.69236  0.47003  0.05156  1.0000
  H   H722      1.0  0.57958  0.63679  0.09473  1.0000
  H   H723      1.0  0.60961  0.63862  0.10939  1.0000
  C   C459      1.0  0.69484  0.66855  0.11731  1.0000
  N   N45       1.0  0.75127  0.40478  0.20569  1.0000
  H   H724      1.0  0.74601  0.64515  0.04210  1.0000
  H   H725      1.0  0.75284  0.44102  0.18897  1.0000
  C   C460      1.0  0.74532  0.67524  0.08137  1.0000
  S   S188      1.0  0.71713  0.38943  0.89760  1.0000
  Fe  Fe94      1.0  0.64183  0.50187  0.86341  1.0000
  S   S189      1.0  0.62858  0.49448  0.90175  1.0000
  S   S190      1.0  0.64931  0.46764  0.84040  1.0000
  Fe  Fe95      1.0  0.63745  0.55793  0.86989  1.0000
  S   S191      1.0  0.62298  0.55437  0.90852  1.0000
  S   S192      1.0  0.64122  0.59761  0.85691  1.0000
  Fe  Fe96      1.0  0.65309  0.52570  0.91261  1.0000
  S   S193      1.0  0.67808  0.52608  0.94569  1.0000
  Fe  Fe97      1.0  0.59956  0.52366  0.89367  1.0000
  S   S194      1.0  0.56148  0.51462  0.90850  1.0000
  S   S195      1.0  0.66920  0.53088  0.87492  1.0000
  S   S196      1.0  0.61125  0.52946  0.85437  1.0000
  C   C461      1.0  0.63616  0.51275  0.97079  1.0000
  C   C462      1.0  0.66094  0.52011  0.97242  1.0000
  C   C463      1.0  0.60079  0.43454  0.87049  1.0000
  H   H726      1.0  0.62737  0.51067  0.95300  1.0000
  H   H727      1.0  0.70386  0.59632  0.91377  1.0000
  C   C464      1.0  0.53357  0.51816  0.89167  1.0000
  H   H728      1.0  0.58399  0.46803  0.83814  1.0000
  C   C465      1.0  0.53316  0.52718  0.86746  1.0000
  H   H729      1.0  0.55676  0.41176  0.86743  1.0000
  H   H730      1.0  0.55030  0.53255  0.85863  1.0000
  C   C466      1.0  0.67025  0.61156  0.86161  1.0000
  C   C467      1.0  0.69222  0.59742  0.86179  1.0000
  C   C468      1.0  0.71519  0.60895  0.86557  1.0000
  C   C469      1.0  0.71628  0.63456  0.86982  1.0000
  C   C470      1.0  0.69429  0.64869  0.86994  1.0000
  C   C471      1.0  0.67138  0.63729  0.86530  1.0000
  H   H731      1.0  0.69161  0.57766  0.85851  1.0000
  H   H732      1.0  0.73217  0.59793  0.86530  1.0000
  H   H733      1.0  0.70485  0.57320  0.93761  1.0000
  H   H734      1.0  0.65439  0.64829  0.86526  1.0000
  C   C472      1.0  0.69769  0.41024  0.88123  1.0000
  C   C473      1.0  0.68656  0.40400  0.85874  1.0000
  C   C474      1.0  0.67183  0.42173  0.84609  1.0000
  C   C475      1.0  0.66816  0.44562  0.85594  1.0000
  C   C476      1.0  0.67936  0.45173  0.87836  1.0000
  C   C477      1.0  0.69409  0.43414  0.89090  1.0000
  H   H735      1.0  0.68927  0.38561  0.85113  1.0000
  H   H736      1.0  0.66321  0.41692  0.82871  1.0000
  H   H737      1.0  0.67689  0.47011  0.88603  1.0000
  H   H738      1.0  0.70272  0.43912  0.90823  1.0000
  H   H739      1.0  0.70635  0.65103  0.81912  1.0000
  H   H740      1.0  0.70513  0.63039  0.94342  1.0000
  C   C478      1.0  0.71694  0.66678  0.81126  1.0000
  C   C479      1.0  0.65984  0.61697  0.92772  1.0000
  H   H741      1.0  0.65177  0.59881  0.97335  1.0000
  C   C480      1.0  0.55793  0.43006  0.85802  1.0000
  H   H742      1.0  0.66999  0.62938  0.91495  1.0000
  H   H743      1.0  0.53891  0.43852  0.85785  1.0000
  C   C481      1.0  0.66321  0.58703  0.96076  1.0000
  Fe  Fe98      1.0  0.72627  0.34986  0.88679  1.0000
  H   H744      1.0  0.56632  0.43320  0.90680  1.0000
  H   H745      1.0  0.56344  0.42660  0.83850  1.0000
  C   C482      1.0  0.69413  0.61882  0.95641  1.0000
  H   H746      1.0  0.60354  0.50191  0.99095  1.0000
  H   H747      1.0  0.58930  0.48338  0.86687  1.0000
  H   H748      1.0  0.64779  0.60495  0.91615  1.0000
  N   N46       1.0  0.57583  0.44641  0.87052  1.0000
  H   H749      1.0  0.72794  0.65945  0.79543  1.0000
  S   S197      1.0  0.74546  0.64828  0.87426  1.0000
  C   C483      1.0  0.69220  0.58556  0.92674  1.0000
  C   C484      1.0  0.56772  0.45082  0.89625  1.0000
  H   H750      1.0  0.58099  0.46292  0.90630  1.0000
  H   H751      1.0  0.54927  0.46047  0.89695  1.0000
  H   H752      1.0  0.70758  0.60812  0.96801  1.0000
  H   H753      1.0  0.68355  0.63168  0.96872  1.0000
  H   H754      1.0  0.67582  0.57532  0.97235  1.0000
  H   H755      1.0  0.65042  0.57413  0.95119  1.0000
  C   C485      1.0  0.57681  0.47034  0.85729  1.0000
  H   H756      1.0  0.75139  0.40646  0.82234  1.0000
  H   H757      1.0  0.74111  0.42213  0.84993  1.0000
  H   H758      1.0  0.55818  0.47955  0.85634  1.0000
  C   C486      1.0  0.62264  0.50786  0.99230  1.0000
  N   N47       1.0  0.67732  0.60208  0.94292  1.0000
  H   H759      1.0  0.69495  0.66837  0.87349  1.0000
  H   H760      1.0  0.60086  0.41639  0.88026  1.0000
  H   H761      1.0  0.61477  0.44643  0.87975  1.0000
  H   H762      1.0  0.60770  0.43131  0.85136  1.0000
  H   H763      1.0  0.64746  0.62884  0.93931  1.0000
  H   H764      1.0  0.68011  0.57330  0.91549  1.0000
  H   H765      1.0  0.69117  0.52884  0.99687  1.0000
  C   C487      1.0  0.67201  0.52311  0.99557  1.0000
  H   H766      1.0  0.74192  0.38907  0.84886  1.0000
  C   C488      1.0  0.75200  0.40589  0.84286  1.0000
  H   H767      1.0  0.73933  0.35486  0.00097  1.0000
  H   H768      1.0  0.67044  0.66317  0.79373  1.0000
  H   H769      1.0  0.69116  0.67066  0.76891  1.0000
  H   H770      1.0  0.73040  0.67272  0.82568  1.0000
  C   C489      1.0  0.51121  0.51132  0.90293  1.0000
  H   H771      1.0  0.51140  0.50432  0.92166  1.0000
  C   C490      1.0  0.72004  0.00265  0.24355  1.0000
  S   S198      1.0  0.73053  0.73372  0.10496  1.0000
  H   H772      1.0  0.68030  0.98799  0.34847  1.0000
  H   H773      1.0  0.74378  0.67980  0.10133  1.0000
  Fe  Fe99      1.0  0.74404  0.71379  0.13909  1.0000
  H   H774      1.0  0.65815  0.87992  0.28886  1.0000
  Fe  Fe100     1.0  0.73716  0.76841  0.12717  1.0000
  S   S199      1.0  0.71674  0.80512  0.12530  1.0000
  Fe  Fe101     1.0  0.70392  0.88231  0.24554  1.0000
  S   S200      1.0  0.72150  0.87454  0.28225  1.0000
  S   S201      1.0  0.68676  0.84746  0.23050  1.0000
  Fe  Fe102     1.0  0.71617  0.93786  0.24868  1.0000
  S   S202      1.0  0.73499  0.93353  0.28546  1.0000
  S   S203      1.0  0.70815  0.97514  0.23069  1.0000
  Fe  Fe103     1.0  0.70212  0.90960  0.29469  1.0000
  S   S204      1.0  0.68040  0.91098  0.33068  1.0000
  S   S205      1.0  0.68253  0.91574  0.25881  1.0000
  C   C491      1.0  0.73666  0.78449  0.05872  1.0000
  H   H775      1.0  0.74953  0.98473  0.26401  1.0000
  N   N48       1.0  0.67590  0.99629  0.30982  1.0000
  C   C492      1.0  0.61824  0.83194  0.28559  1.0000
  H   H776      1.0  0.61687  0.86539  0.32312  1.0000
  H   H777      1.0  0.67831  0.84122  0.30259  1.0000
  Fe  Fe104     1.0  0.53666  0.92448  0.36513  1.0000
  S   S206      1.0  0.56285  0.92671  0.33234  1.0000
  S   S207      1.0  0.53557  0.95212  0.39630  1.0000
  C   C493      1.0  0.75558  0.83355  0.23599  1.0000
  H   H778      1.0  0.53807  0.85315  0.47030  1.0000
  H   H779      1.0  0.51527  0.99545  0.44094  1.0000
  H   H780      1.0  0.68985  0.97025  0.28296  1.0000
  C   C494      1.0  0.64781  0.91636  0.33138  1.0000
  C   C495      1.0  0.63464  0.91282  0.35348  1.0000
  C   C496      1.0  0.60859  0.91616  0.35429  1.0000
  C   C497      1.0  0.59557  0.92316  0.33296  1.0000
  C   C498      1.0  0.60883  0.92705  0.31103  1.0000
  C   C499      1.0  0.63478  0.92382  0.31027  1.0000
  H   H781      1.0  0.64458  0.90725  0.37000  1.0000
  H   H782      1.0  0.59857  0.91319  0.37133  1.0000
  H   H783      1.0  0.59889  0.93258  0.29449  1.0000
  H   H784      1.0  0.64457  0.92697  0.29325  1.0000
  H   H785      1.0  0.62186  0.82678  0.26598  1.0000
  C   C500      1.0  0.52991  0.91643  0.48520  1.0000
  H   H786      1.0  0.60059  0.84301  0.28606  1.0000
  C   C501      1.0  0.70893  0.81697  0.15465  1.0000
  C   C502      1.0  0.71114  0.84241  0.15960  1.0000
  C   C503      1.0  0.70507  0.85196  0.18306  1.0000
  C   C504      1.0  0.69592  0.83618  0.20133  1.0000
  C   C505      1.0  0.69348  0.81082  0.19627  1.0000
  C   C506      1.0  0.70035  0.80117  0.17315  1.0000
  H   H787      1.0  0.71771  0.85473  0.14533  1.0000
  H   H788      1.0  0.70682  0.87159  0.18676  1.0000
  H   H789      1.0  0.69837  0.78157  0.16942  1.0000
  H   H790      1.0  0.63011  0.83633  0.33344  1.0000
  C   C507      1.0  0.74580  0.73044  0.02910  1.0000
  Fe  Fe105     1.0  0.75225  0.89874  0.26899  1.0000
  H   H791      1.0  0.62558  0.88086  0.28140  1.0000
  H   H792      1.0  0.69658  0.68789  0.11238  1.0000
  C   C508      1.0  0.74043  0.00219  0.25957  1.0000
  H   H793      1.0  0.65664  0.97083  0.28617  1.0000
  H   H794      1.0  0.73520  0.73019  0.04603  1.0000
  H   H795      1.0  0.61515  0.81450  0.29608  1.0000
  C   C509      1.0  0.66216  0.83085  0.29512  1.0000
  H   H796      1.0  0.66036  0.81353  0.30608  1.0000
  H   H797      1.0  0.66694  0.82549  0.27581  1.0000
  C   C510      1.0  0.64259  0.86886  0.28132  1.0000
  H   H798      1.0  0.64705  0.86452  0.26171  1.0000
  S   S208      1.0  0.54580  0.91192  0.45696  1.0000
  Fe  Fe106     1.0  0.52693  0.91916  0.42019  1.0000
  N   N49       1.0  0.63911  0.84611  0.29600  1.0000
  S   S209      1.0  0.73547  0.90485  0.23134  1.0000
  C   C511      1.0  0.63357  0.85297  0.32187  1.0000
  H   H799      1.0  0.64935  0.86311  0.33039  1.0000
  H   H800      1.0  0.68630  0.79855  0.21028  1.0000
  C   C512      1.0  0.73146  0.82428  0.03899  1.0000
  S   S210      1.0  0.74666  0.74846  0.16228  1.0000
  H   H801      1.0  0.72140  0.83183  0.05541  1.0000
  S   S211      1.0  0.73006  0.67703  0.15348  1.0000
  H   H802      1.0  0.75146  0.82106  0.18818  1.0000
  H   H803      1.0  0.63641  0.00163  0.31389  1.0000
  N   N50       1.0  0.74973  0.80489  0.04625  1.0000
  S   S212      1.0  0.53095  0.89118  0.38943  1.0000
  H   H804      1.0  0.72671  0.79113  0.07552  1.0000
  H   H805      1.0  0.74444  0.79468  0.20709  1.0000
  H   H806      1.0  0.74928  0.78650  0.01090  1.0000
  H   H807      1.0  0.75241  0.69195  0.07184  1.0000
  H   H808      1.0  0.73976  0.82247  0.24299  1.0000
  H   H809      1.0  0.72262  0.77594  0.04637  1.0000
  C   C513      1.0  0.67346  0.98261  0.28631  1.0000
  H   H810      1.0  0.74997  0.76967  0.06462  1.0000
  H   H811      1.0  0.74749  0.84890  0.22468  1.0000
  H   H812      1.0  0.67206  0.99547  0.27025  1.0000
  H   H813      1.0  0.69381  0.96532  0.32798  1.0000
  H   H814      1.0  0.54013  0.83062  0.44571  1.0000
  H   H815      1.0  0.71727  0.81678  0.02609  1.0000
  H   H816      1.0  0.52164  0.00775  0.39798  1.0000
  H   H817      1.0  0.66077  0.96700  0.33192  1.0000
  H   H818      1.0  0.71553  0.99980  0.30645  1.0000
  C   C514      1.0  0.67778  0.97842  0.33046  1.0000
  H   H819      1.0  0.54747  0.00146  0.44686  1.0000
  H   H820      1.0  0.74062  0.84005  0.02957  1.0000
  C   C515      1.0  0.53055  0.84796  0.45185  1.0000
  H   H821      1.0  0.53603  0.86295  0.43889  1.0000
  C   C516      1.0  0.75972  0.80672  0.20057  1.0000
  H   H822      1.0  0.75920  0.82204  0.08082  1.0000
  S   S213      1.0  0.75681  0.90422  0.76117  1.0000
  S   S214      1.0  0.71700  0.71440  0.89237  1.0000
  S   S215      1.0  0.73072  0.73948  0.95621  1.0000
  N   N51       1.0  0.65728  0.99291  0.75478  1.0000
  Fe  Fe107     1.0  0.73047  0.74098  0.86352  1.0000
  S   S216      1.0  0.70693  0.75832  0.83328  1.0000
  Fe  Fe108     1.0  0.74027  0.88938  0.72631  1.0000
  H   H823      1.0  0.58000  0.00149  0.62437  1.0000
  S   S217      1.0  0.51450  0.88462  0.61540  1.0000
  Fe  Fe109     1.0  0.54602  0.90493  0.63342  1.0000
  S   S218      1.0  0.54008  0.93974  0.61099  1.0000
  S   S219      1.0  0.58291  0.88532  0.63954  1.0000
  S   S220      1.0  0.75044  0.97744  0.76166  1.0000
  H   H824      1.0  0.62396  0.00914  0.73952  1.0000
  S   S221      1.0  0.52324  0.91724  0.66593  1.0000
  H   H825      1.0  0.70293  0.72349  0.78690  1.0000
  C   C517      1.0  0.54193  0.91027  0.50744  1.0000
  S   S222      1.0  0.72484  0.87317  0.81640  1.0000
  Fe  Fe110     1.0  0.68896  0.91136  0.73686  1.0000
  S   S223      1.0  0.70187  0.92718  0.77300  1.0000
  S   S224      1.0  0.64880  0.92239  0.72916  1.0000
  Fe  Fe111     1.0  0.72173  0.89087  0.77872  1.0000
  C   C518      1.0  0.71493  0.70738  0.79235  1.0000
  Fe  Fe112     1.0  0.73548  0.93935  0.75221  1.0000
  H   H826      1.0  0.62767  0.96658  0.75739  1.0000
  S   S225      1.0  0.70612  0.87382  0.74445  1.0000
  S   S226      1.0  0.72167  0.92571  0.71552  1.0000
  H   H827      1.0  0.72510  0.70075  0.77570  1.0000
  H   H828      1.0  0.74967  0.81739  0.76329  1.0000
  C   C519      1.0  0.64386  0.97333  0.76820  1.0000
  C   C520      1.0  0.68186  0.67827  0.78568  1.0000
  H   H829      1.0  0.67954  0.96763  0.73308  1.0000
  Fe  Fe113     1.0  0.74839  0.68964  0.88032  1.0000
  S   S227      1.0  0.75944  0.71450  0.84921  1.0000
  C   C521      1.0  0.60207  0.89669  0.66337  1.0000
  C   C522      1.0  0.59427  0.91665  0.67804  1.0000
  C   C523      1.0  0.60892  0.92432  0.69804  1.0000
  C   C524      1.0  0.63173  0.91249  0.70323  1.0000
  C   C525      1.0  0.63986  0.89286  0.68826  1.0000
  C   C526      1.0  0.62495  0.88488  0.66847  1.0000
  H   H830      1.0  0.57687  0.92610  0.67413  1.0000
  H   H831      1.0  0.60254  0.93954  0.70952  1.0000
  H   H832      1.0  0.65743  0.88363  0.69213  1.0000
  H   H833      1.0  0.63115  0.86947  0.65713  1.0000
  C   C527      1.0  0.71127  0.79037  0.82873  1.0000
  C   C528      1.0  0.70483  0.80131  0.80604  1.0000
  C   C529      1.0  0.70861  0.82678  0.80203  1.0000
  C   C530      1.0  0.71860  0.84146  0.82081  1.0000
  C   C531      1.0  0.72460  0.83058  0.84357  1.0000
  C   C532      1.0  0.72110  0.80512  0.84747  1.0000
  H   H834      1.0  0.69700  0.79006  0.79153  1.0000
  H   H835      1.0  0.70367  0.83507  0.78450  1.0000
  C   C533      1.0  0.74691  0.73356  0.98406  1.0000
  H   H836      1.0  0.72558  0.79706  0.86518  1.0000
  H   H837      1.0  0.66888  0.69339  0.77971  1.0000
  C   C534      1.0  0.68700  0.69732  0.82560  1.0000
  H   H838      1.0  0.67487  0.68314  0.83410  1.0000
  Fe  Fe114     1.0  0.74548  0.73161  0.91750  1.0000
  N   N52       1.0  0.54153  0.84874  0.69757  1.0000
  C   C535      1.0  0.54793  0.82481  0.70943  1.0000
  C   C536      1.0  0.55981  0.86758  0.70505  1.0000
  C   C537      1.0  0.51628  0.85678  0.70527  1.0000
  C   C538      1.0  0.54216  0.84574  0.67046  1.0000
  H   H839      1.0  0.53454  0.81014  0.70417  1.0000
  H   H840      1.0  0.54773  0.82642  0.72992  1.0000
  H   H841      1.0  0.56687  0.81826  0.70392  1.0000
  H   H842      1.0  0.56011  0.87029  0.72541  1.0000
  H   H843      1.0  0.57901  0.86231  0.69912  1.0000
  H   H844      1.0  0.55555  0.88590  0.69650  1.0000
  H   H845      1.0  0.67340  0.00713  0.78825  1.0000
  H   H846      1.0  0.51079  0.87478  0.69666  1.0000
  H   H847      1.0  0.51502  0.85922  0.72562  1.0000
  H   H848      1.0  0.53751  0.86347  0.66097  1.0000
  H   H849      1.0  0.52860  0.83173  0.66401  1.0000
  H   H850      1.0  0.56101  0.84001  0.66388  1.0000
  C   C539      1.0  0.67896  0.00076  0.76950  1.0000
  H   H851      1.0  0.63697  0.97999  0.78640  1.0000
  H   H852      1.0  0.65609  0.95687  0.77161  1.0000
  H   H853      1.0  0.72500  0.98573  0.71502  1.0000
  H   H854      1.0  0.70032  0.70360  0.83997  1.0000
  C   C540      1.0  0.52936  0.91242  0.53015  1.0000
  H   H855      1.0  0.72893  0.71471  0.80550  1.0000
  H   H856      1.0  0.53876  0.90752  0.54717  1.0000
  C   C541      1.0  0.66583  0.98314  0.73070  1.0000
  H   H857      1.0  0.65011  0.97576  0.71962  1.0000
  Fe  Fe115     1.0  0.51515  0.95054  0.64252  1.0000
  N   N53       1.0  0.70020  0.68743  0.80372  1.0000
  H   H858      1.0  0.67511  0.71372  0.82084  1.0000
  H   H859      1.0  0.67483  0.99771  0.71948  1.0000
  H   H860      1.0  0.69278  0.98531  0.77186  1.0000
  H   H861      1.0  0.75446  0.84533  0.78059  1.0000
  S   S228      1.0  0.75617  0.76052  0.88941  1.0000
  H   H862      1.0  0.54721  0.00434  0.61924  1.0000
  S   S229      1.0  0.51404  0.98788  0.66030  1.0000
  C   C542      1.0  0.72697  0.00341  0.72424  1.0000
  H   H863      1.0  0.73217  0.84185  0.85823  1.0000
  C   C543      1.0  0.73916  0.00454  0.74697  1.0000
  H   H864      1.0  0.56104  0.90371  0.50713  1.0000
  C   C544      1.0  0.73350  0.73342  0.00633  1.0000
  H   H865      1.0  0.71349  0.73576  0.00590  1.0000
  S   S230      1.0  0.80158  0.31588  0.15281  1.0000
  H   H866      1.0  0.78080  0.05394  0.19341  1.0000
  H   H867      1.0  0.82486  0.24423  0.40756  1.0000
  C   C545      1.0  0.81801  0.21948  0.36495  1.0000
  Fe  Fe116     1.0  0.85718  0.32349  0.28320  1.0000
  S   S231      1.0  0.88233  0.29706  0.26290  1.0000
  C   C546      1.0  0.77406  0.26788  0.23808  1.0000
  H   H868      1.0  0.82890  0.20241  0.36959  1.0000
  S   S232      1.0  0.90320  0.27887  0.31681  1.0000
  H   H869      1.0  0.85210  0.26060  0.39806  1.0000
  Fe  Fe117     1.0  0.91197  0.30907  0.28977  1.0000
  S   S233      1.0  0.95062  0.32098  0.27760  1.0000
  Fe  Fe118     1.0  0.87099  0.26984  0.29195  1.0000
  S   S234      1.0  0.85884  0.23097  0.28200  1.0000
  C   C547      1.0  0.81613  0.31271  0.08728  1.0000
  S   S235      1.0  0.84467  0.29570  0.31114  1.0000
  H   H870      1.0  0.77017  0.33386  0.19290  1.0000
  C   C548      1.0  0.83188  0.31971  0.19322  1.0000
  H   H871      1.0  0.80091  0.21970  0.37650  1.0000
  H   H872      1.0  0.78150  0.21057  0.21252  1.0000
  H   H873      1.0  0.85630  0.32386  0.22450  1.0000
  C   C549      1.0  0.83286  0.31795  0.04624  1.0000
  C   C550      1.0  0.82784  0.22235  0.28786  1.0000
  C   C551      1.0  0.80979  0.23987  0.29491  1.0000
  C   C552      1.0  0.78560  0.23241  0.30079  1.0000
  S   S236      1.0  0.88744  0.33799  0.30813  1.0000
  C   C553      1.0  0.79680  0.18996  0.29111  1.0000
  C   C554      1.0  0.82117  0.19739  0.28571  1.0000
  H   H874      1.0  0.81429  0.25921  0.29564  1.0000
  C   C555      1.0  0.00045  0.27468  0.31151  1.0000
  H   H875      1.0  0.79205  0.17057  0.29003  1.0000
  H   H876      1.0  0.83497  0.18368  0.28021  1.0000
  C   C556      1.0  0.97836  0.30715  0.28900  1.0000
  Fe  Fe119     1.0  0.87727  0.30710  0.33393  1.0000
  H   H877      1.0  0.81199  0.21765  0.34535  1.0000
  C   C557      1.0  0.77075  0.09615  0.16845  1.0000
  Fe  Fe120     1.0  0.76228  0.32022  0.13869  1.0000
  C   C558      1.0  0.77574  0.25698  0.19492  1.0000
  H   H878      1.0  0.78658  0.30615  0.03215  1.0000
  H   H879      1.0  0.91536  0.33683  0.43868  1.0000
  H   H880      1.0  0.79927  0.31351  0.09916  1.0000
  H   H881      1.0  0.82823  0.28162  0.36498  1.0000
  H   H882      1.0  0.81833  0.24423  0.23983  1.0000
  H   H883      1.0  0.79107  0.09297  0.17108  1.0000
  C   C559      1.0  0.80769  0.32291  0.18402  1.0000
  S   S237      1.0  0.87580  0.30515  0.37570  1.0000
  H   H884      1.0  0.76755  0.11662  0.16701  1.0000
  H   H885      1.0  0.76526  0.02397  0.28187  1.0000
  H   H886      1.0  0.82977  0.32571  0.09550  1.0000
  H   H887      1.0  0.94210  0.33912  0.45833  1.0000
  N   N54       1.0  0.83283  0.24208  0.36872  1.0000
  C   C560      1.0  0.84100  0.24356  0.39473  1.0000
  C   C561      1.0  0.81748  0.26423  0.36268  1.0000
  C   C562      1.0  0.85490  0.24114  0.35250  1.0000
  H   H888      1.0  0.85291  0.22732  0.39990  1.0000
  C   C563      1.0  0.86737  0.33073  0.39429  1.0000
  H   H889      1.0  0.81078  0.26367  0.34326  1.0000
  H   H890      1.0  0.86683  0.25761  0.35519  1.0000
  H   H891      1.0  0.84949  0.24079  0.33273  1.0000
  H   H892      1.0  0.86662  0.22436  0.35602  1.0000
  H   H893      1.0  0.80084  0.26572  0.37480  1.0000
  H   H894      1.0  0.87392  0.31035  0.42795  1.0000
  H   H895      1.0  0.77410  0.30244  0.06246  1.0000
  C   C564      1.0  0.81145  0.24952  0.22113  1.0000
  C   C565      1.0  0.77901  0.20744  0.29887  1.0000
  C   C566      1.0  0.79444  0.33750  0.22443  1.0000
  H   H896      1.0  0.78102  0.28687  0.23432  1.0000
  C   C567      1.0  0.97801  0.28573  0.30351  1.0000
  H   H897      1.0  0.77186  0.24605  0.30660  1.0000
  H   H898      1.0  0.78260  0.27567  0.18977  1.0000
  H   H899      1.0  0.96045  0.27743  0.30823  1.0000
  H   H900      1.0  0.00175  0.33428  0.27173  1.0000
  H   H901      1.0  0.96752  0.34220  0.41975  1.0000
  H   H902      1.0  0.78272  0.24365  0.18078  1.0000
  C   C568      1.0  0.86854  0.32805  0.42001  1.0000
  H   H903      1.0  0.99998  0.25786  0.32241  1.0000
  H   H904      1.0  0.84111  0.29889  0.04631  1.0000
  N   N55       1.0  0.81008  0.31929  0.06144  1.0000
  H   H905      1.0  0.81964  0.23604  0.20777  1.0000
  C   C569      1.0  0.76423  0.09717  0.21242  1.0000
  C   C570      1.0  0.78889  0.33158  0.19976  1.0000
  C   C571      1.0  0.79165  0.30172  0.05163  1.0000
  H   H906      1.0  0.82883  0.32298  0.02667  1.0000
  H   H907      1.0  0.84654  0.31304  0.18116  1.0000
  N   N56       1.0  0.78396  0.24975  0.22000  1.0000
  C   C572      1.0  0.83741  0.32559  0.21788  1.0000
  H   H908      1.0  0.79873  0.28224  0.05213  1.0000
  H   H909      1.0  0.93984  0.34149  0.40113  1.0000
  H   H910      1.0  0.82403  0.29359  0.08879  1.0000
  H   H911      1.0  0.81913  0.26815  0.21685  1.0000
  H   H912      1.0  0.78413  0.09313  0.21662  1.0000
  H   H913      1.0  0.77979  0.26295  0.25720  1.0000
  C   C573      1.0  0.00138  0.31766  0.28293  1.0000
  C   C574      1.0  0.81876  0.33472  0.23352  1.0000
  H   H914      1.0  0.84726  0.33085  0.05319  1.0000
  C   C575      1.0  0.77458  0.22475  0.22589  1.0000
  H   H915      1.0  0.78052  0.21864  0.24467  1.0000
  H   H916      1.0  0.76539  0.08780  0.15046  1.0000
  H   H917      1.0  0.76077  0.20197  0.15936  1.0000
  C   C576      1.0  0.76076  0.05846  0.19044  1.0000
  H   H918      1.0  0.76179  0.11769  0.21177  1.0000
  H   H919      1.0  0.89168  0.29616  0.58443  1.0000
  C   C577      1.0  0.79312  0.25429  0.61061  1.0000
  C   C578      1.0  0.86026  0.32739  0.62942  1.0000
  H   H920      1.0  0.82522  0.29075  0.61836  1.0000
  Fe  Fe121     1.0  0.86280  0.30097  0.72507  1.0000
  S   S238      1.0  0.88908  0.27750  0.74738  1.0000
  C   C579      1.0  0.79417  0.25046  0.65502  1.0000
  H   H921      1.0  0.77566  0.26559  0.61134  1.0000
  S   S239      1.0  0.91178  0.25644  0.69491  1.0000
  H   H922      1.0  0.77215  0.05743  0.65810  1.0000
  Fe  Fe122     1.0  0.87989  0.24758  0.72017  1.0000
  S   S240      1.0  0.86626  0.21105  0.73487  1.0000
  Fe  Fe123     1.0  0.91854  0.28884  0.72005  1.0000
  S   S241      1.0  0.95617  0.30402  0.73173  1.0000
  S   S242      1.0  0.85213  0.27043  0.69924  1.0000
  Fe  Fe124     1.0  0.88441  0.28223  0.67618  1.0000
  H   H923      1.0  0.79138  0.06864  0.72267  1.0000
  H   H924      1.0  0.97214  0.25762  0.70787  1.0000
  C   C580      1.0  0.87176  0.33073  0.57904  1.0000
  H   H925      1.0  0.85572  0.32615  0.64883  1.0000
  H   H926      1.0  0.87625  0.33190  0.55961  1.0000
  C   C581      1.0  0.83991  0.19993  0.71938  1.0000
  C   C582      1.0  0.83710  0.20342  0.69396  1.0000
  C   C583      1.0  0.81587  0.19460  0.68188  1.0000
  C   C584      1.0  0.79678  0.18341  0.69528  1.0000
  C   C585      1.0  0.79957  0.17989  0.72071  1.0000
  C   C586      1.0  0.82132  0.18773  0.73266  1.0000
  H   H927      1.0  0.85166  0.21231  0.68357  1.0000
  H   H928      1.0  0.81422  0.19638  0.66211  1.0000
  H   H929      1.0  0.78504  0.17113  0.73121  1.0000
  H   H930      1.0  0.82355  0.18477  0.75229  1.0000
  C   C587      1.0  0.98521  0.29293  0.72062  1.0000
  H   H931      1.0  0.82739  0.22274  0.62891  1.0000
  C   C588      1.0  0.98816  0.26934  0.71017  1.0000
  H   H932      1.0  0.78771  0.23097  0.65352  1.0000
  H   H933      1.0  0.00405  0.32623  0.73145  1.0000
  C   C589      1.0  0.77174  0.05892  0.67858  1.0000
  H   H934      1.0  0.81473  0.24356  0.73799  1.0000
  C   C590      1.0  0.83868  0.31330  0.81467  1.0000
  C   C591      1.0  0.77505  0.26993  0.75345  1.0000
  C   C592      1.0  0.00621  0.30789  0.72354  1.0000
  H   H935      1.0  0.82527  0.23371  0.76786  1.0000
  N   N57       1.0  0.78092  0.08322  0.68706  1.0000
  C   C593      1.0  0.84327  0.31371  0.78913  1.0000
  C   C594      1.0  0.87473  0.30876  0.61830  1.0000
  H   H936      1.0  0.78303  0.04328  0.68632  1.0000
  H   H937      1.0  0.78458  0.28807  0.75478  1.0000
  H   H938      1.0  0.84334  0.24483  0.64784  1.0000
  C   C595      1.0  0.83146  0.24278  0.63111  1.0000
  N   N58       1.0  0.80842  0.25796  0.63297  1.0000
  C   C596      1.0  0.80123  0.32851  0.78213  1.0000
  C   C597      1.0  0.88052  0.31054  0.59313  1.0000
  S   S243      1.0  0.89267  0.31522  0.69981  1.0000
  C   C598      1.0  0.78039  0.08414  0.71432  1.0000
  H   H939      1.0  0.81944  0.07210  0.68590  1.0000
  H   H940      1.0  0.86145  0.30856  0.78220  1.0000
  H   H941      1.0  0.80339  0.25977  0.59365  1.0000
  C   C599      1.0  0.77588  0.22650  0.76422  1.0000
  H   H942      1.0  0.85336  0.30767  0.82723  1.0000
  H   H943      1.0  0.77509  0.22092  0.74446  1.0000
  H   H944      1.0  0.78799  0.10190  0.72141  1.0000
  N   N59       1.0  0.78863  0.25044  0.76737  1.0000
  H   H945      1.0  0.82457  0.26610  0.76013  1.0000
  C   C600      1.0  0.81522  0.32002  0.82399  1.0000
  H   H946      1.0  0.77828  0.33262  0.81446  1.0000
  C   C601      1.0  0.82458  0.32140  0.77277  1.0000
  H   H947      1.0  0.82729  0.28773  0.65120  1.0000
  S   S244      1.0  0.88337  0.28167  0.63452  1.0000
  H   H948      1.0  0.78781  0.23450  0.60847  1.0000
  H   H949      1.0  0.80562  0.25178  0.67210  1.0000
  H   H950      1.0  0.77733  0.26239  0.65765  1.0000
  H   H951      1.0  0.81393  0.10507  0.68430  1.0000
  H   H952      1.0  0.79823  0.29656  0.63704  1.0000
  C   C602      1.0  0.80669  0.08671  0.67840  1.0000
  H   H953      1.0  0.78553  0.21126  0.77447  1.0000
  H   H954      1.0  0.79897  0.24256  0.80494  1.0000
  S   S245      1.0  0.81023  0.31956  0.85617  1.0000
  H   H955      1.0  0.79910  0.27480  0.79690  1.0000
  C   C603      1.0  0.81498  0.28441  0.63502  1.0000
  S   S246      1.0  0.82955  0.32196  0.74060  1.0000
  H   H956      1.0  0.80781  0.08599  0.65789  1.0000
  Fe  Fe125     1.0  0.77081  0.31883  0.87034  1.0000
  H   H957      1.0  0.84304  0.24856  0.61512  1.0000
  C   C604      1.0  0.78919  0.25707  0.79384  1.0000
  C   C605      1.0  0.81438  0.24835  0.75796  1.0000
  H   H958      1.0  0.77381  0.26520  0.73350  1.0000
  C   C606      1.0  0.76478  0.10320  0.67700  1.0000
  C   C607      1.0  0.79643  0.32744  0.80760  1.0000
  H   H959      1.0  0.78671  0.33459  0.76958  1.0000
  S   S247      1.0  0.76968  0.17424  0.67968  1.0000
  H   H960      1.0  0.77070  0.12176  0.68359  1.0000
  H   H961      1.0  0.76507  0.10356  0.65648  1.0000
  H   H962      1.0  0.77007  0.25937  0.80147  1.0000
  H   H963      1.0  0.76104  0.08274  0.72135  1.0000
  Fe  Fe126     1.0  0.86739  0.39706  0.48337  1.0000
  S   S248      1.0  0.90410  0.41608  0.48755  1.0000
  S   S249      1.0  0.85130  0.39730  0.44472  1.0000
  C   C608      1.0  0.89042  0.65200  0.34834  1.0000
  H   H964      1.0  0.79321  0.34984  0.04166  1.0000
  C   C609      1.0  0.77844  0.40024  0.20454  1.0000
  C   C610      1.0  0.78661  0.65871  0.08814  1.0000
  C   C611      1.0  0.95609  0.38415  0.44432  1.0000
  H   H965      1.0  0.78539  0.66189  0.10844  1.0000
  H   H966      1.0  0.94072  0.57512  0.48762  1.0000
  C   C612      1.0  0.76438  0.64889  0.05071  1.0000
  C   C613      1.0  0.85431  0.37370  0.39986  1.0000
  S   S250      1.0  0.95115  0.36480  0.50505  1.0000
  H   H967      1.0  0.93341  0.67589  0.40631  1.0000
  C   C614      1.0  0.99921  0.38057  0.50371  1.0000
  S   S251      1.0  0.90435  0.62484  0.47882  1.0000
  C   C615      1.0  0.93630  0.55508  0.48590  1.0000
  H   H968      1.0  0.97115  0.37323  0.45360  1.0000
  C   C616      1.0  0.95248  0.35398  0.41156  1.0000
  C   C617      1.0  0.87249  0.49700  0.50353  1.0000
  H   H969      1.0  0.87033  0.47981  0.49348  1.0000
  H   H970      1.0  0.87960  0.64187  0.36255  1.0000
  H   H971      1.0  0.77682  0.63266  0.04699  1.0000
  H   H972      1.0  0.77992  0.34425  0.23659  1.0000
  H   H973      1.0  0.96495  0.39781  0.43185  1.0000
  H   H974      1.0  0.85691  0.51983  0.47448  1.0000
  N   N60       1.0  0.87404  0.66733  0.33236  1.0000
  H   H975      1.0  0.78493  0.38794  0.21981  1.0000
  H   H976      1.0  0.84422  0.64115  0.33266  1.0000
  H   H977      1.0  0.85894  0.35577  0.36436  1.0000
  C   C618      1.0  0.85630  0.37121  0.42561  1.0000
  S   S252      1.0  0.82545  0.34390  0.26404  1.0000
  H   H978      1.0  0.79487  0.67565  0.07982  1.0000
  H   H979      1.0  0.86441  0.34599  0.45538  1.0000
  H   H980      1.0  0.93757  0.55009  0.46603  1.0000
  H   H981      1.0  0.91620  0.35990  0.46253  1.0000
  Fe  Fe127     1.0  0.88700  0.65984  0.49381  1.0000
  H   H982      1.0  0.94631  0.39478  0.45910  1.0000
  H   H983      1.0  0.78397  0.39115  0.18687  1.0000
  H   H984      1.0  0.92662  0.39741  0.40676  1.0000
  C   C619      1.0  0.86494  0.51965  0.49280  1.0000
  H   H985      1.0  0.77238  0.66526  0.04107  1.0000
  H   H986      1.0  0.84882  0.39141  0.39200  1.0000
  H   H987      1.0  0.89975  0.66747  0.30184  1.0000
  C   C620      1.0  0.79962  0.34478  0.06060  1.0000
  C   C621      1.0  0.85620  0.65126  0.31939  1.0000
  S   S253      1.0  0.87819  0.36282  0.50478  1.0000
  H   H988      1.0  0.78317  0.34674  0.07291  1.0000
  N   N61       1.0  0.76189  0.65357  0.07748  1.0000
  H   H989      1.0  0.90407  0.66365  0.35838  1.0000
  H   H990      1.0  0.91391  0.66844  0.44696  1.0000
  H   H991      1.0  0.90736  0.39293  0.43341  1.0000
  H   H992      1.0  0.91655  0.55300  0.49151  1.0000
  H   H993      1.0  0.79986  0.64300  0.08509  1.0000
  H   H994      1.0  0.81339  0.35873  0.06668  1.0000
  H   H995      1.0  0.98181  0.53812  0.47357  1.0000
  N   N62       1.0  0.93880  0.36787  0.43088  1.0000
  H   H996      1.0  0.90125  0.63814  0.33741  1.0000
  C   C622      1.0  0.91893  0.38311  0.41930  1.0000
  H   H997      1.0  0.00374  0.36254  0.49605  1.0000
  H   H998      1.0  0.86599  0.63724  0.30770  1.0000
  S   S254      1.0  0.86082  0.57040  0.49079  1.0000
  C   C623      1.0  0.86828  0.54210  0.50545  1.0000
  Fe  Fe128     1.0  0.87925  0.60496  0.50506  1.0000
  N   N63       1.0  0.95313  0.53951  0.50119  1.0000
  H   H999      1.0  0.94850  0.50696  0.47871  1.0000
  H   H1000     1.0  0.98465  0.56296  0.49544  1.0000
  C   C624      1.0  0.97913  0.54320  0.49330  1.0000
  H   H1001     1.0  0.84378  0.66236  0.30700  1.0000
  H   H1002     1.0  0.90620  0.37145  0.40820  1.0000
  C   C625      1.0  0.86324  0.34824  0.43561  1.0000
  C   C626      1.0  0.92762  0.35014  0.44831  1.0000
  H   H1003     1.0  0.96106  0.36675  0.39799  1.0000
  H   H1004     1.0  0.96662  0.66778  0.50630  1.0000
  C   C627      1.0  0.86007  0.35357  0.38419  1.0000
  H   H1005     1.0  0.78894  0.41783  0.20612  1.0000
  H   H1006     1.0  0.76294  0.61478  0.08702  1.0000
  C   C628      1.0  0.94660  0.51311  0.49823  1.0000
  H   H1007     1.0  0.92703  0.50977  0.50382  1.0000
  H   H1008     1.0  0.99234  0.53169  0.50444  1.0000
  Fe  Fe129     1.0  0.86476  0.38403  0.53815  1.0000
  S   S255      1.0  0.90177  0.40072  0.54589  1.0000
  H   H1009     1.0  0.79203  0.38414  0.82180  1.0000
  Fe  Fe130     1.0  0.88874  0.64191  0.54683  1.0000
  C   C629      1.0  0.85258  0.43912  0.58266  1.0000
  S   S256      1.0  0.90615  0.60534  0.53653  1.0000
  S   S257      1.0  0.85941  0.63973  0.51743  1.0000
  C   C630      1.0  0.88330  0.49679  0.52701  1.0000
  H   H1010     1.0  0.86488  0.45262  0.64263  1.0000
  C   C631      1.0  0.96498  0.67161  0.61164  1.0000
  H   H1011     1.0  0.83418  0.43026  0.58528  1.0000
  C   C632      1.0  0.95395  0.64780  0.57562  1.0000
  S   S258      1.0  0.89548  0.46942  0.54016  1.0000
  H   H1012     1.0  0.84945  0.45839  0.57577  1.0000
  H   H1013     1.0  0.88143  0.40157  0.59923  1.0000
  H   H1014     1.0  0.88054  0.55881  0.53930  1.0000
  C   C633      1.0  0.88600  0.51914  0.53990  1.0000
  Fe  Fe131     1.0  0.88827  0.43234  0.52231  1.0000
  H   H1015     1.0  0.90447  0.66835  0.80359  1.0000
  H   H1016     1.0  0.79656  0.40514  0.88745  1.0000
  H   H1017     1.0  0.86209  0.42875  0.56765  1.0000
  H   H1018     1.0  0.96274  0.53514  0.53950  1.0000
  C   C634      1.0  0.85632  0.34872  0.58986  1.0000
  N   N64       1.0  0.86753  0.43865  0.60557  1.0000
  H   H1019     1.0  0.83844  0.36071  0.62351  1.0000
  C   C635      1.0  0.95051  0.54669  0.52740  1.0000
  S   S259      1.0  0.84316  0.37288  0.57205  1.0000
  H   H1020     1.0  0.01003  0.67255  0.58966  1.0000
  H   H1021     1.0  0.78026  0.44553  0.85185  1.0000
  H   H1022     1.0  0.94985  0.41484  0.52420  1.0000
  C   C636      1.0  0.79017  0.42881  0.84449  1.0000
  H   H1023     1.0  0.85087  0.47226  0.61948  1.0000
  H   H1024     1.0  0.95780  0.64376  0.55582  1.0000
  H   H1025     1.0  0.00030  0.64090  0.59295  1.0000
  H   H1026     1.0  0.76615  0.41978  0.88775  1.0000
  C   C637      1.0  0.89187  0.45019  0.60094  1.0000
  H   H1027     1.0  0.90368  0.45023  0.61779  1.0000
  C   C638      1.0  0.99679  0.65848  0.58269  1.0000
  S   S260      1.0  0.85041  0.41665  0.51620  1.0000
  C   C639      1.0  0.79155  0.38405  0.84234  1.0000
  H   H1028     1.0  0.95867  0.50077  0.50977  1.0000
  H   H1029     1.0  0.83571  0.44430  0.62889  1.0000
  H   H1030     1.0  0.85348  0.40332  0.61695  1.0000
  H   H1031     1.0  0.98325  0.44508  0.53166  1.0000
  C   C640      1.0  0.87148  0.41268  0.61359  1.0000
  C   C641      1.0  0.77749  0.40441  0.87955  1.0000
  N   N65       1.0  0.77781  0.40579  0.85230  1.0000
  H   H1032     1.0  0.81112  0.38326  0.84909  1.0000
  H   H1033     1.0  0.90239  0.44009  0.58627  1.0000
  C   C642      1.0  0.85416  0.45260  0.62504  1.0000
  H   H1034     1.0  0.88265  0.41146  0.63084  1.0000
  H   H1035     1.0  0.80972  0.42933  0.85121  1.0000
  S   S261      1.0  0.87945  0.64874  0.58690  1.0000
  H   H1036     1.0  0.93108  0.54448  0.53389  1.0000
  H   H1037     1.0  0.93407  0.65360  0.57721  1.0000
  H   H1038     1.0  0.88961  0.46972  0.59449  1.0000
  C   C643      1.0  0.87851  0.54172  0.52917  1.0000
  H   H1039     1.0  0.89421  0.51903  0.55814  1.0000
  C   C644      1.0  0.85057  0.34700  0.61508  1.0000
  H   H1040     1.0  0.76910  0.38679  0.88599  1.0000
  S   S262      1.0  0.91501  0.66451  0.52431  1.0000
  H   H1041     1.0  0.95615  0.63002  0.58587  1.0000
  H   H1042     1.0  0.79058  0.43045  0.82401  1.0000
  H   H1043     1.0  0.78285  0.36640  0.84815  1.0000
  H   H1044     1.0  0.96764  0.65451  0.62289  1.0000
  N   N66       1.0  0.97069  0.66705  0.58531  1.0000
  C   C645      1.0  0.98772  0.42716  0.52371  1.0000
  Fe  Fe132     1.0  0.92987  0.62767  0.51132  1.0000
  H   H1045     1.0  0.87571  0.66400  0.63749  1.0000
  C   C646      1.0  0.96881  0.40999  0.51955  1.0000
  C   C647      1.0  0.97461  0.38654  0.50992  1.0000
  H   H1046     1.0  0.00159  0.65492  0.56298  1.0000
  Fe  Fe133     1.0  0.91393  0.38300  0.51069  1.0000
  H   H1047     1.0  0.95547  0.56647  0.53031  1.0000
  C   C648      1.0  0.99194  0.63684  0.51112  1.0000
  S   S263      1.0  0.96925  0.61393  0.51013  1.0000
  C   C649      1.0  0.98568  0.66208  0.50952  1.0000
  C   C650      1.0  0.91800  0.68752  0.41227  1.0000
  S   S264      1.0  0.81462  0.77004  0.17246  1.0000
  Fe  Fe134     1.0  0.78609  0.75024  0.14905  1.0000
  C   C651      1.0  0.79323  0.83383  0.21174  1.0000
  Fe  Fe135     1.0  0.89506  0.74657  0.28775  1.0000
  S   S265      1.0  0.89953  0.78798  0.28767  1.0000
  S   S266      1.0  0.87953  0.72150  0.25817  1.0000
  Fe  Fe136     1.0  0.91185  0.74110  0.34128  1.0000
  S   S267      1.0  0.91679  0.78199  0.34601  1.0000
  S   S268      1.0  0.92375  0.71105  0.36811  1.0000
  Fe  Fe137     1.0  0.88099  0.78635  0.32469  1.0000
  S   S269      1.0  0.84986  0.81205  0.33746  1.0000
  Fe  Fe138     1.0  0.93521  0.78056  0.30875  1.0000
  S   S270      1.0  0.96957  0.80456  0.30488  1.0000
  S   S271      1.0  0.87435  0.74537  0.32360  1.0000
  S   S272      1.0  0.93242  0.73924  0.30523  1.0000
  H   H1048     1.0  0.79472  0.80646  0.25289  1.0000
  H   H1049     1.0  0.77232  0.79501  0.18909  1.0000
  H   H1050     1.0  0.80688  0.82264  0.20078  1.0000
  C   C652      1.0  0.77171  0.72823  0.02984  1.0000
  N   N67       1.0  0.77313  0.81813  0.22141  1.0000
  H   H1051     1.0  0.93212  0.83527  0.27870  1.0000
  C   C653      1.0  0.83292  0.83091  0.31649  1.0000
  C   C654      1.0  0.84144  0.83501  0.29247  1.0000
  C   C655      1.0  0.82875  0.85186  0.27696  1.0000
  C   C656      1.0  0.80700  0.86410  0.28501  1.0000
  C   C657      1.0  0.79792  0.85928  0.30866  1.0000
  C   C658      1.0  0.81105  0.84300  0.32446  1.0000
  H   H1052     1.0  0.85803  0.82559  0.28602  1.0000
  H   H1053     1.0  0.83592  0.85553  0.25869  1.0000
  C   C659      1.0  0.76817  0.81551  0.06338  1.0000
  H   H1054     1.0  0.80437  0.83993  0.34303  1.0000
  C   C660      1.0  0.99970  0.79123  0.30088  1.0000
  H   H1055     1.0  0.78126  0.86871  0.31510  1.0000
  H   H1056     1.0  0.92552  0.83003  0.32360  1.0000
  H   H1057     1.0  0.89289  0.83551  0.31863  1.0000
  H   H1058     1.0  0.98696  0.75503  0.29051  1.0000
  C   C661      1.0  0.90944  0.70688  0.39705  1.0000
  C   C662      1.0  0.88956  0.72190  0.40492  1.0000
  C   C663      1.0  0.87843  0.71756  0.42802  1.0000
  C   C664      1.0  0.88710  0.69821  0.44328  1.0000
  C   C665      1.0  0.78507  0.72771  0.00757  1.0000
  S   S273      1.0  0.79255  0.88610  0.26533  1.0000
  H   H1059     1.0  0.88287  0.73690  0.39330  1.0000
  H   H1060     1.0  0.86314  0.72927  0.43409  1.0000
  H   H1061     1.0  0.94115  0.88342  0.32685  1.0000
  H   H1062     1.0  0.78572  0.84876  0.19953  1.0000
  C   C666      1.0  0.83192  0.75595  0.19645  1.0000
  C   C667      1.0  0.83192  0.73032  0.20039  1.0000
  C   C668      1.0  0.84655  0.71990  0.21942  1.0000
  C   C669      1.0  0.86085  0.73508  0.23485  1.0000
  C   C670      1.0  0.86038  0.76075  0.23118  1.0000
  C   C671      1.0  0.84618  0.77110  0.21190  1.0000
  H   H1063     1.0  0.82102  0.71851  0.18854  1.0000
  H   H1064     1.0  0.84687  0.70002  0.22214  1.0000
  H   H1065     1.0  0.87144  0.77258  0.24280  1.0000
  H   H1066     1.0  0.84640  0.79093  0.20885  1.0000
  C   C672      1.0  0.91086  0.84474  0.32239  1.0000
  H   H1067     1.0  0.90309  0.69272  0.32302  1.0000
  S   S274      1.0  0.78458  0.71393  0.12869  1.0000
  C   C673      1.0  0.00300  0.76655  0.29351  1.0000
  H   H1068     1.0  0.79692  0.78621  0.22659  1.0000
  H   H1069     1.0  0.90081  0.89659  0.28798  1.0000
  H   H1070     1.0  0.87854  0.87457  0.29886  1.0000
  H   H1071     1.0  0.92285  0.86366  0.26379  1.0000
  H   H1072     1.0  0.94628  0.88812  0.29436  1.0000
  H   H1073     1.0  0.89592  0.89246  0.32057  1.0000
  H   H1074     1.0  0.90930  0.85350  0.34093  1.0000
  H   H1075     1.0  0.84745  0.69727  0.33628  1.0000
  H   H1076     1.0  0.89972  0.84222  0.27385  1.0000
  C   C674      1.0  0.91789  0.85053  0.27877  1.0000
  S   S275      1.0  0.87300  0.69313  0.47223  1.0000
  H   H1077     1.0  0.95622  0.85967  0.30880  1.0000
  S   S276      1.0  0.78817  0.72711  0.05813  1.0000
  H   H1078     1.0  0.82764  0.71893  0.50062  1.0000
  H   H1079     1.0  0.78266  0.80148  0.06858  1.0000
  H   H1080     1.0  0.87312  0.69832  0.35732  1.0000
  N   N68       1.0  0.91676  0.86304  0.30305  1.0000
  C   C675      1.0  0.89720  0.88257  0.30257  1.0000
  C   C676      1.0  0.94115  0.87414  0.30850  1.0000
  C   C677      1.0  0.78399  0.79846  0.23725  1.0000
  H   H1081     1.0  0.80349  0.84304  0.22699  1.0000
  H   H1082     1.0  0.77240  0.81007  0.01395  1.0000
  S   S277      1.0  0.77660  0.77178  0.11486  1.0000
  H   H1083     1.0  0.87751  0.69250  0.30180  1.0000
  H   H1084     1.0  0.76934  0.78644  0.24515  1.0000
  Fe  Fe139     1.0  0.77113  0.73551  0.09564  1.0000
  C   C678      1.0  0.88925  0.68053  0.31398  1.0000
  H   H1085     1.0  0.77788  0.83151  0.05496  1.0000
  C   C679      1.0  0.90692  0.68323  0.43531  1.0000
  C   C680      1.0  0.86024  0.68556  0.34768  1.0000
  H   H1086     1.0  0.76494  0.84208  0.25217  1.0000
  H   H1087     1.0  0.84899  0.67632  0.36215  1.0000
  H   H1088     1.0  0.77667  0.78065  0.02898  1.0000
  H   H1089     1.0  0.80514  0.72584  0.00795  1.0000
  C   C681      1.0  0.76256  0.79516  0.02405  1.0000
  Fe  Fe140     1.0  0.78463  0.73249  0.87637  1.0000
  S   S278      1.0  0.82139  0.74679  0.86224  1.0000
  H   H1090     1.0  0.97703  0.68625  0.61955  1.0000
  Fe  Fe141     1.0  0.93302  0.76468  0.72861  1.0000
  S   S279      1.0  0.91564  0.73026  0.71330  1.0000
  S   S280      1.0  0.96908  0.76722  0.75013  1.0000
  Fe  Fe142     1.0  0.88777  0.79737  0.71554  1.0000
  S   S281      1.0  0.86683  0.76587  0.69860  1.0000
  S   S282      1.0  0.87535  0.83685  0.72304  1.0000
  Fe  Fe143     1.0  0.88038  0.74416  0.73157  1.0000
  S   S283      1.0  0.85527  0.71894  0.75343  1.0000
  Fe  Fe144     1.0  0.90363  0.75478  0.68166  1.0000
  S   S284      1.0  0.91077  0.74778  0.64100  1.0000
  S   S285      1.0  0.89881  0.77634  0.74945  1.0000
  S   S286      1.0  0.92350  0.78835  0.69598  1.0000
  H   H1091     1.0  0.95421  0.82148  0.76761  1.0000
  C   C682      1.0  0.88403  0.67897  0.62722  1.0000
  H   H1092     1.0  0.98944  0.82114  0.73835  1.0000
  H   H1093     1.0  0.95451  0.87762  0.75877  1.0000
  C   C683      1.0  0.84375  0.84399  0.71707  1.0000
  C   C684      1.0  0.82921  0.82843  0.70248  1.0000
  C   C685      1.0  0.80418  0.83460  0.69769  1.0000
  C   C686      1.0  0.79336  0.85616  0.70774  1.0000
  C   C687      1.0  0.80783  0.87164  0.72252  1.0000
  C   C688      1.0  0.83301  0.86567  0.72698  1.0000
  H   H1094     1.0  0.83733  0.81188  0.69444  1.0000
  H   H1095     1.0  0.79315  0.82262  0.68613  1.0000
  H   H1096     1.0  0.79981  0.88851  0.73003  1.0000
  H   H1097     1.0  0.84417  0.87792  0.73811  1.0000
  C   C689      1.0  0.82849  0.74101  0.54548  1.0000
  H   H1098     1.0  0.91615  0.68029  0.77483  1.0000
  H   H1099     1.0  0.76948  0.84110  0.75147  1.0000
  H   H1100     1.0  0.98136  0.76012  0.69830  1.0000
  H   H1101     1.0  0.90157  0.69405  0.56896  1.0000
  C   C690      1.0  0.96701  0.69031  0.57124  1.0000
  C   C691      1.0  0.90536  0.71770  0.60086  1.0000
  C   C692      1.0  0.90151  0.72025  0.62637  1.0000
  C   C693      1.0  0.89079  0.70084  0.63954  1.0000
  H   H1102     1.0  0.84787  0.70686  0.57615  1.0000
  H   H1103     1.0  0.88771  0.70269  0.65920  1.0000
  C   C694      1.0  0.97684  0.82960  0.72424  1.0000
  C   C695      1.0  0.82858  0.74000  0.83117  1.0000
  C   C696      1.0  0.84248  0.75688  0.81732  1.0000
  C   C697      1.0  0.84977  0.75116  0.79302  1.0000
  C   C698      1.0  0.84380  0.72821  0.78263  1.0000
  C   C699      1.0  0.82961  0.71150  0.79638  1.0000
  C   C700      1.0  0.82189  0.71742  0.82050  1.0000
  H   H1104     1.0  0.84772  0.77437  0.82549  1.0000
  H   H1105     1.0  0.86032  0.76437  0.78258  1.0000
  S   S287      1.0  0.77643  0.70519  0.90686  1.0000
  H   H1106     1.0  0.81153  0.70411  0.83115  1.0000
  H   H1107     1.0  0.91358  0.73275  0.59063  1.0000
  H   H1108     1.0  0.80467  0.81159  0.74733  1.0000
  N   N69       1.0  0.78537  0.81962  0.78119  1.0000
  H   H1109     1.0  0.80978  0.84954  0.77225  1.0000
  H   H1110     1.0  0.95045  0.71531  0.82331  1.0000
  C   C701      1.0  0.99849  0.76202  0.70857  1.0000
  N   N70       1.0  0.91629  0.70633  0.80496  1.0000
  H   H1111     1.0  0.83827  0.74930  0.56158  1.0000
  H   H1112     1.0  0.82935  0.75456  0.53000  1.0000
  H   H1113     1.0  0.88123  0.71747  0.82086  1.0000
  H   H1114     1.0  0.98016  0.87750  0.73749  1.0000
  C   C702      1.0  0.79787  0.80200  0.76419  1.0000
  H   H1115     1.0  0.76271  0.79205  0.79870  1.0000
  H   H1116     1.0  0.92712  0.84083  0.76158  1.0000
  H   H1117     1.0  0.92542  0.86724  0.72463  1.0000
  C   C703      1.0  0.91752  0.72789  0.78819  1.0000
  H   H1118     1.0  0.92542  0.74442  0.79751  1.0000
  C   C704      1.0  0.90531  0.68513  0.79169  1.0000
  H   H1119     1.0  0.84721  0.68125  0.55509  1.0000
  N   N71       1.0  0.95722  0.84520  0.73579  1.0000
  C   C705      1.0  0.90062  0.71273  0.82653  1.0000
  C   C706      1.0  0.96883  0.86555  0.74976  1.0000
  H   H1120     1.0  0.97047  0.68746  0.55123  1.0000
  H   H1121     1.0  0.89871  0.73316  0.78135  1.0000
  H   H1122     1.0  0.94773  0.69763  0.57315  1.0000
  H   H1123     1.0  0.98135  0.85819  0.76451  1.0000
  H   H1124     1.0  0.79250  0.79652  0.81299  1.0000
  C   C707      1.0  0.77273  0.73029  0.98474  1.0000
  C   C708      1.0  0.89862  0.69584  0.58858  1.0000
  H   H1125     1.0  0.93369  0.81435  0.74279  1.0000
  C   C709      1.0  0.94244  0.82989  0.75280  1.0000
  H   H1126     1.0  0.93152  0.84090  0.70563  1.0000
  C   C710      1.0  0.82635  0.70658  0.51705  1.0000
  H   H1127     1.0  0.76809  0.81918  0.81692  1.0000
  H   H1128     1.0  0.79399  0.85282  0.80125  1.0000
  C   C711      1.0  0.77683  0.80623  0.80338  1.0000
  N   N72       1.0  0.83981  0.71688  0.53846  1.0000
  H   H1129     1.0  0.81869  0.69583  0.56474  1.0000
  H   H1130     1.0  0.89946  0.69699  0.83976  1.0000
  C   C712      1.0  0.80298  0.83909  0.78858  1.0000
  H   H1131     1.0  0.90790  0.72904  0.83670  1.0000
  C   C713      1.0  0.99776  0.76549  0.73412  1.0000
  H   H1132     1.0  0.94154  0.68338  0.82600  1.0000
  H   H1133     1.0  0.98844  0.84043  0.71124  1.0000
  H   H1134     1.0  0.96876  0.81391  0.71369  1.0000
  H   H1135     1.0  0.78325  0.73040  0.96771  1.0000
  H   H1136     1.0  0.95110  0.86750  0.70327  1.0000
  H   H1137     1.0  0.82492  0.69370  0.78853  1.0000
  C   C714      1.0  0.86615  0.72050  0.53177  1.0000
  H   H1138     1.0  0.87686  0.72863  0.54731  1.0000
  H   H1139     1.0  0.80859  0.73898  0.55068  1.0000
  H   H1140     1.0  0.94530  0.67792  0.61418  1.0000
  C   C715      1.0  0.94071  0.85573  0.71648  1.0000
  S   S288      1.0  0.76176  0.86298  0.70153  1.0000
  H   H1141     1.0  0.92930  0.72386  0.77172  1.0000
  C   C716      1.0  0.76381  0.83130  0.76859  1.0000
  H   H1142     1.0  0.81948  0.83102  0.79822  1.0000
  H   H1143     1.0  0.83435  0.68831  0.51136  1.0000
  H   H1144     1.0  0.81422  0.79276  0.77309  1.0000
  C   C717      1.0  0.00427  0.68002  0.51188  1.0000
  C   C718      1.0  0.83830  0.69949  0.55951  1.0000
  H   H1145     1.0  0.78502  0.78720  0.75807  1.0000
  H   H1146     1.0  0.86798  0.73298  0.51549  1.0000
  H   H1147     1.0  0.97980  0.70505  0.57767  1.0000
  C   C719      1.0  0.94167  0.69963  0.81332  1.0000
  H   H1148     1.0  0.95394  0.69483  0.79741  1.0000
  H   H1149     1.0  0.88595  0.68948  0.78557  1.0000
  H   H1150     1.0  0.80633  0.70380  0.52121  1.0000
  H   H1151     1.0  0.87526  0.70260  0.52662  1.0000
  C   C720      1.0  0.88801  0.67640  0.60175  1.0000
  H   H1152     1.0  0.99953  0.69955  0.51058  1.0000
