data_image0
_chemical_formula_structural       FeS2FeS2FeSFeS3FeS2FeS2FeSFeS3FeS2FeS2FeSFeS3FeS2FeS2FeSFeS3FeS2FeS2FeSFeS3FeS2FeS2FeSFeS3FeS2FeS2FeSFeS3FeS2FeS2FeSFeS3FeS2FeS2FeSFeS3FeS2FeS2FeSFeS3FeS2FeS2FeSFeS3FeS2FeS2FeSFeS3FeS2FeS2FeSFeS3FeS2FeS2FeSFeS3FeS2FeS2FeSFeS3FeS2FeS2FeSFeS3FeS2FeS2FeSFeS3FeS2FeS2FeSFeS3FeS2FeS2FeSFeS3FeS2FeS2FeSFeS3FeS2FeS2FeSFeS3FeS2FeS2FeSFeS3FeS2FeS2FeSFeS3FeS2FeS2FeSFeS3C6H4C6H4C6H4C6H4C6H4C6H4C6H4C6H4C6H4C6H4C6H4C6H4C6H4C6H4C6H4C6H4C6H4C6H4C6H4C6H4C6H4C6H4C6H4C6H4C6H4C6H4C6H4C6H4C6H4C6H4C6H4C6H4C6H4C6H4C6H4C6H4C6H4C6H4C6H4C6H4C6H4C6H4C6H4C6H4C6H4C6H4C6H4C6H4NC4H12NC4H12NC4H12NC4H12NC4H12NC4H12NC4H12NC4H12NC4H12NC4H12NC4H12NC4H12NC4H12NC4H12NC4H12NC4H12NC4H12NC4H12NC4H12NC4H12NC4H12NC4H12NC4H12NC4H12NC4H12NC4H12NC4H12NC4H12NC4H12NC4H12NC4H12NC4H12NC4H12NC4H12NC4H12NC4H12NC4H12NC4H12NC4H12NC4H12NC4H12NC4H12NC4H12NC4H12NC4H12NC4H12NC4H12NC4H12
_chemical_formula_sum              "Fe96 S192 C480 H768 N48"
_cell_length_a       53.446333930195124
_cell_length_b       53.57907158321627
_cell_length_c       31.60965584974947
_cell_angle_alpha    89.93411079242529
_cell_angle_beta     89.57271740069656
_cell_angle_gamma    89.6810903957456

_space_group_name_H-M_alt    "P 1"
_space_group_IT_number       1

loop_
  _space_group_symop_operation_xyz
  'x, y, z'

loop_
  _atom_site_type_symbol
  _atom_site_label
  _atom_site_symmetry_multiplicity
  _atom_site_fract_x
  _atom_site_fract_y
  _atom_site_fract_z
  _atom_site_occupancy
  Fe  Fe1       1.0  0.9615847124932598  0.4098421683312418  0.7702840436288634  1.0000
  S   S1        1.0  0.9648321821376626  0.4318166722880247  0.7103011533817597  1.0000
  S   S2        1.0  0.9889158310377637  0.3779097094624154  0.7726545397849631  1.0000
  Fe  Fe2       1.0  0.9178405120364872  0.44094118173776414  0.8035781618891139  1.0000
  S   S3        1.0  0.917556536027892  0.4651062686817463  0.7455837338506291  1.0000
  S   S4        1.0  0.8892841831942275  0.4538387878589676  0.8518993992603817  1.0000
  Fe  Fe3       1.0  0.9229581924621181  0.42947591887187175  0.7095360410005797  1.0000
  S   S5        1.0  0.8993139328414033  0.41810295066225395  0.6541947366588912  1.0000
  Fe  Fe4       1.0  0.9592011381664218  0.46502171118814156  0.7521722827209216  1.0000
  S   S6        1.0  0.9838298997203647  0.49877327172392794  0.7518517227235879  1.0000
  S   S7        1.0  0.9199248875669234  0.40503653168536713  0.7669710748961013  1.0000
  S   S8        1.0  0.9593579613817482  0.4433622880376084  0.8127117622039132  1.0000
  Fe  Fe5       1.0  0.14386249437726167  0.44214937702399604  0.7351900683035894  1.0000
  S   S9        1.0  0.14144987775225645  0.44909098609886705  0.8045935658925477  1.0000
  S   S10       1.0  0.1296049911773671  0.4723630407666094  0.6929074873678845  1.0000
  Fe  Fe6       1.0  0.1611839691707126  0.38925621632253055  0.7463423097356685  1.0000
  S   S11       1.0  0.15988559470546296  0.3911696163697383  0.8175086973791313  1.0000
  S   S12       1.0  0.1709447627649585  0.3532592497935151  0.7133721595055056  1.0000
  Fe  Fe7       1.0  0.12370139329829519  0.4115932560999222  0.8082541554769382  1.0000
  S   S13       1.0  0.0912620546301445  0.41067852571085883  0.8535701994068773  1.0000
  Fe  Fe8       1.0  0.17785320232837268  0.4285015453778787  0.8084122064497716  1.0000
  S   S14       1.0  0.2061408833928044  0.44585905346390736  0.8516085887532735  1.0000
  S   S15       1.0  0.12295950809947834  0.4061288263672946  0.7381142268580099  1.0000
  S   S16       1.0  0.1822379089485758  0.42515522082831947  0.7379123061430847  1.0000
  Fe  Fe9       1.0  0.9310781275420785  0.6262874908476747  0.7405708403616045  1.0000
  S   S17       1.0  0.9372053111371056  0.6177501141878157  0.8090149007786299  1.0000
  S   S18       1.0  0.9265203566924234  0.5956718718669293  0.6928918487641538  1.0000
  Fe  Fe10      1.0  0.9277935661491918  0.6819345365420594  0.7550824607257302  1.0000
  S   S19       1.0  0.9331634473314081  0.6783527360047086  0.8250502500846448  1.0000
  S   S20       1.0  0.9255386324702439  0.7199097683310001  0.7252717706233492  1.0000
  Fe  Fe11      1.0  0.9628889882532344  0.6506117522654028  0.8075840433453421  1.0000
  S   S21       1.0  0.9985334392373043  0.6516332572676455  0.8446409525030344  1.0000
  Fe  Fe12      1.0  0.9069289312347761  0.6459938664596899  0.8205864145360213  1.0000
  S   S22       1.0  0.8771887027040289  0.6343531039540073  0.8670752504410025  1.0000
  S   S23       1.0  0.9598160729836995  0.6566294837252534  0.7375202523704265  1.0000
  S   S24       1.0  0.8985975327093417  0.6521199545111929  0.7518779443315219  1.0000
  Fe  Fe13      1.0  0.17648326748746015  0.5947613220376317  0.7325531649979012  1.0000
  S   S25       1.0  0.152919560432421  0.5816486909775365  0.786493466798714  1.0000
  S   S26       1.0  0.199942877939644  0.5663428811296174  0.6988088478880851  1.0000
  Fe  Fe14      1.0  0.15909450766986982  0.6481111940990405  0.741754517264435  1.0000
  S   S27       1.0  0.13471180856617226  0.6397182495014809  0.7984355029603474  1.0000
  S   S28       1.0  0.1609433011171863  0.6867826476239778  0.713215290371539  1.0000
  Fe  Fe15      1.0  0.1669487019184599  0.6156321354466703  0.8198801841303829  1.0000
  S   S29       1.0  0.17952848206727856  0.605232976892083  0.8856527186271508  1.0000
  Fe  Fe16      1.0  0.12313297512955164  0.6063574441649067  0.7606071919793129  1.0000
  S   S30       1.0  0.08425545217031045  0.5923179035394198  0.7495936052718108  1.0000
  S   S31       1.0  0.19263454382530595  0.6272796123817791  0.7669665660456281  1.0000
  S   S32       1.0  0.14540392718161574  0.6162218136332229  0.7028070177441805  1.0000
  Fe  Fe17      1.0  0.40564322108146755  0.9625476857525689  0.2615917075270002  1.0000
  S   S33       1.0  0.44016192719382435  0.9451072811531271  0.28880588179188466  1.0000
  S   S34       1.0  0.395527330207214  0.00201851758009175  0.2782936213936375  1.0000
  Fe  Fe18      1.0  0.38928005828164636  0.9148869432065395  0.21884358150853792  1.0000
  S   S35       1.0  0.4223109237029677  0.8935605803204707  0.24278276822193712  1.0000
  S   S36       1.0  0.36242889306060877  0.8922068454912675  0.1807189286684759  1.0000
  Fe  Fe19      1.0  0.4151836128086348  0.912979550636431  0.3043653443436546  1.0000
  S   S37       1.0  0.41758371192688115  0.8901094390782418  0.3640932146809081  1.0000
  Fe  Fe20      1.0  0.4438970356488537  0.9274769795805216  0.22459969462547957  1.0000
  S   S38       1.0  0.47986871500213835  0.9210098759432808  0.18954576006482352  1.0000
  S   S39       1.0  0.38006878150827045  0.9316049910812622  0.28212053053999814  1.0000
  S   S40       1.0  0.41150087936516955  0.9477062145212801  0.19580825099971008  1.0000
  Fe  Fe21      1.0  0.4607515433906268  0.11959382882593879  0.28326845788762756  1.0000
  S   S41       1.0  0.4647032015815579  0.13284926389348709  0.3500778243464607  1.0000
  S   S42       1.0  0.4788613688906717  0.08389684263460463  0.26070920765021405  1.0000
  Fe  Fe22      1.0  0.42566529276714893  0.1615569124617849  0.259041817085015  1.0000
  S   S43       1.0  0.4259131606098074  0.17807250217660547  0.3239942202121576  1.0000
  S   S44       1.0  0.40125513078336245  0.18013455531887632  0.21081444590260465  1.0000
  Fe  Fe23      1.0  0.46716394105619613  0.17090047844085318  0.32092661342347256  1.0000
  S   S45       1.0  0.48985237993248754  0.20204149828365459  0.34778651918091374  1.0000
  Fe  Fe24      1.0  0.42321618591640964  0.13883326582994007  0.34753365524889634  1.0000
  S   S46       1.0  0.4002734734610981  0.12457082179474145  0.40225894739528134  1.0000
  S   S47       1.0  0.4673377907046778  0.15734333405971535  0.253773051481528  1.0000
  S   S48       1.0  0.4188808966865737  0.12282516960964321  0.2826678904436863  1.0000
  Fe  Fe25      1.0  0.6255993769994355  0.16392918950396473  0.32869230656840437  1.0000
  S   S49       1.0  0.610946290840138  0.1579830644556286  0.26351960251508877  1.0000
  S   S50       1.0  0.6041148596311166  0.18175588175243318  0.3818751557576026  1.0000
  Fe  Fe26      1.0  0.6781797117487183  0.1478494756021215  0.30509903389120563  1.0000
  S   S51       1.0  0.6684863543729137  0.1405782531353912  0.23678934204417365  1.0000
  S   S52       1.0  0.7164714202815885  0.1450196072383494  0.33399811198523716  1.0000
  Fe  Fe27      1.0  0.6462012889674706  0.1762738107485294  0.24102916640769875  1.0000
  S   S53       1.0  0.6425614701254246  0.20973877529932392  0.19780014322602937  1.0000
  Fe  Fe28      1.0  0.6339964847223654  0.122872905800943  0.2648394784264015  1.0000
  S   S54       1.0  0.614379049340815  0.0883293782399787  0.24284723829681545  1.0000
  S   S55       1.0  0.6591904631804686  0.18499315563918428  0.3065626410437012  1.0000
  S   S56       1.0  0.6455070651690824  0.12719238439763736  0.3326119886103066  1.0000
  Fe  Fe29      1.0  0.6367800569164308  0.9210739794017008  0.3413511417565287  1.0000
  S   S57       1.0  0.660441956594498  0.9169285884076247  0.2826019666265322  1.0000
  S   S58       1.0  0.6460366119112971  0.9028681714105514  0.4034981005157946  1.0000
  Fe  Fe30      1.0  0.5964807722309384  0.9511350176747977  0.29663050861488166  1.0000
  S   S59       1.0  0.6162640296254523  0.948884341237409  0.23415142417839407  1.0000
  S   S60       1.0  0.5605382052569143  0.9729355996223588  0.3019842763211666  1.0000
  Fe  Fe31      1.0  0.6238803629938382  0.9090256719129413  0.25079056051382514  1.0000
  S   S61       1.0  0.6157129277905191  0.8788787737072894  0.20342479956113965  1.0000
  Fe  Fe32      1.0  0.6505491652723102  0.9573356495494821  0.2718623256328512  1.0000
  S   S62       1.0  0.6767574870442113  0.9878482164406057  0.25122100574826556  1.0000
  S   S63       1.0  0.6007673023236147  0.9103362816349305  0.310298677391813  1.0000
  S   S64       1.0  0.630196594762341  0.9621996622546459  0.3334970858315276  1.0000
  Fe  Fe33      1.0  0.9060206808215268  0.7430280803669331  0.4948391056010039  1.0000
  S   S65       1.0  0.9293414005243682  0.774044418669022  0.5204960229976705  1.0000
  S   S66       1.0  0.8844797247418408  0.71783031707368  0.5388573903144283  1.0000
  Fe  Fe34      1.0  0.9202170510016391  0.7542732711689785  0.4036252493141646  1.0000
  S   S67       1.0  0.9448913403286029  0.7863176896662097  0.4225881668941257  1.0000
  S   S68       1.0  0.9206722559869198  0.7445337229306427  0.3338226077108075  1.0000
  Fe  Fe35      1.0  0.9585804195955103  0.7609400781537623  0.4740573856756978  1.0000
  S   S69       1.0  0.997623617961153  0.7505704237769758  0.4960004927028356  1.0000
  Fe  Fe36      1.0  0.9132370557248353  0.7964589306763604  0.46716279537138755  1.0000
  S   S70       1.0  0.9011976157546612  0.836558154544776  0.47880733025798977  1.0000
  S   S71       1.0  0.9361091282482817  0.7281637164654619  0.45216522163950446  1.0000
  S   S72       1.0  0.887634823167157  0.7663077935135253  0.44438628123794155  1.0000
  Fe  Fe37      1.0  0.18472922014346388  0.7816648228935409  0.48654438290812874  1.0000
  S   S73       1.0  0.20431904538361417  0.7459889035874617  0.4677522214160078  1.0000
  S   S74       1.0  0.19631401580316554  0.8115896600429351  0.533406883315782  1.0000
  Fe  Fe38      1.0  0.1374698365861389  0.7695382879662469  0.4361773305506156  1.0000
  S   S75       1.0  0.15299832889169362  0.733009231504621  0.41241038598365254  1.0000
  S   S76       1.0  0.10078433385894991  0.7886412202940899  0.4187977176128332  1.0000
  Fe  Fe39      1.0  0.16686100861991782  0.7280444353837715  0.47923041776383446  1.0000
  S   S77       1.0  0.16089348324199867  0.6913727614049794  0.5130821210157199  1.0000
  Fe  Fe40      1.0  0.18926018887179308  0.7533758344229275  0.40225968658626615  1.0000
  S   S78       1.0  0.21285967091578722  0.7537855317969178  0.3419329141715416  1.0000
  S   S79       1.0  0.14848259996793553  0.7628276823927673  0.5034336182987947  1.0000
  S   S80       1.0  0.17262927782143372  0.7905472737561354  0.4205835071563812  1.0000
  Fe  Fe41      1.0  0.25106269482331983  0.663116125866481  0.15678459177241233  1.0000
  S   S81       1.0  0.29208525332918517  0.6535814241157968  0.1578533608717456  1.0000
  S   S82       1.0  0.22953251158466087  0.6612371550577338  0.2188247896082341  1.0000
  Fe  Fe42      1.0  0.25129375709407104  0.6703491759061629  0.06105869109413079  1.0000
  S   S83       1.0  0.2920666146640064  0.6612012017219483  0.05538999562613318  1.0000
  S   S84       1.0  0.23442137659518567  0.6844208752462342  0.00019064436038296328  1.0000
  Fe  Fe43      1.0  0.28377046882928236  0.6299254974776778  0.10097631975894132  1.0000
  S   S85       1.0  0.3024744784234721  0.5926580761796073  0.08642897072360102  1.0000
  Fe  Fe44      1.0  0.2965258693114338  0.6855412919195975  0.11216936255078247  1.0000
  S   S86       1.0  0.3245537556265147  0.7168366614832951  0.11988100213712222  1.0000
  S   S87       1.0  0.24236251694693617  0.6372718903937253  0.10233603754006443  1.0000
  S   S88       1.0  0.25607069838563795  0.6967809225826006  0.11550353968735402  1.0000
  Fe  Fe45      1.0  0.2658393597549431  0.39796250882281875  0.15919324498674353  1.0000
  S   S89       1.0  0.29607315701199427  0.4261237283024261  0.14781550160919404  1.0000
  S   S90       1.0  0.26584865626058624  0.3838321772233644  0.22685266549097485  1.0000
  Fe  Fe46      1.0  0.24923501744863025  0.4010987558117697  0.06709984997323638  1.0000
  S   S91       1.0  0.27805203960875624  0.42971165146907075  0.04930758479852123  1.0000
  S   S92       1.0  0.2224093845290005  0.3846385187024021  0.02025712268851798  1.0000
  Fe  Fe47      1.0  0.30391639398004855  0.4051465964272348  0.08754782980526929  1.0000
  S   S93       1.0  0.34431999139799024  0.3947183736576588  0.0730610440340825  1.0000
  Fe  Fe48      1.0  0.26740404163828263  0.4478914415448988  0.11131728749694458  1.0000
  S   S94       1.0  0.2539829250287206  0.4870256733638412  0.12873549359622408  1.0000
  S   S95       1.0  0.2756755124313747  0.3754760298985194  0.10149150264436604  1.0000
  S   S96       1.0  0.23657660609030676  0.42062701961987975  0.12625619612452965  1.0000
  Fe  Fe49      1.0  0.8526932099464382  0.6724554739225185  0.09186627202388295  1.0000
  S   S97       1.0  0.8152088022137266  0.6659729780249246  0.06265625479474284  1.0000
  S   S98       1.0  0.8865246192194378  0.6789795232238058  0.050680904873446675  1.0000
  Fe  Fe50      1.0  0.8314742421376915  0.6754944368954987  0.18151840154484447  1.0000
  S   S99       1.0  0.7921397759382625  0.6703652787983752  0.15838667069286363  1.0000
  S   S100      1.0  0.8360606972969126  0.6768129225497167  0.2527876156230983  1.0000
  Fe  Fe51      1.0  0.8090876300372869  0.6399684248330729  0.11777889241119291  1.0000
  S   S101      1.0  0.7889925444750294  0.6027521212899668  0.11315335434206493  1.0000
  Fe  Fe52      1.0  0.8020245528820259  0.6967725671987153  0.10567164643033865  1.0000
  S   S102      1.0  0.7851293868369051  0.7330881621480678  0.08162029644526149  1.0000
  S   S103      1.0  0.8479303433050962  0.6439377575425335  0.14334495270025296  1.0000
  S   S104      1.0  0.840089587535755  0.704386043593629  0.13245920474216807  1.0000
  Fe  Fe53      1.0  0.7961218913733099  0.4168739960702033  0.09160652198610891  1.0000
  S   S105      1.0  0.8244667440778839  0.38684855822850184  0.10464413831694616  1.0000
  S   S106      1.0  0.7589797960063186  0.4090479379595993  0.0594795359395931  1.0000
  Fe  Fe54      1.0  0.8305457869985123  0.4589035096143291  0.12308262519987136  1.0000
  S   S107      1.0  0.8613563850064395  0.4313527931433175  0.13708447969046667  1.0000
  S   S108      1.0  0.8432253522717342  0.4979225713616403  0.1414287116323306  1.0000
  Fe  Fe55      1.0  0.8517171495437151  0.4137579145176265  0.07520205542854182  1.0000
  S   S109      1.0  0.88113669429987  0.39938034926343824  0.029442493958733662  1.0000
  Fe  Fe56      1.0  0.8314115571601695  0.4073694589436609  0.1653945198920383  1.0000
  S   S110      1.0  0.8329753312009993  0.39160128926542337  0.2321371635185683  1.0000
  S   S111      1.0  0.8230695357707826  0.4428216255644227  0.05870413032505301  1.0000
  S   S112      1.0  0.8008856614685628  0.4357837666599592  0.15484652353723874  1.0000
  Fe  Fe57      1.0  0.9130814913258029  0.30074963824603934  0.45092015103260225  1.0000
  S   S113      1.0  0.9118940795261924  0.3410620023672023  0.4298609784245296  1.0000
  S   S114      1.0  0.8744082657520176  0.2846834037135626  0.4641631788040934  1.0000
  Fe  Fe58      1.0  0.969140395495777  0.295887700876661  0.43046670575010987  1.0000
  S   S115      1.0  0.9715450843025281  0.33504414171146446  0.4065839400572123  1.0000
  S   S116      1.0  0.0033839533033741542  0.2709811740404629  0.4253214001028699  1.0000
  Fe  Fe59      1.0  0.9484244499666022  0.3443874898518975  0.4639916323943198  1.0000
  S   S117      1.0  0.9632215867936142  0.3768855867309169  0.5011691681429545  1.0000
  Fe  Fe60      1.0  0.9349393226705643  0.3280487570595965  0.3745778832379306  1.0000
  S   S118      1.0  0.9294788985862568  0.3377321080948511  0.30536577808881865  1.0000
  S   S119      1.0  0.9478741380334784  0.30533863474167305  0.4902473012690836  1.0000
  S   S120      1.0  0.9344376744759167  0.28769545647728484  0.39343901438271833  1.0000
  Fe  Fe61      1.0  0.1780023179976645  0.32303589733115373  0.39343987640803973  1.0000
  S   S121      1.0  0.15907509887111154  0.2872179715656257  0.4123657564593051  1.0000
  S   S122      1.0  0.1730721420876807  0.33722218907707835  0.3261083417863055  1.0000
  Fe  Fe62      1.0  0.19411221027096193  0.33351775107893383  0.48454630831031215  1.0000
  S   S123      1.0  0.17660054007538878  0.2988164653321821  0.5104358936581442  1.0000
  S   S124      1.0  0.2127523661008174  0.3616721594060066  0.5264117684375476  1.0000
  Fe  Fe63      1.0  0.19321917476292322  0.2805997782059197  0.452640400203544  1.0000
  S   S125      1.0  0.21726028577152728  0.24571868415224563  0.4506173785307538  1.0000
  Fe  Fe64      1.0  0.14415706378427717  0.3086561173419926  0.46829488961116267  1.0000
  S   S126      1.0  0.10505341031534023  0.31527364737041524  0.49423974367117335  1.0000
  S   S127      1.0  0.2131776322776758  0.3149390306396383  0.42945713269314734  1.0000
  S   S128      1.0  0.16076901538953503  0.34485351548602533  0.44670246696477983  1.0000
  Fe  Fe65      1.0  0.7531239393128298  0.9324295200173329  0.5555367311924568  1.0000
  S   S129      1.0  0.794556916275071  0.9308443595504388  0.5663286089156777  1.0000
  S   S130      1.0  0.7429374603986482  0.9456857972061743  0.49024400120274436  1.0000
  Fe  Fe66      1.0  0.7408280994060499  0.9178599326876509  0.6475989614499403  1.0000
  S   S131      1.0  0.7814359453574452  0.9145824706980293  0.6640568815307962  1.0000
  S   S132      1.0  0.7107605570926175  0.9173987568171473  0.6988413577298221  1.0000
  Fe  Fe67      1.0  0.7856458153473269  0.9504706065370112  0.6274312609121548  1.0000
  S   S133      1.0  0.8038092647161789  0.9847412188738741  0.6554355696591236  1.0000
  Fe  Fe68      1.0  0.7859113449826504  0.8953502385397313  0.6010449162491313  1.0000
  S   S134      1.0  0.8041891465494423  0.857625129607517  0.5895059286273818  1.0000
  S   S135      1.0  0.744921857373856  0.9545743424742545  0.6138498175685638  1.0000
  S   S136      1.0  0.7446146897766873  0.8958945792754469  0.5872085574915615  1.0000
  Fe  Fe69      1.0  0.7537479231340739  0.17308084329560514  0.5591534722907188  1.0000
  S   S137      1.0  0.788418280206542  0.15477689218988594  0.533114720298892  1.0000
  S   S138      1.0  0.7204374889098292  0.18639801374724338  0.5217612201496649  1.0000
  Fe  Fe70      1.0  0.7684667372693035  0.16385442475830767  0.6508504782252655  1.0000
  S   S139      1.0  0.8036952857875257  0.14365205461045574  0.631449982784401  1.0000
  S   S140      1.0  0.759055505107741  0.16592108892522908  0.720964655725065  1.0000
  Fe  Fe71      1.0  0.8083101104719328  0.17531348097029945  0.5849882402869768  1.0000
  S   S141      1.0  0.8466874869806632  0.1933818485440624  0.5848603770718018  1.0000
  Fe  Fe72      1.0  0.780670652585326  0.12501536779291275  0.5817811974468985  1.0000
  S   S142      1.0  0.7779668347548926  0.08534242562810121  0.5574954998029193  1.0000
  S   S143      1.0  0.7740934945317619  0.19632962852224728  0.6070689146237372  1.0000
  S   S144      1.0  0.7449763590887053  0.1424582254775549  0.6050768369811479  1.0000
  Fe  Fe73      1.0  0.6962374951031367  0.28452987349376685  0.9636826564551383  1.0000
  S   S145      1.0  0.7059552030016149  0.2461395132638442  0.9391651206995593  1.0000
  S   S146      1.0  0.7290588594606393  0.2994471527364555  0.0014959238385059415  1.0000
  Fe  Fe74      1.0  0.6427274591020717  0.281026845950413  0.929046825081316  1.0000
  S   S147      1.0  0.6494228817588535  0.24288921012681505  0.9021031329362362  1.0000
  S   S148      1.0  0.6041688983496714  0.29649286383640394  0.9140913591490673  1.0000
  Fe  Fe75      1.0  0.6681021164941391  0.235306344335091  0.9642120496749803  1.0000
  S   S149      1.0  0.6611359084418705  0.1994138124528847  0.00032162459800177956  1.0000
  Fe  Fe76      1.0  0.6864714784432318  0.25753591411973625  0.8795831381227209  1.0000
  S   S150      1.0  0.7008889678647019  0.2550364617361796  0.8116618571696937  1.0000
  S   S151      1.0  0.6594666092827799  0.2726657047336604  0.9926395285168039  1.0000
  S   S152      1.0  0.6787553943485699  0.29666613630884253  0.9024258790286781  1.0000
  Fe  Fe77      1.0  0.4346060818735013  0.21734870416076293  0.9911676295599834  1.0000
  S   S153      1.0  0.43724935338882603  0.2517786863656244  0.030760442313564784  1.0000
  S   S154      1.0  0.43816583247749546  0.17924032148007382  0.02086912896861048  1.0000
  Fe  Fe78      1.0  0.4339266231385699  0.24701169424452757  0.9089395737587463  1.0000
  S   S155      1.0  0.4386269664969687  0.28381096206211687  0.9426927355677569  1.0000
  S   S156      1.0  0.42842358306137995  0.24721077483151294  0.8377462212006994  1.0000
  Fe  Fe79      1.0  0.4667427139679551  0.263250922991296  0.9832934607990991  1.0000
  S   S157      1.0  0.5036609301787356  0.27240275553950094  0.01527420423853143  1.0000
  Fe  Fe80      1.0  0.4091096652506844  0.2689953464308584  0.9870450727362833  1.0000
  S   S158      1.0  0.371278909501844  0.2867728508787703  0.0019841211952034143  1.0000
  S   S159      1.0  0.4647829105516962  0.228081496914557  0.9451783240800077  1.0000
  S   S160      1.0  0.4036647978149488  0.23296228306315947  0.9517821652374366  1.0000
  Fe  Fe81      1.0  0.6840215942023861  0.8321158208122825  0.8983373407191794  1.0000
  S   S161      1.0  0.6579827831213553  0.7994859540741998  0.9037470180877298  1.0000
  S   S162      1.0  0.7095159041062856  0.8331733144341934  0.8405127020355718  1.0000
  Fe  Fe82      1.0  0.6681072320889425  0.8517200258937797  0.9848865012333218  1.0000
  S   S163      1.0  0.640425907436644  0.820933077311703  0.9962052856481012  1.0000
  S   S164      1.0  0.6782726475221169  0.8808178289446721  0.03327834240441744  1.0000
  Fe  Fe83      1.0  0.671138048210123  0.7960065252556361  0.9708009404782149  1.0000
  S   S165      1.0  0.6790713649203185  0.7584655197928778  0.001787378953239438  1.0000
  Fe  Fe84      1.0  0.6297104770497645  0.8272145698152611  0.9283115797777345  1.0000
  S   S166      1.0  0.5918895978485516  0.8282743531029384  0.8957312285314486  1.0000
  S   S167      1.0  0.699384968166225  0.8264264709957867  0.9636510456481132  1.0000
  S   S168      1.0  0.6551747390255667  0.860250954563431  0.9189078711241809  1.0000
  Fe  Fe85      1.0  0.4035783005503796  0.8532701941235168  0.9617626308487978  1.0000
  S   S169      1.0  0.4152240011513558  0.8192909463186172  0.998260143166307  1.0000
  S   S170      1.0  0.39278558189633545  0.8909401719158484  0.9871979553245618  1.0000
  Fe  Fe86      1.0  0.4172786423270147  0.831207363837004  0.876493003628795  1.0000
  S   S171      1.0  0.43105435466234754  0.7952212266940027  0.9056048666710573  1.0000
  S   S172      1.0  0.42026469812345263  0.8426483623505139  0.8073250069998573  1.0000
  Fe  Fe87      1.0  0.39626105975387477  0.7978938994226328  0.9465152533987808  1.0000
  S   S173      1.0  0.37107319792196086  0.7638992492061132  0.9525054399348406  1.0000
  Fe  Fe88      1.0  0.44909100484382086  0.8192656284213937  0.9551846561467795  1.0000
  S   S174      1.0  0.48638405744723734  0.8162253825743757  0.9890561096355817  1.0000
  S   S175      1.0  0.38144717649041726  0.8322966420987916  0.9136623398289623  1.0000
  S   S176      1.0  0.43848319691864596  0.8547205960392247  0.922606215413458  1.0000
  Fe  Fe89      1.0  0.30915757948857736  0.9041746052618552  0.5557690423274395  1.0000
  S   S177      1.0  0.34596492301266707  0.8931758326902784  0.5843015384878689  1.0000
  S   S178      1.0  0.2941163584560243  0.8769711468815227  0.5072732068376625  1.0000
  Fe  Fe90      1.0  0.3089580663745218  0.9554012882522482  0.6002897354391268  1.0000
  S   S179      1.0  0.34532054968602977  0.9477639345329631  0.6330502100016642  1.0000
  S   S180      1.0  0.2870207858406365  0.9915833907925894  0.607412995963173  1.0000
  Fe  Fe91      1.0  0.35751070579713934  0.9324895466704413  0.5697100331999965  1.0000
  S   S181      1.0  0.3926617329333043  0.9450627807874865  0.5365608100018492  1.0000
  Fe  Fe92      1.0  0.3302097030356342  0.9091616155906048  0.6446446137254409  1.0000
  S   S182      1.0  0.3278325287792074  0.887579911334686  0.7065389357517046  1.0000
  S   S183      1.0  0.3220370657937898  0.9424031707333975  0.536424216695479  1.0000
  S   S184      1.0  0.2924520000501574  0.9179549829751906  0.6166978416066412  1.0000
  Fe  Fe93      1.0  0.33202161987598433  0.1334444055366471  0.6201386067343099  1.0000
  S   S185      1.0  0.3638785520938309  0.158709901321321  0.6367575833016974  1.0000
  S   S186      1.0  0.34670661498160277  0.09371993360903516  0.6150575624826731  1.0000
  Fe  Fe94      1.0  0.294588600807823  0.1771866612551429  0.6207896566279962  1.0000
  S   S187      1.0  0.3236525290864539  0.20521758462494014  0.6391534542844146  1.0000
  S   S188      1.0  0.2543368449206922  0.19022753611321022  0.6166344806475951  1.0000
  Fe  Fe95      1.0  0.3470285374650639  0.18523262259642193  0.5902603645349576  1.0000
  S   S189      1.0  0.36946939538380935  0.2045304004791219  0.5397863661236263  1.0000
  Fe  Fe96      1.0  0.33767808593664994  0.1758211256575056  0.6842019608087857  1.0000
  S   S190      1.0  0.34716387348410543  0.17673070693575813  0.7540600154011677  1.0000
  S   S191      1.0  0.3172347788672035  0.15877951235607124  0.5691565145417589  1.0000
  S   S192      1.0  0.306464208351996  0.14918940407858317  0.6699936761415628  1.0000
  C   C1        1.0  0.3035881710212952  0.02000747390934854  0.6095742587812037  1.0000
  C   C2        1.0  0.329722835067954  0.02033948648069006  0.6080549512869179  1.0000
  C   C3        1.0  0.3425410010009803  0.043124713130336056  0.610101232335595  1.0000
  C   C4        1.0  0.32939580120966233  0.0658044190028752  0.6132145995039711  1.0000
  C   C5        1.0  0.3032461304835813  0.06560769414016178  0.6145698476908719  1.0000
  C   C6        1.0  0.2903975303643804  0.04272765162488357  0.6128246279859861  1.0000
  H   H1        1.0  0.34008208307387977  0.003002232151968931  0.6053573926564838  1.0000
  H   H2        1.0  0.3627882768365855  0.04311914785166126  0.6090038961929007  1.0000
  H   H3        1.0  0.292917799745315  0.08298272582440765  0.616972903520358  1.0000
  H   H4        1.0  0.2701532668030039  0.042581925535490894  0.6139856440039682  1.0000
  C   C7        1.0  0.394327506474078  0.8541103750662741  0.7786629869983599  1.0000
  C   C8        1.0  0.3698244667228285  0.851110794673344  0.7935212063412442  1.0000
  C   C9        1.0  0.3496439709547617  0.8610902626294038  0.7705577364047673  1.0000
  C   C10       1.0  0.3537833035657857  0.8743988910323338  0.7328624170467709  1.0000
  C   C11       1.0  0.37823448289958567  0.8771303823460548  0.7176207095494468  1.0000
  C   C12       1.0  0.3984154722200028  0.8669266158920487  0.7404174429021826  1.0000
  H   H5        1.0  0.3664168092127944  0.8409934138706328  0.8225878558858716  1.0000
  H   H6        1.0  0.3307529026993746  0.858762770703217  0.7824070075163452  1.0000
  H   H7        1.0  0.38164596725725886  0.8872547172747852  0.6885117700689712  1.0000
  H   H8        1.0  0.4173299679461773  0.8691902296007382  0.7285960495746125  1.0000
  C   C13       1.0  0.5627703838169907  0.8251116189769109  0.9224768300743799  1.0000
  C   C14       1.0  0.5405325670347239  0.8267114933311589  0.8990962892406152  1.0000
  C   C15       1.0  0.517016349140879  0.8241067406865167  0.9190401443998151  1.0000
  C   C16       1.0  0.5155371884490926  0.8197972912454148  0.9626314545269762  1.0000
  C   C17       1.0  0.537766748861774  0.8183072805007877  0.9860668034516764  1.0000
  C   C18       1.0  0.5612913380331302  0.820971351708626  0.9661311769516939  1.0000
  H   H9        1.0  0.5414697159749752  0.8298843592975815  0.8653325063113058  1.0000
  H   H10       1.0  0.5000593694604735  0.8252509720343812  0.9006408169207781  1.0000
  H   H11       1.0  0.536802687499374  0.8149158258121312  0.019771298037199347  1.0000
  H   H12       1.0  0.5782443788366445  0.819655080783445  0.9844730598731868  1.0000
  C   C19       1.0  0.40656905670373633  0.22685026175486844  0.8142373222889949  1.0000
  C   C20       1.0  0.40101905600879495  0.2293939724205099  0.771040149788847  1.0000
  C   C21       1.0  0.3829886888623737  0.2140637211764348  0.751910134212798  1.0000
  C   C22       1.0  0.3703288146145496  0.19614735297422348  0.7760052662201428  1.0000
  C   C23       1.0  0.37597169821161136  0.1935565519532892  0.8190992811630508  1.0000
  C   C24       1.0  0.3941008430507304  0.20870727004245038  0.8380794793957812  1.0000
  H   H13       1.0  0.4106594005628909  0.2433103413525455  0.7523097945189233  1.0000
  H   H14       1.0  0.37881541517328077  0.21617805760722733  0.7186513998743302  1.0000
  H   H15       1.0  0.3663213114699785  0.1797005169057159  0.8379309258666179  1.0000
  H   H16       1.0  0.3984328411804128  0.20627211268419493  0.8711527521621119  1.0000
  C   C25       1.0  0.5765440776704513  0.2891334316739253  0.942538377678342  1.0000
  C   C26       1.0  0.5769929001843539  0.2832916154861949  0.9856638659177142  1.0000
  C   C27       1.0  0.5544958079085524  0.27826941260008964  0.007534585332460653  1.0000
  C   C28       1.0  0.5314605040497253  0.2784861274000416  0.986318298631895  1.0000
  C   C29       1.0  0.5310739590895971  0.28385262058109484  0.9430369916496176  1.0000
  C   C30       1.0  0.5534895783240494  0.2895155085176704  0.9214261923634467  1.0000
  H   H17       1.0  0.5945874543582778  0.28338645435844745  0.002357632223558115  1.0000
  H   H18       1.0  0.5549290640346786  0.2744570182932859  0.04111998767723013  1.0000
  H   H19       1.0  0.513449210762795  0.2842795910059901  0.9264060148360443  1.0000
  H   H20       1.0  0.5529661645399319  0.29422672356025237  0.8881352275233494  1.0000
  C   C31       1.0  0.7441048321042483  0.19126688339103531  0.746766089737797  1.0000
  C   C32       1.0  0.7335498316351036  0.18758922606556327  0.7871274148536185  1.0000
  C   C33       1.0  0.7206908390244776  0.20707951160636784  0.8080054155473553  1.0000
  C   C34       1.0  0.718299782777348  0.23040137654520462  0.7885358543210805  1.0000
  C   C35       1.0  0.7292976212121561  0.23419042830613326  0.7485294618894487  1.0000
  C   C36       1.0  0.7423711788470022  0.21481176989157022  0.7279123740854737  1.0000
  H   H21       1.0  0.7350289082069423  0.16948376700256124  0.8021490479600911  1.0000
  H   H22       1.0  0.712331037700917  0.20397948002830904  0.8388389696128893  1.0000
  H   H23       1.0  0.7277003119682097  0.2522933223156374  0.7335179409076195  1.0000
  H   H24       1.0  0.7510322441196927  0.21816182307654067  0.6974712277730367  1.0000
  C   C37       1.0  0.7115597142124144  0.8945286809749934  0.7390890587563422  1.0000
  C   C38       1.0  0.72690398579436  0.8734208754396039  0.7356532054792271  1.0000
  C   C39       1.0  0.726359015297181  0.8550187218642014  0.7674252666090945  1.0000
  C   C40       1.0  0.7107817588085552  0.8577195929086779  0.8031265770662044  1.0000
  C   C41       1.0  0.6959614979251122  0.8792026160139642  0.8071573107069626  1.0000
  C   C42       1.0  0.6961354545868842  0.8973927749586705  0.7749746657963397  1.0000
  H   H25       1.0  0.738847075297087  0.8710216181737608  0.7081362143405618  1.0000
  H   H26       1.0  0.7379309363973872  0.8384833136661316  0.7641309546797858  1.0000
  H   H27       1.0  0.6842758914503264  0.8817327338606153  0.8349096953586338  1.0000
  H   H28       1.0  0.6842901433940509  0.9137446635923164  0.777898326559287  1.0000
  C   C43       1.0  0.7962588796226787  0.012889125806601731  0.6290290701858484  1.0000
  C   C44       1.0  0.8024681112426386  0.03601526394851784  0.646994336115012  1.0000
  C   C45       1.0  0.7966101491365761  0.05852621152989335  0.6259504081065649  1.0000
  C   C46       1.0  0.784747870625352  0.05793625124921119  0.5866153112003771  1.0000
  C   C47       1.0  0.7784387441286138  0.03479868937241992  0.5689705252452131  1.0000
  C   C48       1.0  0.7840416465549394  0.012412246261206406  0.5901137070823042  1.0000
  H   H29       1.0  0.8120259180919183  0.0365285286397361  0.6770088055266318  1.0000
  H   H30       1.0  0.8016787055791917  0.07624894580789407  0.6397068611732578  1.0000
  H   H31       1.0  0.7693002384607143  0.034073862486016404  0.5386190142711  1.0000
  H   H32       1.0  0.7793112283760255  0.9947507982941854  0.57577728547474  1.0000
  C   C49       1.0  0.2267772965823253  0.2298747026333934  0.49682882537700673  1.0000
  C   C50       1.0  0.24941994175721513  0.2164647914162758  0.49617178741512813  1.0000
  C   C51       1.0  0.25819869142248275  0.2044961411646523  0.5328394300766468  1.0000
  C   C52       1.0  0.24391354727266115  0.20508968192350802  0.5700583016750796  1.0000
  C   C53       1.0  0.22091280140298356  0.21792484356256345  0.5704105634653142  1.0000
  C   C54       1.0  0.21249291779493734  0.2305494744527292  0.5340582355021208  1.0000
  H   H33       1.0  0.2604337890620665  0.21566608550316582  0.4673324419743114  1.0000
  H   H34       1.0  0.27584380130746533  0.19452674282081295  0.532129175091246  1.0000
  H   H35       1.0  0.2096764683408684  0.21826449791770638  0.599028542893595  1.0000
  H   H36       1.0  0.19482125336535172  0.24048977716552783  0.5346797701358692  1.0000
  C   C55       1.0  0.86740227128738  0.25894745924307694  0.49738703694072584  1.0000
  C   C56       1.0  0.8426293308707291  0.2502791218316488  0.49931897297168726  1.0000
  C   C57       1.0  0.8360993254322855  0.23001548813887768  0.5255163356181121  1.0000
  C   C58       1.0  0.8542937113310736  0.21835118266576944  0.55033846985921  1.0000
  C   C59       1.0  0.8790600099450856  0.22705045879990343  0.5485209865142112  1.0000
  C   C60       1.0  0.8856442252183736  0.24718966540419854  0.5219999067415391  1.0000
  H   H37       1.0  0.8283737861022863  0.2593109711109444  0.4805375795705747  1.0000
  H   H38       1.0  0.8169758785250005  0.22352938976667192  0.5266822567922559  1.0000
  H   H39       1.0  0.8932734013179568  0.21806891479101767  0.567483865894906  1.0000
  H   H40       1.0  0.9047807703013725  0.2536392880038372  0.5206859498876064  1.0000
  C   C61       1.0  0.03171813691991732  0.28342379481292623  0.4438822823710396  1.0000
  C   C62       1.0  0.0320825440414636  0.3062018710950837  0.46537308405914096  1.0000
  C   C63       1.0  0.054768932708431216  0.3156741637587273  0.48049975421021923  1.0000
  C   C64       1.0  0.07730555255581475  0.3026978369994459  0.4736312828710822  1.0000
  C   C65       1.0  0.07707827437878532  0.2800477200951933  0.4517231542795572  1.0000
  C   C66       1.0  0.05427794393362939  0.2703783933312243  0.43706152471583976  1.0000
  H   H41       1.0  0.014794137403118413  0.3163562745997624  0.47083546481900884  1.0000
  H   H42       1.0  0.05478206160185282  0.3331670108475422  0.4975527437598843  1.0000
  H   H43       1.0  0.09429955988371282  0.26966753109898794  0.44706541758870033  1.0000
  H   H44       1.0  0.05403784766124975  0.25264178979904217  0.42072249460190125  1.0000
  C   C67       1.0  0.7500599344031973  0.3784114320296011  0.045030419320708975  1.0000
  C   C68       1.0  0.7651202139785477  0.35776607514397407  0.054463430805576765  1.0000
  C   C69       1.0  0.7583066468783053  0.3338287479092585  0.04074157724691729  1.0000
  C   C70       1.0  0.7363247808033679  0.3301710200875488  0.017550962328135578  1.0000
  C   C71       1.0  0.7210899658445812  0.3507320614343218  0.008222346804819702  1.0000
  C   C72       1.0  0.727956433969566  0.37477254245401964  0.02198421659809433  1.0000
  H   H45       1.0  0.7820255023861458  0.3601697825241783  0.07240107703617504  1.0000
  H   H46       1.0  0.7702192562235518  0.3180493883930831  0.04809730464138595  1.0000
  H   H47       1.0  0.7040892322559944  0.3481511144292369  0.990407788663794  1.0000
  H   H48       1.0  0.7161689848781365  0.39064057014677206  0.014506849962725886  1.0000
  C   C73       1.0  0.9025304124537507  0.3528037077450445  0.28580085848506054  1.0000
  C   C74       1.0  0.9001516587129605  0.3561607500645795  0.24195144630891807  1.0000
  C   C75       1.0  0.878836262612899  0.36783528054302295  0.22500705244910188  1.0000
  C   C76       1.0  0.8597145347975663  0.3762095569369232  0.251905983514079  1.0000
  C   C77       1.0  0.8620871326913248  0.37291909506575555  0.2957949002519485  1.0000
  C   C78       1.0  0.8834741948085018  0.3613322912835067  0.3127559786629503  1.0000
  H   H49       1.0  0.9148652605713982  0.34961185795456245  0.2209435794789473  1.0000
  H   H50       1.0  0.8771979423980888  0.3703006062554555  0.19113736200930886  1.0000
  H   H51       1.0  0.8473972163844753  0.3795138944234183  0.3167817333061871  1.0000
  H   H52       1.0  0.8852508021754263  0.3590330188886053  0.34659999055447666  1.0000
  C   C79       1.0  0.755443830173693  0.7391930098795204  0.05954215790763073  1.0000
  C   C80       1.0  0.7367015066490016  0.721143364412334  0.05744468430660343  1.0000
  C   C81       1.0  0.7134590861872357  0.7271467001878117  0.039080545341445116  1.0000
  C   C82       1.0  0.7089826105777999  0.751031412126511  0.022140480381834138  1.0000
  C   C83       1.0  0.7279315669384447  0.7688633059879867  0.0237424607068257  1.0000
  C   C84       1.0  0.7509272932811635  0.7630267406575906  0.04265787797895956  1.0000
  H   H53       1.0  0.7400037994234364  0.7026913872755829  0.07025588314094788  1.0000
  H   H54       1.0  0.6988669585177484  0.7132398915277679  0.03805208782503944  1.0000
  H   H55       1.0  0.7249010391102382  0.7872300862335995  0.010652902266520492  1.0000
  H   H56       1.0  0.76539192942894  0.7770565995720041  0.043980870757813866  1.0000
  C   C85       1.0  0.8046894007058668  0.5736194602591389  0.11786430271053007  1.0000
  C   C86       1.0  0.830157017051033  0.572177883990628  0.1274878772908681  1.0000
  C   C87       1.0  0.8416322735307324  0.5488226974216319  0.13418257569384698  1.0000
  C   C88       1.0  0.8279929066046122  0.5266073265534303  0.13028189818445565  1.0000
  C   C89       1.0  0.8026468900281242  0.5279556783456855  0.11974535085438706  1.0000
  C   C90       1.0  0.7910214042855241  0.5513993369046971  0.11391042724665566  1.0000
  H   H57       1.0  0.8410451199806251  0.5890216654966761  0.12998302839075604  1.0000
  H   H58       1.0  0.8612688394266064  0.547945289853741  0.14214070023452494  1.0000
  H   H59       1.0  0.7919073167035448  0.5109935063046046  0.11681607928602471  1.0000
  H   H60       1.0  0.7713151156877488  0.5523076235936887  0.10640315106514855  1.0000
  C   C91       1.0  0.35188194295958153  0.3653313426058698  0.05076215594796076  1.0000
  C   C92       1.0  0.3770052855147037  0.357442619902485  0.04893110157561816  1.0000
  C   C93       1.0  0.38343628033174854  0.33359068497412997  0.03331735763513598  1.0000
  C   C94       1.0  0.3647001437945222  0.31743485537625266  0.019652715904992846  1.0000
  C   C95       1.0  0.3396384339607144  0.32546765784911946  0.020998290426498478  1.0000
  C   C96       1.0  0.33325829716794875  0.3493589733983427  0.03615508655326738  1.0000
  H   H61       1.0  0.39154580118582366  0.36978286911524155  0.05988528528355238  1.0000
  H   H62       1.0  0.40280883445526927  0.32763655626324173  0.032328826388310125  1.0000
  H   H63       1.0  0.3250241282095674  0.31310692712754745  0.010404870004320221  1.0000
  H   H64       1.0  0.31389758222426783  0.3553335516709133  0.036806753261628966  1.0000
  C   C97       1.0  0.23986974329907265  0.37036105628872146  0.2531295541833788  1.0000
  C   C98       1.0  0.21669482627625922  0.3676055545442492  0.23343882155816273  1.0000
  C   C99       1.0  0.19634720868365663  0.3574092770622326  0.25609861780760784  1.0000
  C   C100      1.0  0.1990441771610155  0.3498228271183047  0.2984467454009588  1.0000
  C   C101      1.0  0.22222741175219893  0.35264717309258403  0.318016398422649  1.0000
  C   C102      1.0  0.24251140535625704  0.36289362375481454  0.295458011360425  1.0000
  H   H65       1.0  0.21444018054218025  0.3732534643477106  0.20081265105997917  1.0000
  H   H66       1.0  0.17848946810284114  0.3552388643889581  0.24069344030318315  1.0000
  H   H67       1.0  0.22453023336645225  0.34697915570828325  0.3506002780217279  1.0000
  H   H68       1.0  0.26033215169210316  0.365053902492473  0.3110089025295403  1.0000
  C   C103      1.0  0.33963313690433716  0.728951373708447  0.07424548834177791  1.0000
  C   C104      1.0  0.3395061501039927  0.7158936132070545  0.03600112006460865  1.0000
  C   C105      1.0  0.3502700169219552  0.7264526754436541  0.9994967567000526  1.0000
  C   C106      1.0  0.3612141696515462  0.7502045712630809  0.0007010978937922463  1.0000
  C   C107      1.0  0.36189423383863406  0.7630929673495586  0.03916088143526113  1.0000
  C   C108      1.0  0.35117158870427606  0.7524444389343746  0.07583994799694321  1.0000
  H   H69       1.0  0.3311668763296313  0.6976201159858513  0.03448141195943366  1.0000
  H   H70       1.0  0.3498566462078364  0.7162972198649821  0.9699402647426282  1.0000
  H   H71       1.0  0.3701970123081352  0.7814474841657204  0.04043410123274612  1.0000
  H   H72       1.0  0.35146015180104945  0.7626621511433767  0.1053275615773893  1.0000
  C   C109      1.0  0.2887326951899271  0.5634200227949072  0.09822906495426828  1.0000
  C   C110      1.0  0.30118388376485294  0.5413747664621624  0.08588558291785539  1.0000
  C   C111      1.0  0.29074530587254044  0.5177795964776717  0.0945323034038451  1.0000
  C   C112      1.0  0.2677518954383028  0.5160853150463074  0.11571719457204606  1.0000
  C   C113      1.0  0.2552269760244517  0.5381527324511682  0.12770828655015953  1.0000
  C   C114      1.0  0.2655975349488511  0.5617175384863459  0.1189005985230186  1.0000
  H   H73       1.0  0.3191166154756853  0.5425179644120938  0.06991557746214462  1.0000
  H   H74       1.0  0.300603432361214  0.5009437579171749  0.08523247121685203  1.0000
  H   H75       1.0  0.23741690322668346  0.5370437362074753  0.14405747900525123  1.0000
  H   H76       1.0  0.25580846640252397  0.5785284857400332  0.1285305636507404  1.0000
  C   C115      1.0  0.22355360338732078  0.8296157063623085  0.5256395423644261  1.0000
  C   C116      1.0  0.23899980819147265  0.8262667413144972  0.4902009062623174  1.0000
  C   C117      1.0  0.2604747165644358  0.841062729838793  0.48489941767594746  1.0000
  C   C118      1.0  0.2666579050921638  0.8592878845516901  0.514914326023658  1.0000
  C   C119      1.0  0.25123637289283457  0.8626458451907096  0.5503856586788051  1.0000
  C   C120      1.0  0.22977363734887613  0.8478173807692064  0.5557272734259756  1.0000
  H   H77       1.0  0.23436885539487998  0.8123056664295871  0.4668388005310338  1.0000
  H   H78       1.0  0.27232876103328874  0.838320341236566  0.4573888630543675  1.0000
  H   H79       1.0  0.25569670188750915  0.8768104547709825  0.57344921093948  1.0000
  H   H80       1.0  0.2178330517483923  0.8505721372485593  0.5831349518220257  1.0000
  C   C121      1.0  0.22308893440513838  0.6873888455152459  0.2513703451852199  1.0000
  C   C122      1.0  0.21341822673949584  0.6835707159525187  0.29231931005268874  1.0000
  C   C123      1.0  0.20942638216056633  0.7038134220457835  0.32002007683963474  1.0000
  C   C124      1.0  0.21529051515678038  0.7280556642620363  0.30704077876916025  1.0000
  C   C125      1.0  0.22456119465483812  0.7319184958985715  0.26581730733969294  1.0000
  C   C126      1.0  0.22820625777873899  0.7117106449286518  0.23791487271060843  1.0000
  H   H81       1.0  0.20923916728809483  0.6648210904448634  0.3028610454543503  1.0000
  H   H82       1.0  0.20225562579240555  0.7006126517320872  0.3516555842950625  1.0000
  H   H83       1.0  0.2288062878635644  0.7506778251677623  0.25543044635012213  1.0000
  H   H84       1.0  0.23508237886633937  0.7149013033541192  0.20614448351382478  1.0000
  C   C127      1.0  0.8725714904782901  0.8431808733746765  0.5048386957781656  1.0000
  C   C128      1.0  0.8682212524732054  0.8671709786046573  0.5213215168225084  1.0000
  C   C129      1.0  0.8466571216003327  0.8722831169305743  0.5457519640438182  1.0000
  C   C130      1.0  0.8294034220032085  0.8533374466323749  0.5539566643875807  1.0000
  C   C131      1.0  0.833227380310292  0.8296723515391512  0.535980144287052  1.0000
  C   C132      1.0  0.8545384097667073  0.8247104439179237  0.5109921966537905  1.0000
  H   H85       1.0  0.882000603575163  0.8816330881627024  0.5163471674626913  1.0000
  H   H86       1.0  0.8439577299759433  0.8905566243515285  0.5596752593298755  1.0000
  H   H87       1.0  0.8198176325024267  0.8149890272344036  0.5419157785474825  1.0000
  H   H88       1.0  0.8573480100709985  0.8063756337198341  0.49740504180281103  1.0000
  C   C133      1.0  0.8593235498064247  0.6961790944180342  0.2748067431145126  1.0000
  C   C134      1.0  0.8601771765902707  0.6994251905427755  0.31888827579577395  1.0000
  C   C135      1.0  0.8786718781438145  0.7144533104035552  0.33737104172129795  1.0000
  C   C136      1.0  0.8966205381894411  0.7261481488764433  0.31185623955348485  1.0000
  C   C137      1.0  0.8958280342639247  0.7228152965374844  0.26780716283534556  1.0000
  C   C138      1.0  0.8771894183737721  0.708000028840581  0.2493031313839361  1.0000
  H   H89       1.0  0.846413439544729  0.6903818894752167  0.3388278045156325  1.0000
  H   H90       1.0  0.8790992753672431  0.7168830793704054  0.37132585047221073  1.0000
  H   H91       1.0  0.9095985632715686  0.7318282184245075  0.24784044530901675  1.0000
  H   H92       1.0  0.8767349882111404  0.7056298430463163  0.2153407860686045  1.0000
  C   C139      1.0  0.02598612350585605  0.7616833416887658  0.47414744524077074  1.0000
  C   C140      1.0  0.048404221172512196  0.749415975726931  0.48455911449551203  1.0000
  C   C141      1.0  0.07142299720765723  0.7574819102428914  0.46775056375362645  1.0000
  C   C142      1.0  0.07220608565590995  0.7780034039564885  0.44048439439201226  1.0000
  C   C143      1.0  0.049811341938031876  0.7904515448727558  0.4302770594708463  1.0000
  C   C144      1.0  0.026741279916511207  0.7823178599302073  0.4470310280835652  1.0000
  H   H93       1.0  0.04797167539342251  0.7334963475427893  0.505644879851557  1.0000
  H   H94       1.0  0.08854537911310759  0.747759899498492  0.47582745593277515  1.0000
  H   H95       1.0  0.05032420916942379  0.8064650561530029  0.40941276868895987  1.0000
  H   H96       1.0  0.009632045008895362  0.792189423542435  0.43952932265577727  1.0000
  C   C145      1.0  0.672892254610543  0.9148555718834396  0.42764674059535934  1.0000
  C   C146      1.0  0.6798677060160948  0.9062545953297153  0.46781482004643565  1.0000
  C   C147      1.0  0.7012242330422204  0.9157869279085207  0.487622782614933  1.0000
  C   C148      1.0  0.7156914906910006  0.933855453632419  0.46712481194098654  1.0000
  C   C149      1.0  0.708843911836489  0.9422770007982694  0.42682590263700765  1.0000
  C   C150      1.0  0.6874370375923422  0.9328595093263036  0.40714407969350236  1.0000
  H   H97       1.0  0.6685917269231366  0.8923563540734335  0.4837359482369558  1.0000
  H   H98       1.0  0.7063383448146835  0.9092699791943982  0.5187622179272957  1.0000
  H   H99       1.0  0.7200234967710255  0.9562273736045004  0.41084175918541616  1.0000
  H   H100      1.0  0.6821565033153549  0.9395539541742308  0.3761457334529938  1.0000
  C   C151      1.0  0.660913018583409  0.879777671959651  0.08053355845441684  1.0000
  C   C152      1.0  0.6368805251672109  0.8696754509053186  0.08157222330701377  1.0000
  C   C153      1.0  0.6231825896693447  0.8693582141211509  0.11958412293046838  1.0000
  C   C154      1.0  0.6332567592551911  0.8796101823724162  0.15642807856690522  1.0000
  C   C155      1.0  0.6573761463480549  0.8895792713798156  0.15551489342782995  1.0000
  C   C156      1.0  0.6713081487496594  0.8893375386292962  0.11765629634408624  1.0000
  H   H101      1.0  0.6286039876754446  0.862564322078602  0.05295149772374757  1.0000
  H   H102      1.0  0.6045242772241244  0.8615931678781332  0.1202709386305187  1.0000
  H   H103      1.0  0.6654293877530991  0.8969432072041983  0.18418641625747342  1.0000
  H   H104      1.0  0.6901997043344467  0.8964660651695409  0.11703180838447554  1.0000
  C   C157      1.0  0.7174927117558949  0.1576202795533567  0.38543016149818343  1.0000
  C   C158      1.0  0.6955035624284299  0.16457984653427185  0.40677343731389526  1.0000
  C   C159      1.0  0.6965902129037562  0.17376804120919964  0.44835804143723873  1.0000
  C   C160      1.0  0.7196180793597594  0.17579095898204294  0.46899299350530443  1.0000
  C   C161      1.0  0.7416070465603883  0.16912332079054454  0.4474374973193255  1.0000
  C   C162      1.0  0.7405459078325667  0.1600489700347679  0.40580232771788527  1.0000
  H   H105      1.0  0.6776002664200083  0.16270273467286334  0.39143329813030914  1.0000
  H   H106      1.0  0.6794956688846159  0.17899444679701376  0.46469905072757217  1.0000
  H   H107      1.0  0.7594967782107225  0.17126795885980137  0.46255864763902393  1.0000
  H   H108      1.0  0.7576426868799578  0.15497564148027587  0.3893169898149936  1.0000
  C   C163      1.0  0.6459632266991937  0.2055809370467065  0.14285015618476987  1.0000
  C   C164      1.0  0.6410251715046255  0.22585404009344956  0.11610456766500442  1.0000
  C   C165      1.0  0.645147074738409  0.2238859604688288  0.07236160215987253  1.0000
  C   C166      1.0  0.6544465465753078  0.20170497251089956  0.05495961699975332  1.0000
  C   C167      1.0  0.6587078063636064  0.18114712163945873  0.08154560231581147  1.0000
  C   C168      1.0  0.654527376153828  0.1830714667687073  0.12546941328483927  1.0000
  H   H109      1.0  0.6341785290515973  0.2432433537543958  0.12930923838710282  1.0000
  H   H110      1.0  0.6409823544038314  0.23956560781695857  0.05224221755757476  1.0000
  H   H111      1.0  0.6656959584820473  0.1638169331480341  0.06829910896864717  1.0000
  H   H112      1.0  0.6583274938157321  0.1672901313216992  0.14588617395556402  1.0000
  C   C169      1.0  0.6325697743511295  0.06098000118611698  0.24491798177345736  1.0000
  C   C170      1.0  0.6586610166428626  0.06165250260512198  0.24871011230566417  1.0000
  C   C171      1.0  0.6724686011212204  0.039189538364653  0.25027349601492194  1.0000
  C   C172      1.0  0.660048419878073  0.016198491274818094  0.24988766850075322  1.0000
  C   C173      1.0  0.634002017629152  0.01579770829871796  0.2471387897927122  1.0000
  C   C174      1.0  0.620441945137753  0.03798521974581192  0.2431790311779317  1.0000
  H   H113      1.0  0.6681877147651033  0.07939476913344722  0.24992883885087402  1.0000
  H   H114      1.0  0.6926483650459321  0.03963997507244876  0.2525153532129914  1.0000
  H   H115      1.0  0.624135181861963  0.9983938173346352  0.2475943875518236  1.0000
  H   H116      1.0  0.6004377770433272  0.03718271096234216  0.23946574512217997  1.0000
  C   C175      1.0  0.39075296492484685  0.1471191700241369  0.4392483952565406  1.0000
  C   C176      1.0  0.38475992151661514  0.13949494170407184  0.4804003757196151  1.0000
  C   C177      1.0  0.3777633205756321  0.15708807189227425  0.5110670361625326  1.0000
  C   C178      1.0  0.37715705019345475  0.18248443350464177  0.5008665008380918  1.0000
  C   C179      1.0  0.38319665400629144  0.19018506858244097  0.4597233657609654  1.0000
  C   C180      1.0  0.38989006952814953  0.17248752968812367  0.42884191152087797  1.0000
  H   H117      1.0  0.38629284646462814  0.12004560869386818  0.48898103366928836  1.0000
  H   H118      1.0  0.3734632867562555  0.15103276088464507  0.5429185040931295  1.0000
  H   H119      1.0  0.3824195439798323  0.2098058306836987  0.45164452291003976  1.0000
  H   H120      1.0  0.394071757219348  0.17849033595647115  0.39699863532607477  1.0000
  C   C181      1.0  0.41159791259498274  0.17931665782985667  0.15814276533866942  1.0000
  C   C182      1.0  0.40084913669960615  0.1957352848051536  0.1288936705094386  1.0000
  C   C183      1.0  0.4088576072246906  0.19565601243422778  0.0865903488196258  1.0000
  C   C184      1.0  0.42711917095866797  0.1786191892699656  0.07317229103159052  1.0000
  C   C185      1.0  0.4377910279247621  0.16201818354349595  0.10233371845135267  1.0000
  C   C186      1.0  0.4302987063630343  0.16260985423177848  0.1449954870103792  1.0000
  H   H121      1.0  0.3864042329473005  0.20869817361545553  0.13903472599397232  1.0000
  H   H122      1.0  0.40064804199036996  0.2085716596528493  0.06420728243469567  1.0000
  H   H123      1.0  0.4522324006241571  0.1491087238271995  0.0920364878476804  1.0000
  H   H124      1.0  0.4388756111862812  0.15011599699954314  0.16759894627630104  1.0000
  C   C187      1.0  0.5214908261388556  0.1954537136836338  0.3563740587347838  1.0000
  C   C188      1.0  0.5346268813594942  0.21064796013101791  0.3843174430761224  1.0000
  C   C189      1.0  0.559755540826593  0.20565338104755276  0.39295245191246364  1.0000
  C   C190      1.0  0.5721909796597762  0.18610242396787174  0.37229692037015544  1.0000
  C   C191      1.0  0.5592194578817622  0.1710287575676328  0.3437669358199226  1.0000
  C   C192      1.0  0.5336601136231744  0.17546130986376818  0.3363048928496279  1.0000
  H   H125      1.0  0.5252289464497069  0.22610012301355337  0.39984674126921654  1.0000
  H   H126      1.0  0.569672269563136  0.21718044626176364  0.4152779455389158  1.0000
  H   H127      1.0  0.5687541547940468  0.15574565363999776  0.3280483196474997  1.0000
  H   H128      1.0  0.5235002439540041  0.1636676680782805  0.3146920655175058  1.0000
  C   C193      1.0  0.41063180175584574  0.9057443365807137  0.41163463506360837  1.0000
  C   C194      1.0  0.40558898274221894  0.8917559446482325  0.44818511669216343  1.0000
  C   C195      1.0  0.3992838536640219  0.9037432536608898  0.48630935034050327  1.0000
  C   C196      1.0  0.39897173854669477  0.9298132049805417  0.4884196534552534  1.0000
  C   C197      1.0  0.404453830929153  0.9438182485554546  0.4520084842848851  1.0000
  C   C198      1.0  0.40982626582575166  0.9318115829383812  0.41344162291290154  1.0000
  H   H129      1.0  0.4063959739464297  0.8715854224630515  0.4469903425051734  1.0000
  H   H130      1.0  0.3953685760979387  0.8928608519859743  0.5144247371615521  1.0000
  H   H131      1.0  0.40432244711020565  0.9639962430151879  0.45359492549746155  1.0000
  H   H132      1.0  0.4136807599201068  0.9427502427988325  0.3853593848083157  1.0000
  C   C199      1.0  0.37071192323640795  0.8917979399048787  0.1268859365556126  1.0000
  C   C200      1.0  0.36806027451471196  0.8698523360634471  0.10327156238611673  1.0000
  C   C201      1.0  0.37518268763024815  0.8692826538306816  0.06040320329405593  1.0000
  C   C202      1.0  0.3842320697649415  0.8908960824408104  0.04086071611138333  1.0000
  C   C203      1.0  0.38663037401614675  0.9128687966553486  0.06433792582136348  1.0000
  C   C204      1.0  0.3801494620257809  0.913243592288137  0.10738653068799336  1.0000
  H   H133      1.0  0.36074904599661106  0.8532303631523939  0.11827635762445814  1.0000
  H   H134      1.0  0.37318248415539756  0.8522846063526937  0.04233663666168078  1.0000
  H   H135      1.0  0.39358254267115034  0.92962266955636  0.04929507125337098  1.0000
  H   H136      1.0  0.38179079219457523  0.9303321230473484  0.12520348404810713  1.0000
  C   C205      1.0  0.5032345053446249  0.9377304952926067  0.21528164806257513  1.0000
  C   C206      1.0  0.496991064479229  0.9590921045316098  0.23853744523790393  1.0000
  C   C207      1.0  0.5148854439435684  0.9704556799644838  0.2641520286019431  1.0000
  C   C208      1.0  0.5390861077521057  0.9605069885166084  0.2663229324685656  1.0000
  C   C209      1.0  0.5455726536725468  0.9396664996614345  0.24185162399164975  1.0000
  C   C210      1.0  0.5276595618550064  0.9283194428305439  0.21621476622281177  1.0000
  H   H137      1.0  0.4782994268151364  0.9667970077046285  0.23695888095625947  1.0000
  H   H138      1.0  0.509742400917598  0.9865803424381783  0.28285749096714896  1.0000
  H   H139      1.0  0.5641588662891432  0.9317331016823449  0.24358519738571194  1.0000
  H   H140      1.0  0.5325187812456562  0.911701165018527  0.19845116606103638  1.0000
  C   C211      1.0  0.4209936053905711  0.02254753866006287  0.2777267153594661  1.0000
  C   C212      1.0  0.4417349627099411  0.01844788182191337  0.251217270770212  1.0000
  C   C213      1.0  0.46042118812240973  0.036750776916850914  0.24760474073306135  1.0000
  C   C214      1.0  0.45841110559843  0.058970707555993054  0.2708066864230676  1.0000
  C   C215      1.0  0.43863737166303846  0.06211347075011514  0.29950896947293176  1.0000
  C   C216      1.0  0.419750355291563  0.044171110808275627  0.3024081402295985  1.0000
  H   H141      1.0  0.4428304536343856  0.0016728320224381754  0.23224174341734516  1.0000
  H   H142      1.0  0.4758273733498314  0.03408261656935885  0.22564113109676986  1.0000
  H   H143      1.0  0.43757808612457944  0.07860471025610523  0.31906130546685685  1.0000
  H   H144      1.0  0.40398835332817357  0.047189601386559143  0.3235222277008594  1.0000
  C   C217      1.0  0.19357610455288582  0.628014053804438  0.9175063680462147  1.0000
  C   C218      1.0  0.20014708138272544  0.6513681366251843  0.9012329702095379  1.0000
  C   C219      1.0  0.21229492800188493  0.6687681698096622  0.9271292486831887  1.0000
  C   C220      1.0  0.21796985165029492  0.6628415221589878  0.9692459509097711  1.0000
  C   C221      1.0  0.21114682443866414  0.6395940677033926  0.9856020044015251  1.0000
  C   C222      1.0  0.19899240035320045  0.6222196961903074  0.9597504136085636  1.0000
  H   H145      1.0  0.19598888643315457  0.6559661245237713  0.8686834645076166  1.0000
  H   H146      1.0  0.21746905818270765  0.6867726991604046  0.9143688211978802  1.0000
  H   H147      1.0  0.21510037190349118  0.63504760920208  0.018208939802429436  1.0000
  H   H148      1.0  0.19364683740346098  0.604276809791611  0.9725899225139026  1.0000
  C   C223      1.0  0.15883658702488673  0.6893170938322961  0.6576080481873737  1.0000
  C   C224      1.0  0.16939809560811694  0.7099037702597272  0.6367552156676556  1.0000
  C   C225      1.0  0.1692289920947988  0.7113964260137644  0.5922640187861171  1.0000
  C   C226      1.0  0.15835688038131734  0.692321692875709  0.5685683709483066  1.0000
  C   C227      1.0  0.14682559478162077  0.6723772270915936  0.5895079076797823  1.0000
  C   C228      1.0  0.14699902877740897  0.670915998864996  0.6337750463412675  1.0000
  H   H149      1.0  0.17833972235093012  0.724409721428708  0.6549139590661838  1.0000
  H   H150      1.0  0.17815754793887334  0.7268922506475318  0.5762903590353752  1.0000
  H   H151      1.0  0.13802830708910682  0.6578194832131691  0.5712523366991022  1.0000
  H   H152      1.0  0.13794697071002432  0.6554930137756746  0.6491134342691317  1.0000
  C   C229      1.0  0.914152496280164  0.7188101456660012  0.6736480977087921  1.0000
  C   C230      1.0  0.8901792544420921  0.7097112221429727  0.6655668140867296  1.0000
  C   C231      1.0  0.8811204486434351  0.7094213738153072  0.6239996074940456  1.0000
  C   C232      1.0  0.8962036823349885  0.717752382285375  0.5904998431022437  1.0000
  C   C233      1.0  0.9203164116518006  0.7264091317572279  0.5986343068406765  1.0000
  C   C234      1.0  0.9291569469756173  0.7272495435335598  0.6402062521437821  1.0000
  H   H153      1.0  0.8785234747141865  0.7032177741005504  0.6914395711994864  1.0000
  H   H154      1.0  0.8624095975359034  0.7027747116276484  0.6178157294796087  1.0000
  H   H155      1.0  0.9323719191267421  0.7320978217621497  0.5728743101391633  1.0000
  H   H156      1.0  0.9478000432128112  0.7340887275058984  0.6463826194528717  1.0000
  C   C235      1.0  0.8789318955966714  0.6476974895722863  0.9175596644480044  1.0000
  C   C236      1.0  0.8939177645554864  0.668526359321421  0.9249276566023665  1.0000
  C   C237      1.0  0.8958691349389041  0.6783055356017609  0.9658653864679696  1.0000
  C   C238      1.0  0.8827723975859297  0.6673231435355034  0.9995015139581777  1.0000
  C   C239      1.0  0.8674042059312648  0.6467974914189759  0.9920748948997178  1.0000
  C   C240      1.0  0.8654431728375547  0.637038181076049  0.9510849155014006  1.0000
  H   H157      1.0  0.9038335709902493  0.6772478657427407  0.8991125499001887  1.0000
  H   H158      1.0  0.9074935441199306  0.6944236633833579  0.971500799072839  1.0000
  H   H159      1.0  0.8574352966366984  0.6380822504521785  0.01804606278402443  1.0000
  H   H160      1.0  0.8537548196862248  0.6209508220269145  0.9455098753256745  1.0000
  C   C241      1.0  0.022265168505422928  0.6346148138462706  0.8191321688237122  1.0000
  C   C242      1.0  0.046871925523082725  0.6358035955793602  0.8338601010929177  1.0000
  C   C243      1.0  0.06603097310368171  0.6226071455677914  0.8129212025130361  1.0000
  C   C244      1.0  0.060522726656571754  0.6080640160309237  0.7774940215642722  1.0000
  C   C245      1.0  0.0358584890407967  0.60667327714021  0.763144357527979  1.0000
  C   C246      1.0  0.01678182155138308  0.6200815209925041  0.7837696029086882  1.0000
  H   H161      1.0  0.051127414033292906  0.6469516215792996  0.8613791488831852  1.0000
  H   H162      1.0  0.0849434482324018  0.623347238706526  0.8246261818192441  1.0000
  H   H163      1.0  0.031520699517527236  0.5953840884349498  0.7358012191957447  1.0000
  H   H164      1.0  0.9978185133713166  0.6190918263564641  0.7723964676933924  1.0000
  C   C247      1.0  0.21275228941261148  0.428342251094544  0.8972859954889283  1.0000
  C   C248      1.0  0.22135468164151723  0.4404703778610613  0.93360341292572  1.0000
  C   C249      1.0  0.2250556805825554  0.42704195920009563  0.9712509162282306  1.0000
  C   C250      1.0  0.22032972583603205  0.4014060270846069  0.9725784607411967  1.0000
  C   C251      1.0  0.21233177536183967  0.38918445813380226  0.9359661136471579  1.0000
  C   C252      1.0  0.20864765889684037  0.4025994990450329  0.8983537535594712  1.0000
  H   H165      1.0  0.22472220793237893  0.4603408317962878  0.9329736800935512  1.0000
  H   H166      1.0  0.23098558355213938  0.43664680006020845  0.9994869449206214  1.0000
  H   H167      1.0  0.20903732724682905  0.3692793279480681  0.9367133598774793  1.0000
  H   H168      1.0  0.20289690247509995  0.3929579654124404  0.8701278274828446  1.0000
  C   C253      1.0  0.18482944562482853  0.35608457729505866  0.6630120214776997  1.0000
  C   C254      1.0  0.19153330322816023  0.3344427533051039  0.6406921781835778  1.0000
  C   C255      1.0  0.2003428115362964  0.3360773836372763  0.5988416378554798  1.0000
  C   C256      1.0  0.20309187345520538  0.35941080607863074  0.5795066758543824  1.0000
  C   C257      1.0  0.19736892373880482  0.3810996109557688  0.602387231607832  1.0000
  C   C258      1.0  0.18791779829755106  0.3794341649564981  0.6438727351438707  1.0000
  H   H169      1.0  0.18918480684937103  0.3163394615860814  0.6553873020939933  1.0000
  H   H170      1.0  0.2048285188702608  0.31928624302534736  0.5815095174929606  1.0000
  H   H171      1.0  0.1995286378697508  0.39919182567656963  0.5875762670026737  1.0000
  H   H172      1.0  0.182692638581616  0.3962141978113382  0.6606785225787604  1.0000
  C   C259      1.0  0.14957066533765168  0.4981588497178488  0.6930211289712055  1.0000
  C   C260      1.0  0.13934748926329454  0.5221582850321419  0.6900878250866767  1.0000
  C   C261      1.0  0.1549267140944387  0.5430456317510767  0.691553270518537  1.0000
  C   C262      1.0  0.18085280856475222  0.5399932628347972  0.6945454368469322  1.0000
  C   C263      1.0  0.19119856315767197  0.5159742578150196  0.6966365916503814  1.0000
  C   C264      1.0  0.1755000963126656  0.4950398283450316  0.6966006152567167  1.0000
  H   H173      1.0  0.11930931662535982  0.5246565976724499  0.6874300945404251  1.0000
  H   H174      1.0  0.1467551420731239  0.5615033603961821  0.6900704494873596  1.0000
  H   H175      1.0  0.21124529678195866  0.5135329525623623  0.6989752882534407  1.0000
  H   H176      1.0  0.18348344702436423  0.4764925888764292  0.6984503543550997  1.0000
  C   C265      1.0  0.9158429322650735  0.40927302070549026  0.6083636328972256  1.0000
  C   C266      1.0  0.9402059259858633  0.41767819057083394  0.6012333559757207  1.0000
  C   C267      1.0  0.9542243957148568  0.4082867562995112  0.5670961135683175  1.0000
  C   C268      1.0  0.9440175647260004  0.3903180938772331  0.5402076693758934  1.0000
  C   C269      1.0  0.9192748087681023  0.38265845708768037  0.5461752568960165  1.0000
  C   C270      1.0  0.905101893339329  0.39236185727746414  0.5800403546384416  1.0000
  H   H177      1.0  0.948334183407441  0.4312521303376709  0.6222128112710651  1.0000
  H   H178      1.0  0.9732486209020496  0.4145054482911411  0.5621015339189532  1.0000
  H   H179      1.0  0.911238622056976  0.3689752842454986  0.525186289192065  1.0000
  H   H180      1.0  0.8861225751223645  0.3860541476992488  0.5852113594147913  1.0000
  C   C271      1.0  0.8844091784995012  0.4151803554062062  0.9807780295957277  1.0000
  C   C272      1.0  0.8990950988625168  0.4046289579649397  0.9483604508557447  1.0000
  C   C273      1.0  0.9010932359573047  0.41648643836689553  0.9087349461816797  1.0000
  C   C274      1.0  0.8882105298111466  0.43884633441985127  0.9013822569537399  1.0000
  C   C275      1.0  0.873669898623386  0.44944531770959467  0.9338333809732348  1.0000
  C   C276      1.0  0.8719837862145264  0.4377852274604145  0.9735029139589468  1.0000
  H   H181      1.0  0.9088665838286649  0.3871941669739857  0.9538612657159671  1.0000
  H   H182      1.0  0.9123834501798228  0.40821459374057734  0.8838334520775558  1.0000
  H   H183      1.0  0.8638484265354172  0.4668561470894766  0.9284411689049136  1.0000
  H   H184      1.0  0.8613137681038741  0.4464902678360763  0.9985342755623978  1.0000
  C   C277      1.0  0.968734671997265  0.5256356672836429  0.7331286359452727  1.0000
  C   C278      1.0  0.948212305651986  0.5238042871740468  0.7061363597690011  1.0000
  C   C279      1.0  0.9356456123498692  0.5454646469026517  0.6928946470587107  1.0000
  C   C280      1.0  0.9432784169787584  0.5688784349331935  0.7073728893726966  1.0000
  C   C281      1.0  0.9637526501615551  0.5706843661034822  0.7344059394274173  1.0000
  C   C282      1.0  0.9766579059125392  0.54909762824462  0.7469078016496379  1.0000
  H   H185      1.0  0.9422151159478186  0.5057337417858152  0.6950189967781529  1.0000
  H   H186      1.0  0.9198048616654422  0.54402707358134  0.6719260552257602  1.0000
  H   H187      1.0  0.9697908423764879  0.5887359600732092  0.7453650878304579  1.0000
  H   H188      1.0  0.9925455725573734  0.5505835190091785  0.7677806932355989  1.0000
  C   C283      1.0  0.017388282939083455  0.38726671768399346  0.7946927297080771  1.0000
  C   C284      1.0  0.04002391780306436  0.37827561646325764  0.7778472928812984  1.0000
  C   C285      1.0  0.0628736514776708  0.3856975538632659  0.7953590938764327  1.0000
  C   C286      1.0  0.0630302147328337  0.40152400764435847  0.8305129770495833  1.0000
  C   C287      1.0  0.04040929627709167  0.4103113360287099  0.8475606813642987  1.0000
  C   C288      1.0  0.01763133852578469  0.4035031710967597  0.8292737714325825  1.0000
  H   H189      1.0  0.03987240063003572  0.3656088687499773  0.7512343085872272  1.0000
  H   H190      1.0  0.08029114729193923  0.3786072471646514  0.782423229708518  1.0000
  H   H191      1.0  0.040454103505009886  0.42243438134909994  0.8749097825641471  1.0000
  H   H192      1.0  0.00020871155287016663  0.4101296868827518  0.8428677350014241  1.0000
  N   N1        1.0  0.33089339430244  0.8965900960145089  0.39764317491047696  1.0000
  C   C289      1.0  0.33582437625418415  0.915188669651192  0.4310035521773845  1.0000
  C   C290      1.0  0.340453960427838  0.8719203296762756  0.41114994241135516  1.0000
  C   C291      1.0  0.3437202546876144  0.9041898584230758  0.3581769987279697  1.0000
  C   C292      1.0  0.30366141415637754  0.895087638899104  0.3902692982423419  1.0000
  H   H193      1.0  0.32851679151818475  0.9339823343374747  0.422387716953754  1.0000
  H   H194      1.0  0.35619382675188277  0.9171258076801305  0.43685339071658547  1.0000
  H   H195      1.0  0.32694057841362456  0.9097235706047636  0.4615136145229837  1.0000
  H   H196      1.0  0.33680798837964654  0.857363718529543  0.38693853157199265  1.0000
  H   H197      1.0  0.36101811224141467  0.8723714924892526  0.41631654951358454  1.0000
  H   H198      1.0  0.3315011359333479  0.8658213269929838  0.4413450787249289  1.0000
  H   H199      1.0  0.33709824633605434  0.9228019478616319  0.3471113202727598  1.0000
  H   H200      1.0  0.3406187257530253  0.8905734680329667  0.33217603987952704  1.0000
  H   H201      1.0  0.3643056350865363  0.9054881472573854  0.3628063570230513  1.0000
  H   H202      1.0  0.29926736522854047  0.8812176733169539  0.3652586980663981  1.0000
  H   H203      1.0  0.2958348937412997  0.9134342920448203  0.3802425346244831  1.0000
  H   H204      1.0  0.29343865990063317  0.8893754431211277  0.4195196995142423  1.0000
  N   N2        1.0  0.9527451759453627  0.3445600750398585  0.6634466010827624  1.0000
  C   C293      1.0  0.9326340411504579  0.3417569444919442  0.6319899597136641  1.0000
  C   C294      1.0  0.9730046748805199  0.3264308709140619  0.6542950707814215  1.0000
  C   C295      1.0  0.9425238787900819  0.34009621022212544  0.7063626721536851  1.0000
  C   C296      1.0  0.9628275363569806  0.37012729131188327  0.6610934175050455  1.0000
  H   H205      1.0  0.9170179045981348  0.35516016923460686  0.6381692424146794  1.0000
  H   H206      1.0  0.9246537955652508  0.32263140703965415  0.6324316548551082  1.0000
  H   H207      1.0  0.939668896314896  0.3453547546058138  0.5992672461991857  1.0000
  H   H208      1.0  0.9810376850285534  0.32943253472473855  0.6220414102903702  1.0000
  H   H209      1.0  0.9885094278301072  0.3281791769410558  0.6774564363393674  1.0000
  H   H210      1.0  0.9660742511520823  0.30689712208452485  0.6557241107203393  1.0000
  H   H211      1.0  0.9274425279804983  0.3538010209890325  0.7143017786692626  1.0000
  H   H212      1.0  0.9572537956087056  0.3420642943368997  0.7308790792105528  1.0000
  H   H213      1.0  0.9345283035045748  0.3210594470594034  0.7093560871772293  1.0000
  H   H214      1.0  0.9782101534647523  0.37293778797311705  0.6840952679757589  1.0000
  H   H215      1.0  0.9480528409755191  0.38422154707371176  0.6684193972383687  1.0000
  H   H216      1.0  0.9703773066385085  0.3743477113993022  0.6289834129151868  1.0000
  N   N3        1.0  0.1353873791094442  0.3930420795652365  0.9574003608950555  1.0000
  C   C297      1.0  0.10845842249446247  0.39349148959242636  0.968448812464351  1.0000
  C   C298      1.0  0.1428268935626682  0.41768715636417675  0.9405313567911936  1.0000
  C   C299      1.0  0.14010862682242742  0.3737069436413027  0.9249334357605659  1.0000
  C   C300      1.0  0.15012751512248856  0.3872689550502067  0.9956282519673711  1.0000
  H   H217      1.0  0.1041966747993448  0.4078422655426544  0.9929101252428002  1.0000
  H   H218      1.0  0.10214133075951382  0.3751031076206059  0.9808280320676853  1.0000
  H   H219      1.0  0.09678872262879268  0.39790302990014226  0.9403309623886241  1.0000
  H   H220      1.0  0.1631267602360189  0.41814505349920467  0.9326029029726118  1.0000
  H   H221      1.0  0.13246467047773858  0.42236149322383315  0.9110897409031997  1.0000
  H   H222      1.0  0.13915328627410983  0.4328312120287384  0.9638228966048337  1.0000
  H   H223      1.0  0.16015517336991247  0.37327387404161155  0.9150626055610522  1.0000
  H   H224      1.0  0.12879150250257299  0.3772178792488325  0.8960335460415682  1.0000
  H   H225      1.0  0.13523551551704038  0.3547719089978071  0.9367662345071663  1.0000
  H   H226      1.0  0.14486888455450297  0.36892597603374067  0.009522499681720031  1.0000
  H   H227      1.0  0.14755113530702468  0.40176656652887577  0.02047772601432429  1.0000
  H   H228      1.0  0.17048517547607478  0.38631700361729826  0.9883386385644287  1.0000
  N   N4        1.0  0.7969461042546376  0.6048323468720384  0.2470820103967392  1.0000
  C   C301      1.0  0.7853650163339918  0.5807899572612492  0.23559183883165571  1.0000
  C   C302      1.0  0.7797780386229829  0.6255094588339676  0.23603230891407948  1.0000
  C   C303      1.0  0.8206842483554138  0.6077201281485952  0.2234587242165281  1.0000
  C   C304      1.0  0.8020484885928195  0.6054729471943834  0.29294350862095847  1.0000
  H   H229      1.0  0.7979703573241821  0.5647354199262171  0.24262277766312576  1.0000
  H   H230      1.0  0.7812169915922621  0.5800321824747793  0.20106671870495854  1.0000
  H   H231      1.0  0.7674037378423846  0.5778784771399939  0.25284609159803184  1.0000
  H   H232      1.0  0.7882997435310464  0.64400730058953  0.24301460902425923  1.0000
  H   H233      1.0  0.7751177828761739  0.6251738098588049  0.20170919514128513  1.0000
  H   H234      1.0  0.761842713315165  0.6243564932026796  0.25395590175418903  1.0000
  H   H235      1.0  0.8303622660776488  0.625317579750517  0.2321158290390425  1.0000
  H   H236      1.0  0.8172706151828717  0.6084126255643112  0.18891601117122142  1.0000
  H   H237      1.0  0.8338167230132313  0.5919548377430519  0.22941477738475832  1.0000
  H   H238      1.0  0.8107558588443936  0.6235595092665743  0.3021289394293291  1.0000
  H   H239      1.0  0.8151531096317609  0.5902671243408883  0.30229145989892514  1.0000
  H   H240      1.0  0.784550322359718  0.6033960842113286  0.311881099035941  1.0000
  N   N5        1.0  0.3292975424070972  0.33632666788290483  0.17636596392314163  1.0000
  C   C305      1.0  0.3350650088272009  0.3631060626183164  0.17095983023461864  1.0000
  C   C306      1.0  0.34869453786707716  0.3244853645877616  0.20286712701121629  1.0000
  C   C307      1.0  0.32890999932872544  0.32406091120405583  0.1345172158120417  1.0000
  C   C308      1.0  0.30455580700459484  0.3336623145018353  0.19708276222539278  1.0000
  H   H241      1.0  0.32093820951067364  0.3726075541797999  0.15090936067280714  1.0000
  H   H242      1.0  0.35352747310880384  0.36590749750301793  0.1550788873559274  1.0000
  H   H243      1.0  0.33525434808519705  0.3731064535097148  0.20178789193233343  1.0000
  H   H244      1.0  0.34495543753380176  0.30423838546971604  0.20755198736934596  1.0000
  H   H245      1.0  0.36757208881718806  0.3262016835946494  0.18799688987867938  1.0000
  H   H246      1.0  0.3494729144283746  0.3333237802857742  0.23469212637655681  1.0000
  H   H247      1.0  0.3248317324312795  0.3037776900262335  0.13722151294767526  1.0000
  H   H248      1.0  0.3471959969376883  0.32597802960336697  0.1176881410902659  1.0000
  H   H249      1.0  0.3143491950632926  0.3324643243982213  0.11383267565287165  1.0000
  H   H250      1.0  0.3040035812849018  0.34297471874854896  0.228574234190696  1.0000
  H   H251      1.0  0.2995533131506225  0.31372436483466376  0.20186349074860077  1.0000
  H   H252      1.0  0.2894654176280931  0.3423740366224884  0.17784486140006026  1.0000
  N   N6        1.0  0.6352085395420656  0.8304824598682498  0.7782911969117532  1.0000
  C   C309      1.0  0.6398134839429627  0.848768562453228  0.8121899550755609  1.0000
  C   C310      1.0  0.6560882006662961  0.8312750505298936  0.7473403696693869  1.0000
  C   C311      1.0  0.6114124467401489  0.8367490684411962  0.7571649086084666  1.0000
  C   C312      1.0  0.6335651960770188  0.8051979498187769  0.7968548514036045  1.0000
  H   H253      1.0  0.6241131791300643  0.8493637928195551  0.8354596042262569  1.0000
  H   H254      1.0  0.6421453861844273  0.8679613836150498  0.7993575173613724  1.0000
  H   H255      1.0  0.6570305419905262  0.8438859033066448  0.8299051538815243  1.0000
  H   H256      1.0  0.6532081487267148  0.8179162693922213  0.7209434015040305  1.0000
  H   H257      1.0  0.6583339054377534  0.8502685053221437  0.7334656400207288  1.0000
  H   H258      1.0  0.6742277708206003  0.8263603397160166  0.7625545271922548  1.0000
  H   H259      1.0  0.607278984555995  0.8233691310848594  0.7312812041183909  1.0000
  H   H260      1.0  0.6119546248429589  0.8558270354150576  0.7432051840799879  1.0000
  H   H261      1.0  0.5954110672009474  0.8361979026454676  0.7800443325899753  1.0000
  H   H262      1.0  0.6515736049250275  0.7995848900778226  0.8117226515812708  1.0000
  H   H263      1.0  0.6291197583721616  0.790953625779  0.7725285464240713  1.0000
  H   H264      1.0  0.6187802112084888  0.8042880196830469  0.8219281766366511  1.0000
  N   N7        1.0  0.4980374006134355  0.9055770485004319  0.3529542660163907  1.0000
  C   C313      1.0  0.4873539026303681  0.9302816098816064  0.3638057842441042  1.0000
  C   C314      1.0  0.4870641879151397  0.8967161017963585  0.3129214276999148  1.0000
  C   C315      1.0  0.49214511940173905  0.8876565509622985  0.38715193554275534  1.0000
  C   C316      1.0  0.5254883579232628  0.9076766582837362  0.34793866356581243  1.0000
  H   H265      1.0  0.46668907845374924  0.9292504814920761  0.36853763019830577  1.0000
  H   H266      1.0  0.4910935735175422  0.9441859218458862  0.338313627345231  1.0000
  H   H267      1.0  0.4954889038822181  0.9377240191311776  0.39350570782130023  1.0000
  H   H268      1.0  0.4906971777493359  0.9100203512923982  0.286576644739239  1.0000
  H   H269      1.0  0.49501848326930226  0.8783436787125888  0.30324254898587494  1.0000
  H   H270      1.0  0.46640679341395846  0.8945325558960864  0.31580290338990186  1.0000
  H   H271      1.0  0.49984269398034276  0.8687760615004002  0.37997645357484616  1.0000
  H   H272      1.0  0.47151751736947484  0.8857117325749614  0.39164846054633456  1.0000
  H   H273      1.0  0.5000499430607365  0.8937810949072857  0.41789861647909443  1.0000
  H   H274      1.0  0.530507896882016  0.9211821303082026  0.32255424814286904  1.0000
  H   H275      1.0  0.5342523670306464  0.8894639819740338  0.3393317078946903  1.0000
  H   H276      1.0  0.5344761068328224  0.9143354595436215  0.3774832599057601  1.0000
  N   N8        1.0  0.8996931916127084  0.5295850451916656  0.821842379373191  1.0000
  C   C317      1.0  0.8848460831439915  0.5275216141887961  0.8613355249484318  1.0000
  C   C318      1.0  0.9046770802604679  0.5561649921250666  0.8125465999547016  1.0000
  C   C319      1.0  0.8855639198602101  0.5185212433537482  0.7865544041655798  1.0000
  C   C320      1.0  0.9236753874343706  0.5160495942649215  0.826877099768483  1.0000
  H   H277      1.0  0.8807805830674224  0.5076294862443612  0.8691127418188487  1.0000
  H   H278      1.0  0.8665851502606328  0.537479600230354  0.8586838297062078  1.0000
  H   H279      1.0  0.8949600680762367  0.5355790104321282  0.8887085080522394  1.0000
  H   H280      1.0  0.9157681794808393  0.5583281725272784  0.7828173095493983  1.0000
  H   H281      1.0  0.8870071804185098  0.5670223375974004  0.8085906272300906  1.0000
  H   H282      1.0  0.9153939660111583  0.5651332738968958  0.8383876371176185  1.0000
  H   H283      1.0  0.8963916973861564  0.5194185885755053  0.7563269751516616  1.0000
  H   H284      1.0  0.8674783531456104  0.5284244029774017  0.78149791492513  1.0000
  H   H285      1.0  0.8812228685202211  0.49851547136912794  0.7928390142204796  1.0000
  H   H286      1.0  0.9351462663797812  0.5167689642983118  0.7974461806457216  1.0000
  H   H287      1.0  0.9206184740403842  0.495977472807855  0.8343316935633772  1.0000
  H   H288      1.0  0.9350576349102386  0.5240438877151323  0.8527898193436485  1.0000
  N   N9        1.0  0.6116062673778982  0.24776534456734498  0.3064597040457347  1.0000
  C   C321      1.0  0.5943964486693817  0.26942721167058536  0.30515132401699885  1.0000
  C   C322      1.0  0.5988146016005724  0.22561600366103252  0.28935188314954624  1.0000
  C   C323      1.0  0.6190496240611545  0.24289764817515055  0.35068466232190043  1.0000
  C   C324      1.0  0.6341362534261004  0.2530762885905323  0.28063116136293714  1.0000
  H   H289      1.0  0.6034313157255031  0.28652763695506805  0.3177242323349  1.0000
  H   H290      1.0  0.5772370140317347  0.265951305433547  0.3244767111391702  1.0000
  H   H291      1.0  0.5883502001148655  0.2734728006310437  0.2722020990960323  1.0000
  H   H292      1.0  0.6107795517146689  0.20872260692372985  0.29205885160536554  1.0000
  H   H293      1.0  0.5811317247595206  0.22161388418353628  0.3068276284897003  1.0000
  H   H294      1.0  0.5943164628426064  0.22789055771972216  0.2552290085063954  1.0000
  H   H295      1.0  0.6025776813290061  0.23836723777488744  0.3709463637015271  1.0000
  H   H296      1.0  0.6286538155087886  0.2592069356065433  0.3648303758096362  1.0000
  H   H297      1.0  0.6320632510403853  0.22663058750562662  0.3528507535368778  1.0000
  H   H298      1.0  0.644345728492797  0.2696362538300494  0.2925716876275064  1.0000
  H   H299      1.0  0.6292902887632881  0.25655422016337837  0.24691322811815347  1.0000
  H   H300      1.0  0.6474198203938852  0.23698902982703476  0.28078907555490923  1.0000
  N   N10       1.0  0.05739480840256306  0.4737563115730743  0.7575409130513748  1.0000
  C   C325      1.0  0.04475770227735043  0.4837731125609893  0.719651458372071  1.0000
  C   C326      1.0  0.07717307258417083  0.4912384464587377  0.7707120533048215  1.0000
  C   C327      1.0  0.06870039852275034  0.44921811891666147  0.7474904378304785  1.0000
  C   C328      1.0  0.03898012990896316  0.47079102176478516  0.7922940651764502  1.0000
  H   H301      1.0  0.029234299439748312  0.4714231572809997  0.7094411445161707  1.0000
  H   H302      1.0  0.0580636944991324  0.48581245534802897  0.6925991932494817  1.0000
  H   H303      1.0  0.0363803365192612  0.5025074486430751  0.725963315659554  1.0000
  H   H304      1.0  0.08741150590301294  0.4841005000514953  0.7988051175019321  1.0000
  H   H305      1.0  0.09119923146734044  0.49411656149635036  0.7449622318827288  1.0000
  H   H306      1.0  0.06924078589203875  0.5099152737738272  0.7788212423533406  1.0000
  H   H307      1.0  0.054195725989522714  0.4353394012275349  0.7387491335200301  1.0000
  H   H308      1.0  0.07905317190141958  0.4415239083476326  0.7750378463093567  1.0000
  H   H309      1.0  0.08223979792830405  0.4506172995128664  0.7206644607019145  1.0000
  H   H310      1.0  0.03004292520016638  0.48895669571942224  0.8007406269338342  1.0000
  H   H311      1.0  0.047878445065652864  0.46304322129141345  0.8212362418539291  1.0000
  H   H312      1.0  0.023623693654575506  0.4579031230937761  0.7832251393034387  1.0000
  N   N11       1.0  0.3048677754230149  0.7148489092267339  0.24882328861538272  1.0000
  C   C329      1.0  0.3124057928671518  0.7324426793203623  0.2823157720073204  1.0000
  C   C330      1.0  0.32738688823334566  0.7030952745055874  0.22984508572016638  1.0000
  C   C331      1.0  0.2910590743957041  0.7285871717185226  0.21573722057282796  1.0000
  C   C332      1.0  0.28861016140002466  0.6953630027528568  0.267340574577967  1.0000
  H   H313      1.0  0.29576262910684925  0.7416311523727321  0.2972041691502348  1.0000
  H   H314      1.0  0.324615552446655  0.7474391597470632  0.26935561247269946  1.0000
  H   H315      1.0  0.3228668166935142  0.7227220918020394  0.30786194992707655  1.0000
  H   H316      1.0  0.3223175184589472  0.6897678394649676  0.20438846024481302  1.0000
  H   H317      1.0  0.33987604195236826  0.7172361925453363  0.2149190024592133  1.0000
  H   H318      1.0  0.33843907862080325  0.6926210260637081  0.2537440833209321  1.0000
  H   H319      1.0  0.28436991907707565  0.7157358671021457  0.1906777882069099  1.0000
  H   H320      1.0  0.3031025218088806  0.7427164738674397  0.19979910189962954  1.0000
  H   H321      1.0  0.27445880649043985  0.7384903560023401  0.22909000871586474  1.0000
  H   H322      1.0  0.28136974504721934  0.6824976994501104  0.24264714545566435  1.0000
  H   H323      1.0  0.2720406399675734  0.7036709197106191  0.2837413082085803  1.0000
  H   H324      1.0  0.2987469162643757  0.6838018084416776  0.29096583819290706  1.0000
  N   N12       1.0  0.9294766975144119  0.6441356548763624  0.5930603146876153  1.0000
  C   C333      1.0  0.9300536069694516  0.6626571334090409  0.5583323682771598  1.0000
  C   C334      1.0  0.9553325591774022  0.6377315146747953  0.6055585492906744  1.0000
  C   C335      1.0  0.9164977338624191  0.6213877970023827  0.5788017425546252  1.0000
  C   C336      1.0  0.9159506025458808  0.6548289009319463  0.6297453195889496  1.0000
  H   H325      1.0  0.9398881372890056  0.6552382383515446  0.5298380926082508  1.0000
  H   H326      1.0  0.9398130752532017  0.6800252710919571  0.5679984390222866  1.0000
  H   H327      1.0  0.9108029066782638  0.6682354010790535  0.5485960419557956  1.0000
  H   H328      1.0  0.955493252877792  0.623767177096691  0.6317237855443101  1.0000
  H   H329      1.0  0.9661672732801946  0.6296382732065531  0.578653448705181  1.0000
  H   H330      1.0  0.9655184282029619  0.6544812488886258  0.6169365625882033  1.0000
  H   H331      1.0  0.9156727818394584  0.6070951608842601  0.6044399695415524  1.0000
  H   H332      1.0  0.9262086598567045  0.612719453352879  0.5512091157590089  1.0000
  H   H333      1.0  0.8968889750510983  0.6256123023111633  0.5693814912597581  1.0000
  H   H334      1.0  0.9255288670129277  0.6716883714665944  0.6419153705133874  1.0000
  H   H335      1.0  0.9147212524242476  0.6413451179649396  0.6563578229911182  1.0000
  H   H336      1.0  0.8964555888756489  0.6601480234358479  0.6214180860766367  1.0000
  N   N13       1.0  0.27774836961420984  0.5998827017572178  0.9653998812427095  1.0000
  C   C337      1.0  0.2748743597254533  0.5796153946686403  0.9341785084842239  1.0000
  C   C338      1.0  0.26119500036433513  0.5950532922575147  0.002143385807572562  1.0000
  C   C339      1.0  0.2708617945541341  0.6240144303366453  0.9458052029973005  1.0000
  C   C340      1.0  0.304042864955671  0.6007687918412787  0.9795127945144333  1.0000
  H   H337      1.0  0.25518545690016325  0.5784252512737881  0.9230524763430754  1.0000
  H   H338      1.0  0.2799748444196178  0.5611851860323118  0.9481591671161604  1.0000
  H   H339      1.0  0.2870800622199712  0.5826408043962691  0.9059744304884134  1.0000
  H   H340      1.0  0.26282289302863227  0.6099970694629442  0.026344630525388747  1.0000
  H   H341      1.0  0.24122497990879896  0.5940534589175512  0.9927761240027777  1.0000
  H   H342      1.0  0.2660798327440355  0.5771455782001171  0.018098289983443424  1.0000
  H   H343      1.0  0.2515588547758037  0.6235910222341086  0.9328755847692729  1.0000
  H   H344      1.0  0.2837271259662528  0.6288952932578524  0.9192850380124052  1.0000
  H   H345      1.0  0.27146026694726644  0.6395439401525411  0.969214534196734  1.0000
  H   H346      1.0  0.3171913826536102  0.6040406044184808  0.9526759751692252  1.0000
  H   H347      1.0  0.30971701785742767  0.5830402650333034  0.9953637578708485  1.0000
  H   H348      1.0  0.3069089449820555  0.6159655173826001  0.0029505109799232705  1.0000
  N   N14       1.0  0.849683961941093  0.2913008043459271  0.3399542857554352  1.0000
  C   C341      1.0  0.8501297103058646  0.2700943671719538  0.3100986250134595  1.0000
  C   C342      1.0  0.8754382470104011  0.2965285090014591  0.35379986382424317  1.0000
  C   C343      1.0  0.8341140911483292  0.28491529660997816  0.3772618435026578  1.0000
  C   C344      1.0  0.8392586269814903  0.31362326872288365  0.31880676163718175  1.0000
  H   H349      1.0  0.8309969067426989  0.26552890104022836  0.2989687725232902  1.0000
  H   H350      1.0  0.8580589593921613  0.2530166731060778  0.32520230476737305  1.0000
  H   H351      1.0  0.8619162000703189  0.27432411345750235  0.2817836888508921  1.0000
  H   H352      1.0  0.8758872095274305  0.3123241245280078  0.3765974943723661  1.0000
  H   H353      1.0  0.8836891930717475  0.2800563957223994  0.37015902100794196  1.0000
  H   H354      1.0  0.8879536059360926  0.3014302992756887  0.3267153677829535  1.0000
  H   H355      1.0  0.8339761856889347  0.3003084679318929  0.4009676108305445  1.0000
  H   H356      1.0  0.841545535479668  0.26809925734007106  0.3939023645830037  1.0000
  H   H357      1.0  0.8144255293764209  0.28106653216367045  0.36837289644867566  1.0000
  H   H358      1.0  0.8388235964350239  0.3299583059520178  0.34055795006520195  1.0000
  H   H359      1.0  0.8198193379506707  0.3104356136748909  0.3078147160475925  1.0000
  H   H360      1.0  0.8507455178636758  0.3190072107535231  0.2906883980039428  1.0000
  N   N15       1.0  0.818320303609877  0.7185911730463567  0.9629664621994927  1.0000
  C   C345      1.0  0.8271538983363408  0.6939880587132222  0.9477243776621483  1.0000
  C   C346      1.0  0.7915104271589984  0.7170524426442938  0.9744215506161824  1.0000
  C   C347      1.0  0.821700552014063  0.7373691488476661  0.9291461507947975  1.0000
  C   C348      1.0  0.8328954018824994  0.7260256487337494  0.00047873730910419354  1.0000
  H   H361      1.0  0.8164500610660018  0.68762449111422  0.9197038281093782  1.0000
  H   H362      1.0  0.8251546620375843  0.6794304123222279  0.9726270211789105  1.0000
  H   H363      1.0  0.8472316972010705  0.6945391832277334  0.9383849613996322  1.0000
  H   H364      1.0  0.7841269509466631  0.7354616783686536  0.9851552201978587  1.0000
  H   H365      1.0  0.7799320106965316  0.7109749162016439  0.9472510543664863  1.0000
  H   H366      1.0  0.788302889752309  0.7036089189737288  0.0008020634933698645  1.0000
  H   H367      1.0  0.8108990333682949  0.7323944167179862  0.900400962733228  1.0000
  H   H368      1.0  0.8417371625132533  0.7389847614000414  0.9196810699548281  1.0000
  H   H369      1.0  0.815185341559354  0.756163158580708  0.9396961995044679  1.0000
  H   H370      1.0  0.8532768869326097  0.7271359914881734  0.9932553750595605  1.0000
  H   H371      1.0  0.8307162436495431  0.7124370412827564  0.026803920173885883  1.0000
  H   H372      1.0  0.8265383445100817  0.7444200908198798  0.013116867481359984  1.0000
  N   N16       1.0  0.9983610800240013  0.7445216840558679  0.33946285716726665  1.0000
  C   C349      1.0  0.9905502638097392  0.7315758241032926  0.30048361418771713  1.0000
  C   C350      1.0  0.9874343770207333  0.7317454842091127  0.3766328275757143  1.0000
  C   C351      1.0  0.9893573281306789  0.770653238916005  0.33829751137737807  1.0000
  C   C352      1.0  0.025960015782851453  0.7441053816428704  0.3425345753153818  1.0000
  H   H373      1.0  0.9984275369411734  0.7406960404442915  0.2717283610759076  1.0000
  H   H374      1.0  0.9697611189030332  0.7317187506263383  0.2973205155483312  1.0000
  H   H375      1.0  0.996716271177433  0.7117085921219223  0.3004630685396411  1.0000
  H   H376      1.0  0.9922169775923587  0.7414657324192121  0.40656476677622405  1.0000
  H   H377      1.0  0.9666765044499103  0.7311488227402779  0.3746773097990236  1.0000
  H   H378      1.0  0.9942560122683903  0.7121695205015788  0.37934230954013964  1.0000
  H   H379      1.0  0.9946934580490283  0.7809471640937887  0.3673936987562346  1.0000
  H   H380      1.0  0.9685597301284427  0.7715661273579575  0.3359382874367411  1.0000
  H   H381      1.0  0.9971969388388301  0.7809336246472082  0.3106828381872283  1.0000
  H   H382      1.0  0.034907859492422366  0.7540481000712198  0.3154983156190628  1.0000
  H   H383      1.0  0.03341012691449907  0.724668536078751  0.34298423809080497  1.0000
  H   H384      1.0  0.032374963536277335  0.7532665447694173  0.3721023764687132  1.0000
  N   N17       1.0  0.8050779468479705  0.39764227381204414  0.9483592610415206  1.0000
  C   C353      1.0  0.7997734205204373  0.42450759051598935  0.9545850071720203  1.0000
  C   C354      1.0  0.8236235741776793  0.39445047705504344  0.9138126691744972  1.0000
  C   C355      1.0  0.7816649867922141  0.3846352431151645  0.9375012946325167  1.0000
  C   C356      1.0  0.8152657790058552  0.387008712505534  0.9878071427919236  1.0000
  H   H385      1.0  0.7862050461214627  0.4275635150410283  0.9811091665668795  1.0000
  H   H386      1.0  0.791657509566135  0.4331248140361628  0.9257137492422373  1.0000
  H   H387      1.0  0.8170956748886379  0.43493796191740997  0.9623662422207938  1.0000
  H   H388      1.0  0.827969906348029  0.37438484847527687  0.9082001038840124  1.0000
  H   H389      1.0  0.8167957750987447  0.4026119798201816  0.8836088794556449  1.0000
  H   H390      1.0  0.841606541778066  0.40380444009404837  0.9214253280977969  1.0000
  H   H391      1.0  0.7846705270579936  0.3641377325467444  0.9343767285775808  1.0000
  H   H392      1.0  0.7737584309202116  0.39165347085668906  0.9072559270644067  1.0000
  H   H393      1.0  0.7671044794339067  0.38747146986349357  0.9624365115508656  1.0000
  H   H394      1.0  0.8195322567031714  0.36675266998437406  0.9846077062087021  1.0000
  H   H395      1.0  0.8018730495776851  0.3892544949667962  0.01457721140419621  1.0000
  H   H396      1.0  0.8328270652929752  0.39646514404481087  0.9970121891258359  1.0000
  N   N18       1.0  0.8819089855605291  0.7978313456024926  0.6264151489660625  1.0000
  C   C357      1.0  0.8741502850128129  0.785143106563096  0.5872384666380149  1.0000
  C   C358      1.0  0.8725555955744584  0.7837160515496948  0.6634418563371618  1.0000
  C   C359      1.0  0.8714345787154667  0.8234377109478851  0.6270782397741499  1.0000
  C   C360      1.0  0.90952869481276  0.7989696584374183  0.6276504050054441  1.0000
  H   H397      1.0  0.8806167883247021  0.7654542076652557  0.5865048758880276  1.0000
  H   H398      1.0  0.8822538964309623  0.7943648297031086  0.5588304057966001  1.0000
  H   H399      1.0  0.8534378062230424  0.7850360877205327  0.5838624659814834  1.0000
  H   H400      1.0  0.8517812109527677  0.7822457209095679  0.6631052366262942  1.0000
  H   H401      1.0  0.8803104406726464  0.7643630148216081  0.6639268493349634  1.0000
  H   H402      1.0  0.8779468298689476  0.7927931600969569  0.6936546475068565  1.0000
  H   H403      1.0  0.8505835371865855  0.8233346171151784  0.6260419954444856  1.0000
  H   H404      1.0  0.878026364406072  0.8344763781243771  0.5992879414608331  1.0000
  H   H405      1.0  0.8769425574179787  0.8337059378829694  0.656081228277342  1.0000
  H   H406      1.0  0.918018041371662  0.7799524275562055  0.6264146850769129  1.0000
  H   H407      1.0  0.9161416822439344  0.8081216732888662  0.6570635372257057  1.0000
  H   H408      1.0  0.917155061408565  0.809680279602024  0.6002192421223906  1.0000
  N   N19       1.0  0.12519184810101144  0.8451969458079323  0.5008313455349881  1.0000
  C   C361      1.0  0.14218685418760202  0.8420026346541469  0.46413896698952867  1.0000
  C   C362      1.0  0.12250015818020724  0.8211461935931735  0.5232648356151358  1.0000
  C   C363      1.0  0.10038260052028712  0.8536075762140858  0.48590901054795865  1.0000
  C   C364      1.0  0.13579543127315927  0.8638715310130316  0.5299367761232328  1.0000
  H   H409      1.0  0.1449238420877138  0.8598156199709418  0.4466725463178378  1.0000
  H   H410      1.0  0.13464625082444912  0.8282150035071083  0.4412735987075982  1.0000
  H   H411      1.0  0.1609889687927039  0.8352405588609237  0.4741558385791109  1.0000
  H   H412      1.0  0.1097767221985146  0.8227905926981294  0.5511211063903302  1.0000
  H   H413      1.0  0.11461094380439725  0.8065815096164959  0.5021653062314966  1.0000
  H   H414      1.0  0.14090076666824197  0.8141807230545993  0.5348456323810187  1.0000
  H   H415      1.0  0.0920731860159408  0.8396495176270987  0.4639498543484689  1.0000
  H   H416      1.0  0.10166006294823467  0.8716223857564951  0.46850399258592956  1.0000
  H   H417      1.0  0.0869963752852786  0.8561431239853492  0.5127105816830229  1.0000
  H   H418      1.0  0.15459773524354514  0.85781346620192  0.5413849130710309  1.0000
  H   H419      1.0  0.1235848286391178  0.8666825229922396  0.5582133884501498  1.0000
  H   H420      1.0  0.13816767577885644  0.8822735063762197  0.5140849890930274  1.0000
  N   N20       1.0  0.38592371449864704  0.9197322003584569  0.8583779113201677  1.0000
  C   C365      1.0  0.37270818888373314  0.9246171857946555  0.8988035307017588  1.0000
  C   C366      1.0  0.3675149672831442  0.9136561947887782  0.8253584074144188  1.0000
  C   C367      1.0  0.40335302389814165  0.898498533442878  0.8638309567831345  1.0000
  C   C368      1.0  0.40020254781065817  0.9420647507865246  0.8455400054653937  1.0000
  H   H421      1.0  0.3587580665704575  0.9399692107602543  0.8957477420136561  1.0000
  H   H422      1.0  0.38601670909642427  0.9298482127447013  0.9242221667922611  1.0000
  H   H423      1.0  0.36264500758483514  0.9076964410954796  0.9102468514536879  1.0000
  H   H424      1.0  0.35608407569630396  0.8971956895258979  0.8345715575200459  1.0000
  H   H425      1.0  0.35437442953822945  0.9294309391716006  0.8194705567545444  1.0000
  H   H426      1.0  0.37692522336820683  0.9091107946708511  0.794741354731044  1.0000
  H   H427      1.0  0.414338956631684  0.8946754030820883  0.8344326810372349  1.0000
  H   H428      1.0  0.3931920768980081  0.8810397748573753  0.8718779476042733  1.0000
  H   H429      1.0  0.41686990735379903  0.9020114122752578  0.8897451621394463  1.0000
  H   H430      1.0  0.38768621524252733  0.95853690883675  0.8414243734571843  1.0000
  H   H431      1.0  0.4102427501758778  0.9388905678136105  0.8149641850809168  1.0000
  H   H432      1.0  0.41449232635053695  0.9469112378906597  0.8696038174306172  1.0000
  N   N21       1.0  0.39714049005657476  0.08844670919376929  0.16903900814468686  1.0000
  C   C369      1.0  0.38617127065203444  0.11158951922568645  0.18685957111615997  1.0000
  C   C370      1.0  0.4094816502277928  0.09412017263463314  0.12815998343182045  1.0000
  C   C371      1.0  0.37715359378258634  0.06989480662033411  0.16261179369579848  1.0000
  C   C372      1.0  0.4157819980201961  0.07812925032176295  0.19868668966773026  1.0000
  H   H433      1.0  0.37665808009343216  0.10808161976291603  0.21774609048861604  1.0000
  H   H434      1.0  0.3722118626796471  0.12014461580777437  0.1651865606086313  1.0000
  H   H435      1.0  0.4007589886190679  0.12589975261948044  0.1924997526448967  1.0000
  H   H436      1.0  0.42485925465106067  0.10783707362177289  0.1321921205354546  1.0000
  H   H437      1.0  0.4178148982655311  0.07704344339179708  0.11364482727236701  1.0000
  H   H438      1.0  0.39606113405913945  0.10232877586444006  0.10515186837117113  1.0000
  H   H439      1.0  0.3848009254274469  0.05214981906013163  0.14932722797201806  1.0000
  H   H440      1.0  0.36261901406396385  0.0770146451909545  0.14056492620239477  1.0000
  H   H441      1.0  0.36768411199240747  0.06509162871988736  0.1930793785952023  1.0000
  H   H442      1.0  0.4242165556521288  0.060422021675683134  0.1867135161488527  1.0000
  H   H443      1.0  0.4071348300360159  0.07388824255675917  0.23000408099387237  1.0000
  H   H444      1.0  0.43140439290196364  0.09138836188434567  0.204181220053214  1.0000
  N   N22       1.0  0.782952859263101  0.88316074090234  0.44949705990099764  1.0000
  C   C373      1.0  0.7976468237589394  0.860823812959893  0.4372171578415992  1.0000
  C   C374      1.0  0.8001546211060375  0.9031088474572966  0.4629056066879576  1.0000
  C   C375      1.0  0.7659504337176206  0.876764415769535  0.4849016063574545  1.0000
  C   C376      1.0  0.7680371797282387  0.8919993697400379  0.41316063896233685  1.0000
  H   H445      1.0  0.8107611787789677  0.8649463182463876  0.41062492211666196  1.0000
  H   H446      1.0  0.7852828948015217  0.8453135024065634  0.4271363377847632  1.0000
  H   H447      1.0  0.8091109772195421  0.8538380578415593  0.464097028147276  1.0000
  H   H448      1.0  0.7897061375457111  0.920391428081039  0.4718148617361361  1.0000
  H   H449      1.0  0.8113017882668949  0.8972693974820167  0.49087239170921243  1.0000
  H   H450      1.0  0.8135325998000745  0.9081838080448149  0.43722587996766343  1.0000
  H   H451      1.0  0.7544751341459973  0.8931780807268539  0.4946644318633426  1.0000
  H   H452      1.0  0.7765109571643081  0.870305953115215  0.5131417646444597  1.0000
  H   H453      1.0  0.7527213179394958  0.8617119547899953  0.47610560421329284  1.0000
  H   H454      1.0  0.7569561069772021  0.9090144380536682  0.42153952252253263  1.0000
  H   H455      1.0  0.7544725246639222  0.8776219170232699  0.4026753562710729  1.0000
  H   H456      1.0  0.7801788577926296  0.896891450224868  0.38568311528533017  1.0000
  N   N23       1.0  0.9630682797140474  0.6337382464630449  0.961226349669963  1.0000
  C   C377      1.0  0.9646739868946923  0.6074392335603868  0.9751449386687248  1.0000
  C   C378      1.0  0.9495789654023855  0.6350856754509265  0.9206432192844213  1.0000
  C   C379      1.0  0.9885530022738344  0.6438533886950806  0.9554095608689143  1.0000
  C   C380      1.0  0.9494607889119538  0.6485391876892864  0.9935483218437616  1.0000
  H   H457      1.0  0.9748167801271647  0.6057019645226788  0.0056482945773035365  1.0000
  H   H458      1.0  0.974746836219  0.5957382379530355  0.9513262596418013  1.0000
  H   H459      1.0  0.94569944291256  0.5993214512003979  0.9798271276410797  1.0000
  H   H460      1.0  0.9595536045796297  0.6243503198284149  0.895482766300738  1.0000
  H   H461      1.0  0.930268177318777  0.627521121723614  0.9234963225471168  1.0000
  H   H462      1.0  0.9480039984031995  0.6546821246769512  0.9092001026771285  1.0000
  H   H463      1.0  0.9994929734471732  0.6327837957985826  0.931769587001239  1.0000
  H   H464      1.0  0.9991815570500536  0.6437798791575956  0.9855278089992726  1.0000
  H   H465      1.0  0.9879807142668952  0.6634079171422435  0.9433589713205052  1.0000
  H   H466      1.0  0.9301285127407779  0.6414067332450273  0.9987144074669022  1.0000
  H   H467      1.0  0.9478013986996113  0.6684862855840985  0.9840226954434498  1.0000
  H   H468      1.0  0.9590479819666551  0.6479976552769259  0.024661677997805054  1.0000
  N   N24       1.0  0.4597926186297406  0.8698958740954387  0.08853749009197255  1.0000
  C   C381      1.0  0.48466121995165534  0.8810124185096959  0.0956463812934632  1.0000
  C   C382      1.0  0.4611784612077845  0.84264619479717  0.09564291622652381  1.0000
  C   C383      1.0  0.45193845300645075  0.8747720506321122  0.04454535370259053  1.0000
  C   C384      1.0  0.44140867047329746  0.8810817364402467  0.11824597824366134  1.0000
  H   H469      1.0  0.4841845289300852  0.9016339944950766  0.0912400249756315  1.0000
  H   H470      1.0  0.4989553817313346  0.8731421345492352  0.07347463785545641  1.0000
  H   H471      1.0  0.491225545941184  0.8775437620369773  0.12851447017120016  1.0000
  H   H472      1.0  0.44282297585015745  0.8335935511551706  0.08975221299882505  1.0000
  H   H473      1.0  0.47508044626888046  0.8336644013611771  0.07394895681166165  1.0000
  H   H474      1.0  0.46679373469892793  0.838196689947646  0.12862699297914953  1.0000
  H   H475      1.0  0.4332352626724328  0.8666625222415285  0.03825430512499934  1.0000
  H   H476      1.0  0.46529077481369574  0.8663438605278626  0.021265924011129533  1.0000
  H   H477      1.0  0.45056999813915294  0.8951204811793801  0.03785239680779083  1.0000
  H   H478      1.0  0.422517196545291  0.8728202505058383  0.11430676709825074  1.0000
  H   H479      1.0  0.4395692542134689  0.9015957626555137  0.11334166331529788  1.0000
  H   H480      1.0  0.44703602592079694  0.8782045655878533  0.15174891387981676  1.0000
  N   N25       1.0  0.685128743707214  0.19556204030031377  0.6472344969650067  1.0000
  C   C385      1.0  0.7106460608757436  0.20464345318729732  0.6383344509948983  1.0000
  C   C386      1.0  0.6667935369624794  0.21232890251314623  0.6267695227077675  1.0000
  C   C387      1.0  0.6807678170414506  0.19525825860516893  0.6935127145769214  1.0000
  C   C388      1.0  0.6825258638877691  0.17003481689629713  0.6301548411950416  1.0000
  H   H481      1.0  0.7135281843706661  0.22367294606624175  0.651433355363646  1.0000
  H   H482      1.0  0.7144809534926827  0.20567713736241583  0.6037434440212884  1.0000
  H   H483      1.0  0.724916928925664  0.19195706022461204  0.6523108164192882  1.0000
  H   H484      1.0  0.6472636727366128  0.20609516349806803  0.6327865580614145  1.0000
  H   H485      1.0  0.6684348015439486  0.23179142713033377  0.6387562149322991  1.0000
  H   H486      1.0  0.6697656575377582  0.21288704468159603  0.5918005137890072  1.0000
  H   H487      1.0  0.661690324958855  0.18848283168850422  0.7015988511841124  1.0000
  H   H488      1.0  0.682806687057147  0.21422245827551883  0.7075355806995891  1.0000
  H   H489      1.0  0.6944806084331487  0.18285836760860166  0.7098180768653928  1.0000
  H   H490      1.0  0.6632717452484953  0.16276203319117666  0.6350646955951155  1.0000
  H   H491      1.0  0.6957140231026875  0.1568049115090509  0.6457489515969317  1.0000
  H   H492      1.0  0.6866948766658787  0.16950265596862882  0.5955064720044461  1.0000
  N   N26       1.0  0.8323248171009144  0.20408841408010556  0.7169793047047696  1.0000
  C   C389      1.0  0.8561081926693448  0.21745145177974579  0.7098123989633836  1.0000
  C   C390      1.0  0.8359846207822264  0.1773055431733444  0.7075256291065924  1.0000
  C   C391      1.0  0.8129852853548235  0.21452895014247134  0.6888233548449647  1.0000
  C   C392      1.0  0.82407533295076  0.20698555574729197  0.7614662457787451  1.0000
  H   H493      1.0  0.8712258386219482  0.21003376435172275  0.7303999497478574  1.0000
  H   H494      1.0  0.8540134671795834  0.23777175747894053  0.716261189390512  1.0000
  H   H495      1.0  0.8625909879017246  0.21542776033619185  0.6762872421610697  1.0000
  H   H496      1.0  0.8183643716133663  0.16663257266277529  0.7126128160100567  1.0000
  H   H497      1.0  0.8420508120609156  0.17444757876379538  0.6740309519366319  1.0000
  H   H498      1.0  0.8505508500586633  0.1687681308026001  0.7279934387008113  1.0000
  H   H499      1.0  0.7950218267671751  0.20438372886876166  0.6926396156469805  1.0000
  H   H500      1.0  0.8187814330132782  0.21310081952248086  0.6549988267451621  1.0000
  H   H501      1.0  0.8092751804933608  0.23458877883160556  0.6955770372982165  1.0000
  H   H502      1.0  0.8060156110539118  0.19713311235878975  0.7673551414193015  1.0000
  H   H503      1.0  0.8210521006126673  0.22697018963546897  0.7697496153662041  1.0000
  H   H504      1.0  0.8380902700187821  0.1991261458922516  0.7837460519346006  1.0000
  N   N27       1.0  0.8825804712281003  0.45181544247053335  0.26067384596306864  1.0000
  C   C393      1.0  0.8943608950750599  0.43202034930743793  0.23466310491721468  1.0000
  C   C394      1.0  0.8645862553627295  0.466050110389587  0.2346054172767215  1.0000
  C   C395      1.0  0.9021458796810001  0.46875080751059317  0.27639518461056306  1.0000
  C   C396      1.0  0.8692426499724805  0.4403890478288442  0.29691514488616455  1.0000
  H   H505      1.0  0.9072268250205392  0.4200470826774692  0.2535557334721097  1.0000
  H   H506      1.0  0.9051557729248144  0.4399297349025624  0.20759112051956416  1.0000
  H   H507      1.0  0.8800091670926312  0.4195749330861151  0.22100474957654695  1.0000
  H   H508      1.0  0.8556211182276784  0.48152538712644044  0.25267936654139506  1.0000
  H   H509      1.0  0.8738322723328651  0.474390239804157  0.206258363707493  1.0000
  H   H510      1.0  0.8492646196008421  0.45388592858328913  0.2228773447075681  1.0000
  H   H511      1.0  0.893956047842583  0.4839055673050096  0.29627098912294775  1.0000
  H   H512      1.0  0.91244015515693  0.47774855519111076  0.24972264043716363  1.0000
  H   H513      1.0  0.9160833364733161  0.4584768029066752  0.2959462890706216  1.0000
  H   H514      1.0  0.8607348744796153  0.45478947282256993  0.31794625388258624  1.0000
  H   H515      1.0  0.8819827237796171  0.4285549774999747  0.3162891813023644  1.0000
  H   H516      1.0  0.8537842647690802  0.4281916575448456  0.2860402930306485  1.0000
  N   N28       1.0  0.48615569066793946  0.2293824383093743  0.1264868936865775  1.0000
  C   C397      1.0  0.5132105832658902  0.23371507171976955  0.13202692535221902  1.0000
  C   C398      1.0  0.4763842154429371  0.21405607911554  0.1618328967261108  1.0000
  C   C399      1.0  0.4821504916480327  0.21617875705785047  0.08612511201883262  1.0000
  C   C400      1.0  0.47279949446290814  0.2536221074397705  0.1256920729186627  1.0000
  H   H517      1.0  0.5169940833897115  0.24361804455555255  0.1622118284839233  1.0000
  H   H518      1.0  0.5208923839287973  0.24537814528626026  0.10572577434070862  1.0000
  H   H519      1.0  0.5238720409247289  0.21581058454161223  0.13239708360616906  1.0000
  H   H520      1.0  0.4559091214107222  0.21078625927922423  0.15858021811874304  1.0000
  H   H521      1.0  0.48562363716750145  0.19539548364307993  0.16299320483875052  1.0000
  H   H522      1.0  0.4792553348228667  0.22326571195780637  0.19295714641497266  1.0000
  H   H523      1.0  0.46193660942333575  0.21348746614052105  0.08028637100585373  1.0000
  H   H524      1.0  0.49105314532201255  0.19736658303947804  0.08588790529275495  1.0000
  H   H525      1.0  0.48970912633182023  0.22686937555435222  0.05868352771616823  1.0000
  H   H526      1.0  0.4522570034005781  0.25100833372907816  0.12213751708456362  1.0000
  H   H527      1.0  0.4792555201238943  0.26543904175173655  0.09870197642267438  1.0000
  H   H528      1.0  0.47577937042852686  0.26435598531435917  0.15530607420411377  1.0000
  N   N29       1.0  0.4642930207781035  0.18214211993355087  0.46981581538033423  1.0000
  C   C401      1.0  0.46778815794434886  0.19622829789771745  0.5095022648828276  1.0000
  C   C402      1.0  0.4889163932779741  0.17461968625178392  0.45230352157535364  1.0000
  C   C403      1.0  0.451150257911248  0.19810561144525782  0.43885220179032447  1.0000
  C   C404      1.0  0.44923462098618533  0.1596527896213076  0.4785836362357748  1.0000
  H   H529      1.0  0.47892987622079797  0.2134355497239448  0.5039618572145368  1.0000
  H   H530      1.0  0.4776649720293722  0.18477192795358577  0.5336362439198686  1.0000
  H   H531      1.0  0.44944281283494425  0.20207468391466105  0.5234948853176492  1.0000
  H   H532      1.0  0.48688395120032407  0.1644884309728189  0.4217806335777217  1.0000
  H   H533      1.0  0.5008414503614746  0.19114550139949485  0.44574361364000087  1.0000
  H   H534      1.0  0.49927193398429465  0.16219715487853606  0.47438098167884557  1.0000
  H   H535      1.0  0.447310307499238  0.18776107460790548  0.40912333322309624  1.0000
  H   H536      1.0  0.46247795297395194  0.21470595932463338  0.4299333109505653  1.0000
  H   H537      1.0  0.4329079642832045  0.20494187315199214  0.45156406584263886  1.0000
  H   H538      1.0  0.43085483168125305  0.16471154398829346  0.49301381164494756  1.0000
  H   H539      1.0  0.45881695445313175  0.1467916853656557  0.5009356896891858  1.0000
  H   H540      1.0  0.4454199913365694  0.14898255546790018  0.4490817560185984  1.0000
  N   N30       1.0  0.7361739415103438  0.08402871093932225  0.44313454070408115  1.0000
  C   C405      1.0  0.7325523200466534  0.09277552953465436  0.39921633291785563  1.0000
  C   C406      1.0  0.7158956113266352  0.06661787273596013  0.454799122086228  1.0000
  C   C407      1.0  0.7356745266339925  0.1056485613995524  0.4721826259953441  1.0000
  C   C408      1.0  0.760568056482026  0.07104416602496988  0.4463886659638115  1.0000
  H   H541      1.0  0.7473684611745266  0.10617208147348961  0.38944024675755556  1.0000
  H   H542      1.0  0.7142574296914992  0.10257746145939398  0.3955101151947489  1.0000
  H   H543      1.0  0.732926370729309  0.07703673217967318  0.37628169299881153  1.0000
  H   H544      1.0  0.7182320691141285  0.05950101781194499  0.48769650966911365  1.0000
  H   H545      1.0  0.697235428197435  0.07588115917411033  0.45296845596234786  1.0000
  H   H546      1.0  0.7156433144320746  0.05012237527076682  0.433386014843821  1.0000
  H   H547      1.0  0.7518001665960788  0.11826449280191739  0.46626693304705596  1.0000
  H   H548      1.0  0.7368223909823667  0.09963670885440784  0.5058278762965024  1.0000
  H   H549      1.0  0.7182564352068073  0.1169309009299419  0.46859241206605745  1.0000
  H   H550      1.0  0.7637377486266361  0.06394766829051621  0.4790260069465113  1.0000
  H   H551      1.0  0.7763738424643782  0.08377090286397525  0.43874971716845423  1.0000
  H   H552      1.0  0.7617610061557845  0.054774328565276996  0.42460581759561855  1.0000
  N   N31       1.0  0.09413832109940756  0.32448264962512197  0.3437558634022985  1.0000
  C   C409      1.0  0.09807850594007239  0.3358525789538499  0.3016241046167556  1.0000
  C   C410      1.0  0.1049683856358814  0.340804982326527  0.37644421652247584  1.0000
  C   C411      1.0  0.10664256723624965  0.2998217920028877  0.3450049121428977  1.0000
  C   C412      1.0  0.06703432606624005  0.32146072173138973  0.35196268750320836  1.0000
  H   H553      1.0  0.09025983962205708  0.323957228460423  0.27614350771571067  1.0000
  H   H554      1.0  0.11842910965226205  0.33835969414912404  0.29471967164941937  1.0000
  H   H555      1.0  0.08899327826413295  0.35454367444672524  0.29953404425777364  1.0000
  H   H556      1.0  0.10271691960508389  0.33261076655343585  0.40857707265364474  1.0000
  H   H557      1.0  0.12536465578190947  0.3436297233474878  0.37097364655405923  1.0000
  H   H558      1.0  0.09583792544795244  0.35950216386328343  0.3768746139696042  1.0000
  H   H559      1.0  0.09863125010458096  0.28677867623793224  0.32140036341396716  1.0000
  H   H560      1.0  0.10461713463336109  0.290948029149601  0.3766807513179427  1.0000
  H   H561      1.0  0.1270621693931846  0.3014527753006459  0.33808476502913865  1.0000
  H   H562      1.0  0.056911994059622106  0.33965479838962687  0.35089230261592236  1.0000
  H   H563      1.0  0.06347047595945976  0.3132976978472831  0.3837970198425  1.0000
  H   H564      1.0  0.058247538867316706  0.3088164853686265  0.32850054427374326  1.0000
  N   N32       1.0  0.11221390935674691  0.35168792360185536  0.6059007675719698  1.0000
  C   C413      1.0  0.11625688449725202  0.3647281559230063  0.6464575067772438  1.0000
  C   C414      1.0  0.13553534408140822  0.33877466898487024  0.5931146886182797  1.0000
  C   C415      1.0  0.10524737310591359  0.37003676661353446  0.5730038669214275  1.0000
  C   C416      1.0  0.09199541335069483  0.3331895601948076  0.6110247390480112  1.0000
  H   H565      1.0  0.13177339836297897  0.37846640215647637  0.6438508537819199  1.0000
  H   H566      1.0  0.12152661845349022  0.35139573350099385  0.6720228995518623  1.0000
  H   H567      1.0  0.09919048978782907  0.37496985308545877  0.6570968080021348  1.0000
  H   H568      1.0  0.13312952943237777  0.32786392608390896  0.5636225890100306  1.0000
  H   H569      1.0  0.15078427011589923  0.3523279391642389  0.5869478142922178  1.0000
  H   H570      1.0  0.14196790603411769  0.3255356770178929  0.6179644992764229  1.0000
  H   H571      1.0  0.10231057583105119  0.36077323995549127  0.541915241881185  1.0000
  H   H572      1.0  0.12019561847512072  0.38420687052641284  0.5683477234250823  1.0000
  H   H573      1.0  0.08764229880754426  0.38008776178402376  0.5814279165905757  1.0000
  H   H574      1.0  0.07410840684450215  0.3422398040780979  0.6208724108884464  1.0000
  H   H575      1.0  0.09688811240503337  0.3188972323172946  0.6352331386213712  1.0000
  H   H576      1.0  0.08848278050944391  0.32308487141068615  0.5808426431911269  1.0000
  N   N33       1.0  0.6603234300754387  0.9667957146082725  0.12661597460389148  1.0000
  C   C417      1.0  0.6492626768453873  0.9894088470334949  0.1461042850201  1.0000
  C   C418      1.0  0.6401377525514127  0.9495779916909001  0.11410839288043012  1.0000
  C   C419      1.0  0.6768997029144749  0.9543489079434213  0.1574677946792872  1.0000
  C   C420      1.0  0.6750867653640895  0.973900484532125  0.08880434718649274  1.0000
  H   H577      1.0  0.6639751577957335  0.002496848684237163  0.15715006611874582  1.0000
  H   H578      1.0  0.6377401571428724  0.984591371652624  0.17431499008751927  1.0000
  H   H579      1.0  0.6370038022672466  0.9996974219242313  0.1237122961076065  1.0000
  H   H580      1.0  0.6296535247621804  0.9423922488294145  0.1421319407429787  1.0000
  H   H581      1.0  0.6263978626856419  0.9588591564467259  0.09293559521235006  1.0000
  H   H582      1.0  0.6476852521317293  0.9330752427635026  0.09681413884324074  1.0000
  H   H583      1.0  0.6918093911615325  0.9671288507101299  0.16871949683861942  1.0000
  H   H584      1.0  0.6862812029719996  0.9377167737570499  0.1436003366243971  1.0000
  H   H585      1.0  0.666330657731606  0.9481085177960066  0.18602636099696204  1.0000
  H   H586      1.0  0.6837381781139626  0.9571955778653687  0.07343165906805346  1.0000
  H   H587      1.0  0.6904754635678282  0.9868794741877301  0.0971973082055891  1.0000
  H   H588      1.0  0.6631752682095916  0.9833144128673944  0.0647945245553742  1.0000
  N   N34       1.0  0.0803369534038671  0.6839007383434934  0.7275214449087886  1.0000
  C   C421      1.0  0.08679735586786191  0.7045137972648339  0.6983388746815601  1.0000
  C   C422      1.0  0.0901675411961668  0.6894102135463034  0.7700809241604077  1.0000
  C   C423      1.0  0.09171432645643388  0.6604975423813858  0.711746985860288  1.0000
  C   C424      1.0  0.05285425583066982  0.6810546117543064  0.7299471476928837  1.0000
  H   H589      1.0  0.07853788261455241  0.7225426399329674  0.7091297536506066  1.0000
  H   H590      1.0  0.079934797987199  0.7008571114490618  0.6657628435092119  1.0000
  H   H591      1.0  0.10748085920890521  0.7070358671463897  0.6960034295235442  1.0000
  H   H592      1.0  0.08578841341369514  0.6741062031990172  0.7928103360857677  1.0000
  H   H593      1.0  0.11091222975055796  0.6916335936517399  0.7693039808083827  1.0000
  H   H594      1.0  0.08196546361240248  0.7069392066000205  0.7831208593823685  1.0000
  H   H595      1.0  0.0872242752662061  0.6445313269265925  0.7328282625790582  1.0000
  H   H596      1.0  0.11241355844054021  0.6619471183671428  0.710241302509178  1.0000
  H   H597      1.0  0.08499331529884618  0.6557045738683283  0.6795454613023204  1.0000
  H   H598      1.0  0.04357186180056428  0.6982973159837481  0.7420651905285586  1.0000
  H   H599      1.0  0.047494167631806083  0.6654978966826013  0.7515807910173641  1.0000
  H   H600      1.0  0.044814946859732536  0.6768121839827363  0.6983986451538661  1.0000
  N   N35       1.0  0.1996942177483038  0.5220471737332967  0.8343569140512029  1.0000
  C   C425      1.0  0.18533060442607777  0.5370323279400228  0.8655128341896261  1.0000
  C   C426      1.0  0.18284907938292183  0.5040539922323672  0.8136855617862045  1.0000
  C   C427      1.0  0.21991818029842308  0.508386817793926  0.8562514237851655  1.0000
  C   C428      1.0  0.21069189548207565  0.5386780992859265  0.8019776905312027  1.0000
  H   H601      1.0  0.19723309909237446  0.5513517776019725  0.8808749012700531  1.0000
  H   H602      1.0  0.17721141385700617  0.5250972541655882  0.8909071361024723  1.0000
  H   H603      1.0  0.16954429327022277  0.5471785199236056  0.8504104510911743  1.0000
  H   H604      1.0  0.1739872301189345  0.4913935187601079  0.8372868285395099  1.0000
  H   H605      1.0  0.167667624527037  0.5136979827192739  0.7959218617487303  1.0000
  H   H606      1.0  0.1931987798677585  0.4919869287812828  0.7907111655196934  1.0000
  H   H607      1.0  0.23056072409056508  0.4960935110568415  0.8340019945480147  1.0000
  H   H608      1.0  0.21227322253153416  0.49606569143410095  0.8815666080622102  1.0000
  H   H609      1.0  0.23338079745244852  0.5213437443104775  0.8712201572645976  1.0000
  H   H610      1.0  0.22171624057037642  0.5279840632853461  0.7780107292061975  1.0000
  H   H611      1.0  0.2231676348594075  0.5528601108949446  0.8162488212611368  1.0000
  H   H612      1.0  0.19590943363984573  0.5489588227546559  0.7845493289506024  1.0000
  N   N36       1.0  0.5857166754001532  0.2068798437437234  0.9575087598817091  1.0000
  C   C429      1.0  0.5636444947224619  0.19262353984780395  0.9719835672748436  1.0000
  C   C430      1.0  0.6046798515245012  0.18953088418462452  0.9398208534145315  1.0000
  C   C431      1.0  0.5965244368627745  0.22038081348618443  0.9937214465892527  1.0000
  C   C432      1.0  0.5779820190634987  0.22497928853635585  0.924690025041687  1.0000
  H   H613      1.0  0.548962403338158  0.2052379527851949  0.9854453851935958  1.0000
  H   H614      1.0  0.568774012826048  0.1788369375444795  0.9968832119880348  1.0000
  H   H615      1.0  0.5549943034109792  0.18222855536984905  0.9453983880092716  1.0000
  H   H616      1.0  0.6216137187174979  0.1996824312589047  0.9288120695247941  1.0000
  H   H617      1.0  0.6111792104023819  0.17585382664556104  0.9640084902116695  1.0000
  H   H618      1.0  0.5972969271777616  0.1789241911132321  0.912436739978509  1.0000
  H   H619      1.0  0.6127522847511125  0.23198617746516445  0.9836469158679632  1.0000
  H   H620      1.0  0.6033738292461039  0.20723655719139364  0.018414879997176614  1.0000
  H   H621      1.0  0.5825542336178188  0.23301714467069878  0.008830553994979562  1.0000
  H   H622      1.0  0.5937775928412226  0.23716233637827286  0.9145939083040225  1.0000
  H   H623      1.0  0.5628125506550089  0.23751321251817661  0.9365161019498289  1.0000
  H   H624      1.0  0.5708278970774123  0.21548791629591948  0.8959803551998832  1.0000
  N   N37       1.0  0.6735875460788321  0.8005514614959245  0.11553326600442931  1.0000
  C   C433      1.0  0.6475118671572822  0.7967567690266285  0.1017349603346173  1.0000
  C   C434      1.0  0.6737292503351815  0.816453848732209  0.15371581396683556  1.0000
  C   C435      1.0  0.687898819446094  0.8129068625676754  0.08134092353784242  1.0000
  C   C436      1.0  0.6851934536183227  0.7760982994867548  0.12514208562373458  1.0000
  H   H625      1.0  0.6467808627263095  0.7848693343622255  0.07280688141383271  1.0000
  H   H626      1.0  0.6381841496725175  0.8148334362581174  0.09412983028580682  1.0000
  H   H627      1.0  0.6361263460246793  0.7874399368938511  0.12669643148860485  1.0000
  H   H628      1.0  0.6931173261517677  0.8197297680804969  0.1649560398254125  1.0000
  H   H629      1.0  0.6651414455516382  0.8350411503573062  0.14731566407579721  1.0000
  H   H630      1.0  0.662891448890104  0.8078892298149207  0.18014615931184755  1.0000
  H   H631      1.0  0.7078134101245777  0.8156864132804315  0.09008814273849503  1.0000
  H   H632      1.0  0.6798691321133111  0.8314876854968634  0.07348810251686383  1.0000
  H   H633      1.0  0.6876728465757107  0.8016973815040757  0.05184277543161393  1.0000
  H   H634      1.0  0.7052530383597251  0.7780514092104913  0.13376120555285645  1.0000
  H   H635      1.0  0.6844588645340598  0.7634023039154462  0.09731074449009196  1.0000
  H   H636      1.0  0.6753943555953936  0.766555488054663  0.15172360403141494  1.0000
  N   N38       1.0  0.7500034337211023  0.9779513774856596  0.7513410144440547  1.0000
  C   C437      1.0  0.7301587904238286  0.973190800917898  0.7831090810701641  1.0000
  C   C438      1.0  0.7654978942573848  0.9552158464522886  0.7462666955347681  1.0000
  C   C439      1.0  0.7659996738034738  0.998768217007562  0.7652404247195748  1.0000
  C   C440      1.0  0.7383844586322923  0.9845360740169501  0.7105212594407994  1.0000
  H   H637      1.0  0.7179604982114567  0.989869606197389  0.7877182301382732  1.0000
  H   H638      1.0  0.7382054329195172  0.9680190183037425  0.8143025566463773  1.0000
  H   H639      1.0  0.717949859139734  0.9574586350010493  0.7730200322382248  1.0000
  H   H640      1.0  0.7806652453990963  0.9580599605118271  0.7224884426516804  1.0000
  H   H641      1.0  0.7745143436454301  0.9496467359286335  0.7764503332488577  1.0000
  H   H642      1.0  0.7540907241922542  0.9391377113687671  0.7355522022933147  1.0000
  H   H643      1.0  0.7810882322343435  0.0025823790820238557  0.7414820776261901  1.0000
  H   H644      1.0  0.7752421227159666  0.9944682099998714  0.7958315197729809  1.0000
  H   H645      1.0  0.7550031954051832  0.01631295032767044  0.7691965456946709  1.0000
  H   H646      1.0  0.7528190584585407  0.9882983089062777  0.6857773499111407  1.0000
  H   H647      1.0  0.7265008886742532  0.0015644320811656343  0.7131569327911197  1.0000
  H   H648      1.0  0.7263174254338055  0.9691826797095766  0.698808768339141  1.0000
  N   N39       1.0  0.2669117734547819  0.2911321068874801  0.5506116147972794  1.0000
  C   C441      1.0  0.2594173824151568  0.31655259301257715  0.5374388284617523  1.0000
  C   C442      1.0  0.24602149584098149  0.2793475880779842  0.5739283954080313  1.0000
  C   C443      1.0  0.2890111369044949  0.2924324579737112  0.5783327212237429  1.0000
  C   C444      1.0  0.2731278040737882  0.2761169450876471  0.512730067485322  1.0000
  H   H649      1.0  0.27463009923320525  0.32614165538033263  0.5196999488873539  1.0000
  H   H650      1.0  0.2543109202735031  0.32845400106345035  0.5650937842652027  1.0000
  H   H651      1.0  0.24279102643399064  0.3160909836335364  0.5164160185732006  1.0000
  H   H652      1.0  0.240833196858594  0.29010591704444005  0.6028184073341477  1.0000
  H   H653      1.0  0.22901578085566024  0.2781078052669074  0.5539185798972032  1.0000
  H   H654      1.0  0.2509695785367671  0.26004003813005744  0.5841246233802738  1.0000
  H   H655      1.0  0.2949917000339947  0.27344578746946463  0.5888353722339519  1.0000
  H   H656      1.0  0.28494376698626495  0.3036477716370629  0.607235449592853  1.0000
  H   H657      1.0  0.30520152765192027  0.3011200987556058  0.5617122713868806  1.0000
  H   H658      1.0  0.27878678218513353  0.2567642775646813  0.5214856568065686  1.0000
  H   H659      1.0  0.288774407636423  0.2844350663596242  0.4942227745542539  1.0000
  H   H660      1.0  0.2568104238367253  0.2746667260804907  0.4911445508652912  1.0000
  N   N40       1.0  0.5486969971225372  0.05477997060009776  0.3034816637368309  1.0000
  C   C445      1.0  0.5280101350406802  0.04110465699004551  0.3241924527332766  1.0000
  C   C446      1.0  0.5458348341332289  0.08184775993823168  0.31135811560269755  1.0000
  C   C447      1.0  0.5480961309378832  0.05010135568088092  0.2574262668417128  1.0000
  C   C448      1.0  0.5728388731991031  0.04604551644322852  0.3208255026717292  1.0000
  H   H661      1.0  0.5301463308156675  0.020591422045463048  0.3195554758936448  1.0000
  H   H662      1.0  0.5095229150898877  0.046744791824741894  0.3110711319248951  1.0000
  H   H663      1.0  0.5274317217535146  0.0446200647872903  0.35884335521775523  1.0000
  H   H664      1.0  0.5611571846127634  0.09260660937809861  0.29573997833346677  1.0000
  H   H665      1.0  0.5277852878986257  0.08904859439096624  0.2987409274700349  1.0000
  H   H666      1.0  0.5463062409397481  0.08614811604882444  0.3457472663711808  1.0000
  H   H667      1.0  0.5298396565538759  0.05596685244612609  0.24367409346740768  1.0000
  H   H668      1.0  0.5508453743756323  0.029894357206599942  0.2502449423849885  1.0000
  H   H669      1.0  0.5630225036225776  0.06072543973604527  0.24059702741200292  1.0000
  H   H670      1.0  0.5887771744656399  0.05690976544074622  0.307606630753238  1.0000
  H   H671      1.0  0.5763466678293259  0.025980740921762058  0.3133756521395461  1.0000
  H   H672      1.0  0.5734062667606536  0.048070289169133806  0.3558027295404611  1.0000
  N   N41       1.0  0.20382174626526273  0.6182668816411002  0.6000539974948614  1.0000
  C   C449      1.0  0.20757215141138038  0.6313268299479827  0.6406933607372332  1.0000
  C   C450      1.0  0.2230376060891989  0.5985159523504745  0.5950117422685128  1.0000
  C   C451      1.0  0.20599568994119438  0.6363122074630874  0.5647752565653043  1.0000
  C   C452      1.0  0.17870969114654067  0.6068267954930181  0.5997862447069546  1.0000
  H   H673      1.0  0.19334798342225415  0.6463103084294319  0.6456877910972185  1.0000
  H   H674      1.0  0.22629020966648733  0.6402505333075835  0.6420428983332482  1.0000
  H   H675      1.0  0.20611642303109787  0.6182193644812896  0.6679522922745135  1.0000
  H   H676      1.0  0.2207415699838994  0.5882589861998123  0.5646979924254021  1.0000
  H   H677      1.0  0.2422535599327051  0.6063923169742641  0.59538404262126  1.0000
  H   H678      1.0  0.22184084310000762  0.5845177765036835  0.6210508340931626  1.0000
  H   H679      1.0  0.2248059490607203  0.6450905591247862  0.5636477457215863  1.0000
  H   H680      1.0  0.1920991166604036  0.6517243877590896  0.5678779842335937  1.0000
  H   H681      1.0  0.20269488222691756  0.6273009058302728  0.5336099495671373  1.0000
  H   H682      1.0  0.16373610640309105  0.6211174578675426  0.6039904082763558  1.0000
  H   H683      1.0  0.1765718695121089  0.5929000916779932  0.6257812094062535  1.0000
  H   H684      1.0  0.17511453893481227  0.5969916472935324  0.569464518002191  1.0000
  N   N42       1.0  0.3061814477587579  0.8268087358441699  0.6330049999382263  1.0000
  C   C453      1.0  0.33125779971505276  0.8301689427157722  0.6515909582675792  1.0000
  C   C454      1.0  0.3083078801471924  0.8262694397732061  0.586347216151024  1.0000
  C   C455      1.0  0.2897454784447388  0.8477620589765799  0.6458950328302983  1.0000
  C   C456      1.0  0.29533044008904125  0.8030993715384361  0.6482135586591273  1.0000
  H   H685      1.0  0.33030715494721596  0.8308890624378097  0.686800282943444  1.0000
  H   H686      1.0  0.33988366368286294  0.8480222008735137  0.6410684753197599  1.0000
  H   H687      1.0  0.3442854631846332  0.814781373372904  0.6425766812696614  1.0000
  H   H688      1.0  0.2897307467274533  0.8235562943554288  0.571322791659993  1.0000
  H   H689      1.0  0.3159854050307698  0.8441003493885009  0.573744976157716  1.0000
  H   H690      1.0  0.32085226331653505  0.8109381911349809  0.5753289730471599  1.0000
  H   H691      1.0  0.2705483713836679  0.8457698573677452  0.6329673698359494  1.0000
  H   H692      1.0  0.2972701092916297  0.8658423676000199  0.6343942083059023  1.0000
  H   H693      1.0  0.2882072611980021  0.849255954423843  0.680968127425545  1.0000
  H   H694      1.0  0.27638101479428684  0.8000437381657277  0.6347247086926532  1.0000
  H   H695      1.0  0.29339254566636086  0.8029928216506388  0.6833219075143723  1.0000
  H   H696      1.0  0.30726831368052776  0.7868623311429678  0.6390792697847667  1.0000
  N   N43       1.0  0.34247252583449334  0.09794919003937859  0.7505984171613448  1.0000
  C   C457      1.0  0.36083296960710537  0.11208050731521467  0.7250574632125284  1.0000
  C   C458      1.0  0.32614497325773534  0.0834927997371999  0.7222101685772949  1.0000
  C   C459      1.0  0.32710262494264325  0.11554069357026986  0.7759232265395413  1.0000
  C   C460      1.0  0.35590403611635524  0.08071495884241674  0.7791391207235623  1.0000
  H   H697      1.0  0.3512694896570259  0.12536382958666914  0.703598980569961  1.0000
  H   H698      1.0  0.3724913129014248  0.09955584549993252  0.704764550112016  1.0000
  H   H699      1.0  0.3734484960742005  0.12338773704275115  0.7452560804487356  1.0000
  H   H700      1.0  0.311733928989172  0.07286064722249476  0.740147988815005  1.0000
  H   H701      1.0  0.31616821475989443  0.09589168209588102  0.6995247938597746  1.0000
  H   H702      1.0  0.3371529398763378  0.06989508484935364  0.7028837197679898  1.0000
  H   H703      1.0  0.3130691975529414  0.10563844437126055  0.7958169208468502  1.0000
  H   H704      1.0  0.31674100557970153  0.12886095217236848  0.7553226085769806  1.0000
  H   H705      1.0  0.3389084110343479  0.1271123146544119  0.7971016839396445  1.0000
  H   H706      1.0  0.34261389506649287  0.06966486271925841  0.7988010314945686  1.0000
  H   H707      1.0  0.3683738894239722  0.09110298880150455  0.8009450683658867  1.0000
  H   H708      1.0  0.3677680304974515  0.0673123254145596  0.7608871516201928  1.0000
  N   N44       1.0  0.718768955578574  0.24852402588959485  0.09496850452985792  1.0000
  C   C461      1.0  0.7186846870069518  0.23627354060269745  0.05309456824655215  1.0000
  C   C462      1.0  0.7138728132798858  0.229689420370589  0.1281922310037216  1.0000
  C   C463      1.0  0.6990945812913543  0.26802415452204387  0.0965303682905632  1.0000
  C   C464      1.0  0.743430696404884  0.2601217307828609  0.10195187732889939  1.0000
  H   H709      1.0  0.7231306118885698  0.24974358776027647  0.027408657204560368  1.0000
  H   H710      1.0  0.7001069685678245  0.22813681230061464  0.04590454568303003  1.0000
  H   H711      1.0  0.7327404864022085  0.22092676286967408  0.05113000440949762  1.0000
  H   H712      1.0  0.7131085521240349  0.23826152830810188  0.16022882322069606  1.0000
  H   H713      1.0  0.6956810414231843  0.22021178284941983  0.1230627296351597  1.0000
  H   H714      1.0  0.7285799433107948  0.21490231642477256  0.12844796645570392  1.0000
  H   H715      1.0  0.6985904933286669  0.27763798748602586  0.1276855652452847  1.0000
  H   H716      1.0  0.6802763831432537  0.26007107383111266  0.09093880912868423  1.0000
  H   H717      1.0  0.7021938122263514  0.2825597165601115  0.07189755303282028  1.0000
  H   H718      1.0  0.7442237536963375  0.2695280719385563  0.13326909024304323  1.0000
  H   H719      1.0  0.7475133921202912  0.2745371932222286  0.0773951783042346  1.0000
  H   H720      1.0  0.7587958717229286  0.24604608796528468  0.10046246404198511  1.0000
  N   N45       1.0  0.3610411062473733  0.28863620372351  0.8694832808335679  1.0000
  C   C465      1.0  0.3606535863337306  0.2870176113374028  0.8228016040740419  1.0000
  C   C466      1.0  0.38463241205397886  0.30039304602232697  0.8829113214462546  1.0000
  C   C467      1.0  0.3593806674223678  0.2632507304887864  0.8875200138946912  1.0000
  C   C468      1.0  0.3396264466618142  0.30377516793450193  0.8848251985686243  1.0000
  H   H721      1.0  0.34325681430340393  0.27796092386205684  0.8114449999221063  1.0000
  H   H722      1.0  0.37676398463750377  0.27570117303049135  0.8106548904329032  1.0000
  H   H723      1.0  0.3618846444778564  0.3058075502216425  0.8079520164493192  1.0000
  H   H724      1.0  0.4012060258264168  0.28948748363485105  0.8717909656895363  1.0000
  H   H725      1.0  0.3864912428176135  0.31963376694358386  0.8700834366189486  1.0000
  H   H726      1.0  0.385709574900878  0.30168635039042097  0.9179924034835922  1.0000
  H   H727      1.0  0.3590986351348119  0.2636948370804281  0.9227233051640562  1.0000
  H   H728      1.0  0.3756638602259376  0.2516235567235708  0.8775831033004917  1.0000
  H   H729      1.0  0.34218931313173434  0.25347978876552507  0.8770811380070037  1.0000
  H   H730      1.0  0.33969398252775446  0.3052879171426254  0.9200576520047564  1.0000
  H   H731      1.0  0.3214745620732726  0.2953671735875792  0.8756041237948446  1.0000
  H   H732      1.0  0.34023234909089084  0.32309424446425117  0.8719037345247058  1.0000
  N   N46       1.0  0.27380062607836003  0.7529898645897767  0.9914190740329499  1.0000
  C   C469      1.0  0.2573501993954989  0.7425015179465033  0.9585875618663098  1.0000
  C   C470      1.0  0.2981745131335488  0.7597380930359487  0.9723118800174183  1.0000
  C   C471      1.0  0.27765682829552163  0.7341833039614216  0.024993099288429972  1.0000
  C   C472      1.0  0.26197332019857267  0.775488296812797  0.009981451915983318  1.0000
  H   H733      1.0  0.23869724747639767  0.737424292607663  0.9719629510642939  1.0000
  H   H734      1.0  0.26547211358121403  0.725081188750978  0.9448568053362023  1.0000
  H   H735      1.0  0.2542856034864753  0.7559496373226191  0.9322800267694643  1.0000
  H   H736      1.0  0.31117788166087484  0.7673671774318824  0.9963937547426237  1.0000
  H   H737      1.0  0.3075921063911864  0.7432684399885835  0.957660989443888  1.0000
  H   H738      1.0  0.2961326784322112  0.7741345512906184  0.947173381891074  1.0000
  H   H739      1.0  0.2897775694751087  0.7414089787679443  0.0506748085788958  1.0000
  H   H740      1.0  0.2866542529391396  0.7169421864786333  0.012279541714875329  1.0000
  H   H741      1.0  0.2595547902793743  0.728512861972618  0.039599489869608276  1.0000
  H   H742      1.0  0.2586823523026686  0.79009120326006  0.9855477744553343  1.0000
  H   H743      1.0  0.2740175266203746  0.7837956443085069  0.0348593460845356  1.0000
  H   H744      1.0  0.24360633710862314  0.771001293558205  0.024963705147043845  1.0000
  N   N47       1.0  0.3323625810046768  0.07960731943895194  0.4780317146269118  1.0000
  C   C473      1.0  0.33445253564547245  0.05588432998564441  0.5017450600020175  1.0000
  C   C474      1.0  0.3531487798467367  0.08136285420886935  0.44703078765564486  1.0000
  C   C475      1.0  0.33358300485934356  0.10079077527186953  0.5078428899667486  1.0000
  C   C476      1.0  0.3082164789379168  0.08043734204945507  0.45557782138097674  1.0000
  H   H745      1.0  0.3186960946681422  0.05363420500395577  0.5246810582764035  1.0000
  H   H746      1.0  0.35210539324536216  0.055019206506422114  0.5202370237782247  1.0000
  H   H747      1.0  0.33428481220930467  0.039440136663412284  0.4802772215197276  1.0000
  H   H748      1.0  0.3525616657848343  0.06599863590249466  0.42340613561156676  1.0000
  H   H749      1.0  0.35257704684631985  0.0993516804242689  0.4292985675539696  1.0000
  H   H750      1.0  0.3716873673898413  0.08028717817815312  0.46278176309294006  1.0000
  H   H751      1.0  0.33214894746087176  0.11907282779126582  0.4911977495681039  1.0000
  H   H752      1.0  0.35151209721056287  0.10071705510393181  0.5255076086929007  1.0000
  H   H753      1.0  0.3182563714781721  0.10000967210539646  0.5318786707724082  1.0000
  H   H754      1.0  0.3061018834936848  0.09810949879980191  0.43731053860257435  1.0000
  H   H755      1.0  0.2921524548641571  0.07930825744832082  0.47817050736332745  1.0000
  H   H756      1.0  0.3065479342148537  0.06463012198625706  0.4329685968691645  1.0000
  N   N48       1.0  0.23257928042586956  0.4591658925376375  0.24745574916291208  1.0000
  C   C477      1.0  0.21674338337949275  0.4731387743265661  0.21732750431093578  1.0000
  C   C478      1.0  0.23320202079224175  0.47251414682763665  0.2883052284977108  1.0000
  C   C479      1.0  0.2582449679308817  0.4570857437232557  0.23012017241560848  1.0000
  C   C480      1.0  0.22224451288342334  0.433891438460872  0.2539080824161568  1.0000
  H   H757      1.0  0.21584755983893833  0.46347059534486923  0.18617695916187615  1.0000
  H   H758      1.0  0.22440606954434825  0.4920893990153791  0.2108660022787509  1.0000
  H   H759      1.0  0.19726455894132464  0.4753796910918854  0.22937612307227745  1.0000
  H   H760      1.0  0.24515049791158552  0.4624691602463936  0.31157933413482636  1.0000
  H   H761      1.0  0.24090423564443758  0.49166528928137526  0.28438063114810297  1.0000
  H   H762      1.0  0.21413549367049392  0.4743349469346149  0.30240921889899897  1.0000
  H   H763      1.0  0.2706921614029531  0.44604186279218244  0.2512447093914489  1.0000
  H   H764      1.0  0.2667920147934778  0.47576397865514425  0.2247991865072852  1.0000
  H   H765      1.0  0.2581957761948251  0.4475831026643295  0.19899291559119545  1.0000
  H   H766      1.0  0.23379137501659347  0.4228029643349918  0.2764259699704637  1.0000
  H   H767      1.0  0.22189347084186425  0.42320238079871264  0.22371388237615258  1.0000
  H   H768      1.0  0.2028022645450404  0.43455485700899205  0.26665759397818034  1.0000
