data_image0
_chemical_formula_structural       FeSFeSFeSFeS3HFeS2FeSHFeSFeS3CH3CHCH3C6H4C2HCH3CH2NCH2CHNC4H12NHCHCHCHC2H3C2H2CSH3C2H2C2H2CH5SHCH3C2NHCH3CNH6CHCH4C2H3C3FeSCFeSFeHFeS4C2H2CHCH2C4HCH2CH6CH2SHCHC2NH2CHNCH8CH2C2H2NHCH3FeH2S2FeSHFeS2FeSFeS3H5S3C6H4CHSC2HC3NHCH5CSCH3CH2FeHC4HCHNH2CH4CNH2NSCHCH3CHCHCH2C2H6SH3C2H2C2H2FeS2H2CH2NCFeC3H3CHCH2CH2C3HC2H3SHCH2CNH4CSCH4CNHC2H4C2H2CHCH6CFeS2FeS2FeSFeS2C8H4C6H4CH2C2HCH2NH6SH3C2HCHCHSNH5CH6FeS2FeS2Fe2S3FeSHFeS2FeSHS2HCH2C6H4C3HCHCHC2HCHCH3C6H4NC4H12CH2CHCHCHNCHC2HC2H2FeCH2CHCHNH2SH9CHCSH3CH2C2FeHSFeSCFe2SHSFeSHFeS2FeSFeCS2FeS2FeS2FeSFeSFeS3C6H4C6H6CFeC7H3C8H5CNHCH3NC2H2CH4SH3SNCHS3HFeHNH3CH2CHSH3CNHCS2H3CHCH2SH8CH3C2H4CH6C2H2C2HSC2H4C2H6FeC2H4SFeS2FeS2FeSFeS3HSH2C6H4C6H4CHSC2H4C6H6CH2C2H6CNH2CHCNC4H9CH2CH3CH3N2CHCHNH6C2H2FeSFeS2FeSFeS3HCFeS2Fe2SCSFeSFeS3C6H2SHC7H4C2SH2C6H4C6H2CH3SNC5HNH9CH2S2HFeH4SHCHFeH5CHC2HCS2H3C2H3NH7CH2FeH2CH6CH2CFeS2CSHFeSFeSHSCH3CHFeS2FeSH3FeS3CN2HCSHFeCHC6H4C6H4CHCH4FeH5SH4SH2C3HCSHCHCH3CH5CHCNH3CH3FeS2FeSNFeS3H6FeS2HSFeSFeCS2CHCHC3H2NC2HCNH2C7H4C6H5CHSH2C2H2CH2C2HCHFeH7NCFeCHCH6CSH2CHCHCHFeS2FeS2Fe2S3FeS2FeSFeHFeS5FeSFeSC6H4C7H4NHC6H3C6H4FeC3H9NCHCHCH3CHFeCH2CHSH4C2H4CHNC4H11SCH2CH2SH2NCSH4C2H4S2NH5C2H7CSCFeS2FeS2FeSFeS3HC2H3CH6C3H5C6H4C7H5CH5C2HNHCHC2H2CH4C2H5N2HCH3SCH4FeSNFeSFeSFeSFeC2FeS2FeSHS3FeS3FeS3FeSFeSC6H12C6H4C6H4C6H4FeSCNC4H13NC4H3FeCH7SN2C4H8SH2CH3C3HC2H2FeSNHCHSHCHSH7CSH2SH4C3H3CH5CHCH3FeS2CSFeSFeSCFeS2FeSCFe2S4H2CHCH2CNH5NC7H4C6H5CH5CH6CHNCH2SH3CHCHCH4CHFeC2SCH3CHNH9C2HNHCH3C2H5CH2SFeSFe2SFeSHSCHCHNSHCSHCHC5HC2H4CHCH4C2HCHCH2CHCHSNCHCSH2CH3C4HC2HCH2CHNH2CH2SHC2HCH4C2H4NCHC3HCHFeSHFeSFeSFeS3FeSNFeS2FeCFeS3HSHFeS2CSCHCSH3C6H4C6H4C3H2C2HCHC6SFeH3NC4H13CNCH6CNHSCHCHCNHSH3C2HSH4CHCH8CH5CH2CHCH3CH2CHCH2S2FeS2FeCFeS2CH2SH2SHCH2CHC4NH3CH3CH3FeCHCH4CSH6C2H2C3HCH2NH4C2H3C2HCHFeS2FeS2FeH2S2FeS2FeS2FeSHS2CH2SC2H2C7H5CH3C2FeH2CNSC3HCH6SHC2NHC3HCHCHCHCH2C2HCHC3H5FeH5C2H4C2H3
_chemical_formula_sum              "Fe144 S288 H1152 C720 N72"
_cell_length_a       50.8348
_cell_length_b       50.3949
_cell_length_c       74.6837
_cell_angle_alpha    85.522
_cell_angle_beta     94.8557
_cell_angle_gamma    113.632

_space_group_name_H-M_alt    "P 1"
_space_group_IT_number       1

loop_
  _space_group_symop_operation_xyz
  'x, y, z'

loop_
  _atom_site_type_symbol
  _atom_site_label
  _atom_site_symmetry_multiplicity
  _atom_site_fract_x
  _atom_site_fract_y
  _atom_site_fract_z
  _atom_site_occupancy
  Fe  Fe1       1.0  0.08188  0.02302  0.19496  1.0000
  S   S1        1.0  0.06911  0.05917  0.18402  1.0000
  Fe  Fe2       1.0  0.13474  0.06445  0.21682  1.0000
  S   S2        1.0  0.12451  0.10301  0.20806  1.0000
  Fe  Fe3       1.0  0.07842  0.07343  0.21232  1.0000
  S   S3        1.0  0.04591  0.08294  0.22661  1.0000
  Fe  Fe4       1.0  0.11615  0.08503  0.18050  1.0000
  S   S4        1.0  0.13434  0.11677  0.15694  1.0000
  S   S5        1.0  0.08909  0.03594  0.22360  1.0000
  S   S6        1.0  0.12847  0.04775  0.18896  1.0000
  H   H1        1.0  0.01321  0.03358  0.20399  1.0000
  Fe  Fe5       1.0  0.23307  0.14048  0.04198  1.0000
  S   S7        1.0  0.20690  0.14985  0.06131  1.0000
  S   S8        1.0  0.28189  0.16342  0.04221  1.0000
  Fe  Fe6       1.0  0.17941  0.09406  0.02314  1.0000
  S   S9        1.0  0.14974  0.09989  0.04170  1.0000
  H   H2        1.0  0.23639  0.08691  0.08121  1.0000
  Fe  Fe7       1.0  0.17604  0.14764  0.03737  1.0000
  S   S10       1.0  0.15420  0.17918  0.03275  1.0000
  Fe  Fe8       1.0  0.18337  0.10151  0.06370  1.0000
  S   S11       1.0  0.17648  0.07606  0.09042  1.0000
  S   S12       1.0  0.20404  0.14212  0.01770  1.0000
  S   S13       1.0  0.21123  0.09195  0.04540  1.0000
  C   C1        1.0  0.20339  0.09968  0.24109  1.0000
  H   H3        1.0  0.29084  0.23371  0.05051  1.0000
  H   H4        1.0  0.26300  0.06150  0.09885  1.0000
  H   H5        1.0  0.24104  0.12255  0.08651  1.0000
  C   C2        1.0  0.99667  0.09295  0.22092  1.0000
  H   H6        1.0  0.29176  0.22649  0.01850  1.0000
  C   C3        1.0  0.14947  0.01114  0.01097  1.0000
  H   H7        1.0  0.29826  0.27515  0.02833  1.0000
  H   H8        1.0  0.15964  0.02005  0.02370  1.0000
  H   H9        1.0  0.29569  0.12893  0.12432  1.0000
  C   C4        1.0  0.14555  0.10502  0.13841  1.0000
  C   C5        1.0  0.15368  0.12353  0.12297  1.0000
  C   C6        1.0  0.16287  0.11481  0.10805  1.0000
  C   C7        1.0  0.16431  0.08762  0.10859  1.0000
  C   C8        1.0  0.15670  0.06936  0.12414  1.0000
  C   C9        1.0  0.14717  0.07792  0.13895  1.0000
  H   H10       1.0  0.15244  0.14452  0.12245  1.0000
  H   H11       1.0  0.16867  0.12906  0.09613  1.0000
  H   H12       1.0  0.15770  0.04826  0.12464  1.0000
  H   H13       1.0  0.14087  0.06341  0.15070  1.0000
  C   C10       1.0  0.02092  0.09304  0.21317  1.0000
  C   C11       1.0  0.02439  0.10038  0.19483  1.0000
  H   H14       1.0  0.24944  0.08775  0.13088  1.0000
  C   C12       1.0  0.29382  0.18553  0.07626  1.0000
  H   H15       1.0  0.21619  0.20429  0.03003  1.0000
  H   H16       1.0  0.27614  0.14737  0.11133  1.0000
  H   H17       1.0  0.04321  0.10098  0.18879  1.0000
  C   C13       1.0  0.31269  0.20061  0.09041  1.0000
  H   H18       1.0  0.99405  0.08763  0.23515  1.0000
  H   H19       1.0  0.00677  0.11363  0.17017  1.0000
  N   N1        1.0  0.25952  0.23648  0.02997  1.0000
  C   C14       1.0  0.26826  0.22141  0.01690  1.0000
  H   H20       1.0  0.26936  0.11730  0.07640  1.0000
  H   H21       1.0  0.22469  0.06999  0.11266  1.0000
  C   C15       1.0  0.23166  0.10137  0.24440  1.0000
  H   H22       1.0  0.29626  0.09133  0.09406  1.0000
  N   N2        1.0  0.21039  0.14658  0.18867  1.0000
  C   C16       1.0  0.19062  0.15783  0.19556  1.0000
  C   C17       1.0  0.21683  0.15816  0.17002  1.0000
  C   C18       1.0  0.19666  0.11458  0.18887  1.0000
  C   C19       1.0  0.23730  0.15566  0.20025  1.0000
  H   H23       1.0  0.20020  0.18191  0.19560  1.0000
  H   H24       1.0  0.18522  0.14943  0.20961  1.0000
  H   H25       1.0  0.17002  0.15127  0.18716  1.0000
  H   H26       1.0  0.19678  0.15169  0.16105  1.0000
  H   H27       1.0  0.22720  0.18226  0.16933  1.0000
  H   H28       1.0  0.23141  0.14984  0.16432  1.0000
  H   H29       1.0  0.17674  0.10691  0.17990  1.0000
  H   H30       1.0  0.19041  0.10518  0.20257  1.0000
  H   H31       1.0  0.21122  0.10511  0.18442  1.0000
  H   H32       1.0  0.25277  0.14755  0.19551  1.0000
  H   H33       1.0  0.23304  0.14703  0.21437  1.0000
  H   H34       1.0  0.24814  0.17969  0.20062  1.0000
  N   N3        1.0  0.26460  0.10334  0.10442  1.0000
  H   H35       1.0  0.17556  0.12213  0.24272  1.0000
  C   C20       1.0  0.19728  0.12324  0.24501  1.0000
  H   H36       1.0  0.25626  0.20438  0.05122  1.0000
  C   C21       1.0  0.25243  0.10778  0.08633  1.0000
  H   H37       1.0  0.26311  0.22739  0.00278  1.0000
  C   C22       1.0  0.27864  0.08288  0.10357  1.0000
  H   H38       1.0  0.26833  0.28017  0.03642  1.0000
  C   C23       1.0  0.24120  0.09123  0.11701  1.0000
  C   C24       1.0  0.26728  0.22815  0.04843  1.0000
  H   H39       1.0  0.25711  0.19744  0.01882  1.0000
  H   H40       1.0  0.27085  0.17804  0.07722  1.0000
  H   H41       1.0  0.22131  0.23422  0.01410  1.0000
  C   C25       1.0  0.00376  0.10764  0.18431  1.0000
  C   C26       1.0  0.99978  0.00993  0.20347  1.0000
  H   H42       1.0  0.22965  0.10581  0.11762  1.0000
  H   H43       1.0  0.28813  0.07898  0.11699  1.0000
  C   C27       1.0  0.22807  0.22811  0.02782  1.0000
  S   S14       1.0  0.17639  0.06750  0.23252  1.0000
  H   H44       1.0  0.11561  0.20583  0.01930  1.0000
  H   H45       1.0  0.23661  0.08330  0.24134  1.0000
  H   H46       1.0  0.30397  0.14108  0.10145  1.0000
  C   C28       1.0  0.27447  0.26817  0.02677  1.0000
  C   C29       1.0  0.14943  0.19458  0.01126  1.0000
  H   H47       1.0  0.26111  0.23907  0.05873  1.0000
  H   H48       1.0  0.22046  0.23861  0.03765  1.0000
  C   C30       1.0  0.28602  0.13138  0.11068  1.0000
  C   C31       1.0  0.12851  0.20630  0.00837  1.0000
  H   H49       1.0  0.12839  0.10017  0.00258  1.0000
  H   H50       1.0  0.00115  0.00324  0.18984  1.0000
  C   C32       1.0  0.30478  0.18072  0.06085  1.0000
  H   H51       1.0  0.01004  0.99879  0.21335  1.0000
  H   H52       1.0  0.26908  0.27521  0.01294  1.0000
  H   H53       1.0  0.30404  0.20468  0.10216  1.0000
  H   H54       1.0  0.12923  0.13604  0.00198  1.0000
  H   H55       1.0  0.09545  0.10536  0.00163  1.0000
  S   S15       1.0  0.27347  0.18006  0.26683  1.0000
  H   H56       1.0  0.30467  0.08680  0.32175  1.0000
  C   C33       1.0  0.29479  0.09360  0.30932  1.0000
  H   H57       1.0  0.29759  0.42090  0.42988  1.0000
  H   H58       1.0  0.23884  0.06701  0.31611  1.0000
  H   H59       1.0  0.25991  0.07898  0.33676  1.0000
  C   C34       1.0  0.27791  0.47721  0.43346  1.0000
  C   C35       1.0  0.25168  0.08649  0.32392  1.0000
  N   N4        1.0  0.29849  0.46340  0.43250  1.0000
  H   H60       1.0  0.23671  0.09629  0.32731  1.0000
  C   C36       1.0  0.21908  0.14784  0.25264  1.0000
  H   H61       1.0  0.26453  0.46860  0.44534  1.0000
  H   H62       1.0  0.30297  0.47274  0.40399  1.0000
  H   H63       1.0  0.28321  0.07420  0.30124  1.0000
  C   C37       1.0  0.26364  0.11685  0.29670  1.0000
  N   N5        1.0  0.27549  0.10746  0.31358  1.0000
  H   H64       1.0  0.31295  0.10883  0.30146  1.0000
  H   H65       1.0  0.30175  0.12691  0.33705  1.0000
  H   H66       1.0  0.25105  0.09826  0.28813  1.0000
  H   H67       1.0  0.99960  0.46220  0.42650  1.0000
  H   H68       1.0  0.30989  0.14920  0.31684  1.0000
  H   H69       1.0  0.24925  0.12780  0.29928  1.0000
  C   C38       1.0  0.29190  0.13297  0.32436  1.0000
  H   H70       1.0  0.21393  0.16560  0.25610  1.0000
  C   C39       1.0  0.00115  0.48372  0.42209  1.0000
  H   H71       1.0  0.26902  0.42165  0.44221  1.0000
  H   H72       1.0  0.26817  0.42728  0.41812  1.0000
  H   H73       1.0  0.30474  0.45971  0.46135  1.0000
  H   H74       1.0  0.26320  0.47388  0.42118  1.0000
  C   C40       1.0  0.28258  0.43189  0.43059  1.0000
  C   C41       1.0  0.24727  0.14938  0.25617  1.0000
  H   H75       1.0  0.28108  0.13268  0.28861  1.0000
  H   H76       1.0  0.27813  0.14406  0.32785  1.0000
  H   H77       1.0  0.27522  0.12718  0.25406  1.0000
  C   C42       1.0  0.25358  0.12622  0.25166  1.0000
  C   C43       1.0  0.31730  0.46844  0.44917  1.0000
  C   C44       1.0  0.31629  0.47611  0.41687  1.0000
  Fe  Fe9       1.0  0.14430  0.44023  0.70707  1.0000
  S   S16       1.0  0.14946  0.41195  0.68694  1.0000
  C   C45       1.0  0.26281  0.46900  0.66665  1.0000
  Fe  Fe10      1.0  0.19341  0.43615  0.73229  1.0000
  S   S17       1.0  0.20246  0.40835  0.71375  1.0000
  Fe  Fe11      1.0  0.19717  0.43860  0.69146  1.0000
  H   H78       1.0  0.09134  0.21239  0.73347  1.0000
  Fe  Fe12      1.0  0.15420  0.38409  0.71138  1.0000
  S   S18       1.0  0.13880  0.33478  0.71513  1.0000
  S   S19       1.0  0.19144  0.46822  0.71034  1.0000
  S   S20       1.0  0.14569  0.41062  0.73115  1.0000
  S   S21       1.0  0.11444  0.46414  0.70518  1.0000
  C   C46       1.0  0.08555  0.31561  0.72995  1.0000
  C   C47       1.0  0.06257  0.29471  0.73924  1.0000
  H   H79       1.0  0.05592  0.18791  0.68842  1.0000
  H   H80       1.0  0.08971  0.20094  0.70138  1.0000
  C   C48       1.0  0.27305  0.44746  0.67195  1.0000
  H   H81       1.0  0.01115  0.18167  0.70248  1.0000
  C   C49       1.0  0.05839  0.22982  0.70963  1.0000
  H   H82       1.0  0.26078  0.43824  0.73356  1.0000
  H   H83       1.0  0.25887  0.42718  0.67817  1.0000
  C   C50       1.0  0.11146  0.31219  0.72945  1.0000
  C   C51       1.0  0.06538  0.27048  0.74849  1.0000
  C   C52       1.0  0.11447  0.28825  0.73899  1.0000
  C   C53       1.0  0.06788  0.19860  0.73321  1.0000
  H   H84       1.0  0.10719  0.44665  0.74306  1.0000
  C   C54       1.0  0.02258  0.18176  0.71586  1.0000
  H   H85       1.0  0.04793  0.23874  0.71866  1.0000
  H   H86       1.0  0.31504  0.46549  0.57673  1.0000
  C   C55       1.0  0.08689  0.46500  0.65237  1.0000
  H   H87       1.0  0.30425  0.44149  0.60724  1.0000
  H   H88       1.0  0.05844  0.20657  0.74339  1.0000
  H   H89       1.0  0.06527  0.17612  0.73774  1.0000
  H   H90       1.0  0.10813  0.44200  0.66944  1.0000
  H   H91       1.0  0.01266  0.19035  0.72551  1.0000
  H   H92       1.0  0.06329  0.16507  0.70613  1.0000
  C   C56       1.0  0.16021  0.48780  0.74759  1.0000
  H   H93       1.0  0.29545  0.44028  0.72848  1.0000
  H   H94       1.0  0.08275  0.33367  0.72249  1.0000
  S   S22       1.0  0.22679  0.46403  0.66922  1.0000
  H   H95       1.0  0.04225  0.29699  0.73888  1.0000
  C   C57       1.0  0.30134  0.45168  0.66848  1.0000
  H   H96       1.0  0.01832  0.15887  0.72037  1.0000
  C   C58       1.0  0.10065  0.47319  0.68408  1.0000
  C   C59       1.0  0.09975  0.45871  0.66867  1.0000
  N   N6        1.0  0.30207  0.48235  0.59847  1.0000
  H   H97       1.0  0.08553  0.45307  0.64066  1.0000
  H   H98       1.0  0.29585  0.45949  0.62438  1.0000
  C   C60       1.0  0.30874  0.46309  0.61240  1.0000
  H   H99       1.0  0.26548  0.48332  0.58223  1.0000
  N   N7        1.0  0.05377  0.19952  0.71519  1.0000
  C   C61       1.0  0.06620  0.18782  0.70218  1.0000
  H   H100      1.0  0.15333  0.48596  0.73309  1.0000
  H   H101      1.0  0.04921  0.23156  0.69575  1.0000
  H   H102      1.0  0.04774  0.06210  0.74487  1.0000
  H   H103      1.0  0.25805  0.48347  0.70451  1.0000
  H   H104      1.0  0.26536  0.44772  0.58695  1.0000
  H   H105      1.0  0.08169  0.24439  0.71004  1.0000
  H   H106      1.0  0.12899  0.01846  0.74715  1.0000
  H   H107      1.0  0.30890  0.43465  0.67224  1.0000
  C   C62       1.0  0.07540  0.48627  0.65121  1.0000
  H   H108      1.0  0.26977  0.44096  0.71059  1.0000
  H   H109      1.0  0.25744  0.46587  0.60421  1.0000
  C   C63       1.0  0.27856  0.44863  0.72426  1.0000
  C   C64       1.0  0.09182  0.26787  0.74879  1.0000
  H   H110      1.0  0.24883  0.48160  0.72740  1.0000
  H   H111      1.0  0.13444  0.28543  0.73873  1.0000
  N   N8        1.0  0.29001  0.48060  0.72449  1.0000
  H   H112      1.0  0.30665  0.48762  0.69822  1.0000
  C   C65       1.0  0.27120  0.46922  0.59269  1.0000
  H   H113      1.0  0.17711  0.01671  0.75085  1.0000
  H   H114      1.0  0.04313  0.37144  0.98834  1.0000
  H   H115      1.0  0.10646  0.00868  0.76584  1.0000
  Fe  Fe13      1.0  0.04106  0.14527  0.77359  1.0000
  H   H116      1.0  0.14472  0.04389  0.78445  1.0000
  H   H117      1.0  0.11271  0.30194  0.86344  1.0000
  S   S23       1.0  0.01820  0.24782  0.98454  1.0000
  S   S24       1.0  0.06994  0.19027  0.78179  1.0000
  Fe  Fe14      1.0  0.04612  0.25506  0.96072  1.0000
  S   S25       1.0  0.05376  0.22221  0.94544  1.0000
  H   H118      1.0  0.98676  0.18318  0.84087  1.0000
  Fe  Fe15      1.0  0.09070  0.30735  0.94009  1.0000
  S   S26       1.0  0.10216  0.27865  0.92355  1.0000
  S   S27       1.0  0.10327  0.35632  0.93705  1.0000
  Fe  Fe16      1.0  0.05480  0.25167  0.92095  1.0000
  S   S28       1.0  0.03125  0.24094  0.89372  1.0000
  Fe  Fe17      1.0  0.10070  0.25147  0.94935  1.0000
  S   S29       1.0  0.13492  0.23325  0.95546  1.0000
  S   S30       1.0  0.04312  0.28195  0.93589  1.0000
  S   S31       1.0  0.09332  0.28259  0.96620  1.0000
  H   H119      1.0  0.15845  0.14999  0.97516  1.0000
  H   H120      1.0  0.15851  0.11444  0.97603  1.0000
  H   H121      1.0  0.98776  0.13320  0.88025  1.0000
  H   H122      1.0  0.07389  0.21539  0.89632  1.0000
  H   H123      1.0  0.21459  0.48075  0.81629  1.0000
  S   S32       1.0  0.00398  0.15677  0.76329  1.0000
  S   S33       1.0  0.19039  0.44413  0.88152  1.0000
  S   S34       1.0  0.05096  0.11682  0.75575  1.0000
  C   C66       1.0  0.12806  0.38070  0.92185  1.0000
  C   C67       1.0  0.12857  0.40874  0.91825  1.0000
  C   C68       1.0  0.14751  0.42851  0.90600  1.0000
  C   C69       1.0  0.16631  0.42048  0.89729  1.0000
  C   C70       1.0  0.16613  0.39262  0.90113  1.0000
  C   C71       1.0  0.14705  0.37278  0.91325  1.0000
  H   H124      1.0  0.11405  0.41517  0.92484  1.0000
  H   H125      1.0  0.14740  0.44987  0.90321  1.0000
  H   H126      1.0  0.18073  0.38624  0.89457  1.0000
  H   H127      1.0  0.14719  0.35144  0.91604  1.0000
  C   C72       1.0  0.14052  0.21919  0.97718  1.0000
  H   H128      1.0  0.99859  0.01774  0.75731  1.0000
  S   S35       1.0  0.08083  0.01744  0.79805  1.0000
  C   C73       1.0  0.12389  0.21837  0.99136  1.0000
  C   C74       1.0  0.13413  0.01770  0.98002  1.0000
  H   H129      1.0  0.13253  0.03181  0.96869  1.0000
  C   C75       1.0  0.04536  0.22736  0.87763  1.0000
  C   C76       1.0  0.03520  0.22773  0.85962  1.0000
  C   C77       1.0  0.04506  0.21605  0.84650  1.0000
  N   N9        1.0  0.08707  0.32297  0.87244  1.0000
  H   H130      1.0  0.99445  0.29403  0.98284  1.0000
  C   C78       1.0  0.06583  0.21566  0.88245  1.0000
  H   H131      1.0  0.01944  0.23684  0.85578  1.0000
  H   H132      1.0  0.03742  0.21686  0.83265  1.0000
  H   H133      1.0  0.09413  0.36657  0.86283  1.0000
  H   H134      1.0  0.12313  0.99273  0.79526  1.0000
  H   H135      1.0  0.18931  0.00524  0.77221  1.0000
  C   C79       1.0  0.99460  0.13337  0.84475  1.0000
  S   S36       1.0  0.01279  0.18948  0.80063  1.0000
  C   C80       1.0  0.03619  0.34991  0.95567  1.0000
  H   H136      1.0  0.12559  0.43619  0.76205  1.0000
  H   H137      1.0  0.10749  0.22705  0.98922  1.0000
  H   H138      1.0  0.18242  0.18671  0.99919  1.0000
  C   C81       1.0  0.05125  0.32438  0.98035  1.0000
  H   H139      1.0  0.22119  0.48263  0.90868  1.0000
  H   H140      1.0  0.09245  0.33454  0.90000  1.0000
  Fe  Fe18      1.0  0.03177  0.20108  0.77344  1.0000
  H   H141      1.0  0.00034  0.11688  0.85295  1.0000
  C   C82       1.0  0.07200  0.04464  0.78619  1.0000
  C   C83       1.0  0.07634  0.06995  0.79477  1.0000
  C   C84       1.0  0.06970  0.09208  0.78556  1.0000
  C   C85       1.0  0.05949  0.08938  0.76753  1.0000
  H   H142      1.0  0.09470  0.24987  0.75622  1.0000
  C   C86       1.0  0.06134  0.04171  0.76822  1.0000
  H   H143      1.0  0.08472  0.07241  0.80863  1.0000
  N   N10       1.0  0.14838  0.00850  0.77209  1.0000
  H   H144      1.0  0.09628  0.44634  0.76535  1.0000
  H   H145      1.0  0.01931  0.35730  0.94973  1.0000
  C   C87       1.0  0.14731  0.02968  0.99650  1.0000
  H   H146      1.0  0.11252  0.07129  0.97564  1.0000
  H   H147      1.0  0.12869  0.48287  0.78675  1.0000
  H   H148      1.0  0.05806  0.02235  0.76145  1.0000
  H   H149      1.0  0.27286  0.45469  0.93257  1.0000
  C   C88       1.0  0.12312  0.00403  0.75950  1.0000
  N   N11       1.0  0.02795  0.33328  0.97297  1.0000
  H   H150      1.0  0.98676  0.12485  0.83117  1.0000
  H   H151      1.0  0.05511  0.31044  0.97099  1.0000
  N   N12       1.0  0.13575  0.48199  0.75881  1.0000
  S   S37       1.0  0.16111  0.06791  0.99810  1.0000
  C   C89       1.0  0.16612  0.19547  0.99709  1.0000
  H   H152      1.0  0.03973  0.33665  0.94563  1.0000
  C   C90       1.0  0.16076  0.03883  0.77761  1.0000
  H   H153      1.0  0.00579  0.35864  0.98073  1.0000
  H   H154      1.0  0.05047  0.32290  0.85570  1.0000
  H   H155      1.0  0.11533  0.35113  0.85277  1.0000
  C   C91       1.0  0.06321  0.30944  0.85898  1.0000
  H   H156      1.0  0.10095  0.13566  0.95434  1.0000
  C   C92       1.0  0.07522  0.20338  0.86932  1.0000
  H   H157      1.0  0.10042  0.08553  0.95534  1.0000
  C   C93       1.0  0.06451  0.20313  0.85135  1.0000
  H   H158      1.0  0.04580  0.31153  0.99334  1.0000
  H   H159      1.0  0.07124  0.30631  0.84622  1.0000
  C   C94       1.0  0.10139  0.13370  0.96930  1.0000
  C   C95       1.0  0.07517  0.32539  0.88934  1.0000
  H   H160      1.0  0.12422  0.36297  0.87535  1.0000
  H   H161      1.0  0.04813  0.28776  0.86407  1.0000
  H   H162      1.0  0.00466  0.16947  0.87106  1.0000
  H   H163      1.0  0.12225  0.31452  0.88591  1.0000
  H   H164      1.0  0.09032  0.28276  0.88145  1.0000
  H   H165      1.0  0.06021  0.30382  0.89467  1.0000
  S   S38       1.0  0.22090  0.44489  0.75833  1.0000
  H   H166      1.0  0.05671  0.36938  0.95730  1.0000
  H   H167      1.0  0.21442  0.44345  0.79627  1.0000
  H   H168      1.0  0.09048  0.19362  0.87315  1.0000
  C   C96       1.0  0.10386  0.30479  0.87595  1.0000
  C   C97       1.0  0.16179  0.20790  0.98016  1.0000
  H   H169      1.0  0.01478  0.15297  0.84304  1.0000
  H   H170      1.0  0.06311  0.33967  0.88739  1.0000
  C   C98       1.0  0.10598  0.35216  0.86552  1.0000
  C   C99       1.0  0.14629  0.12764  0.97062  1.0000
  H   H171      1.0  0.17478  0.20859  0.96923  1.0000
  H   H172      1.0  0.07310  0.11151  0.79232  1.0000
  Fe  Fe19      1.0  0.04947  0.17623  0.80843  1.0000
  S   S39       1.0  0.02468  0.13002  0.80097  1.0000
  S   S40       1.0  0.07435  0.18510  0.83549  1.0000
  H   H173      1.0  0.07901  0.07545  0.97471  1.0000
  H   H174      1.0  0.11204  0.15608  0.97421  1.0000
  C   C100      1.0  0.26336  0.46873  0.89791  1.0000
  H   H175      1.0  0.07879  0.12482  0.97335  1.0000
  H   H176      1.0  0.17984  0.04304  0.78719  1.0000
  N   N13       1.0  0.11662  0.11530  0.97669  1.0000
  C   C101      1.0  0.22061  0.47134  0.77222  1.0000
  Fe  Fe20      1.0  0.98914  0.14406  0.79132  1.0000
  C   C102      1.0  0.05555  0.06425  0.75884  1.0000
  C   C103      1.0  0.11743  0.11420  0.99656  1.0000
  C   C104      1.0  0.02331  0.35159  0.98584  1.0000
  H   H177      1.0  0.99606  0.06533  0.75783  1.0000
  H   H178      1.0  0.00395  0.29266  0.96058  1.0000
  H   H179      1.0  0.25267  0.44489  0.90075  1.0000
  C   C105      1.0  0.21731  0.46487  0.79072  1.0000
  H   H180      1.0  0.28267  0.48011  0.75248  1.0000
  C   C106      1.0  0.16996  0.00227  0.76310  1.0000
  H   H181      1.0  0.17035  0.47204  0.75105  1.0000
  H   H182      1.0  0.14646  0.12859  0.95569  1.0000
  C   C107      1.0  0.10141  0.08562  0.97028  1.0000
  H   H183      1.0  0.07195  0.34339  0.98254  1.0000
  H   H184      1.0  0.22393  0.45317  0.92246  1.0000
  C   C108      1.0  0.11529  0.45145  0.75729  1.0000
  C   C109      1.0  0.00115  0.30720  0.97005  1.0000
  C   C110      1.0  0.14651  0.48729  0.77778  1.0000
  H   H185      1.0  0.25093  0.47407  0.88625  1.0000
  C   C111      1.0  0.28200  0.47826  0.92861  1.0000
  C   C112      1.0  0.21747  0.48593  0.80206  1.0000
  H   H186      1.0  0.01717  0.33963  0.99904  1.0000
  H   H187      1.0  0.28528  0.47378  0.89346  1.0000
  H   H188      1.0  0.15815  0.47332  0.78281  1.0000
  S   S41       1.0  0.03440  0.24264  0.75765  1.0000
  H   H189      1.0  0.16755  0.05444  0.76583  1.0000
  C   C113      1.0  0.23483  0.47695  0.91943  1.0000
  H   H190      1.0  0.30441  0.48420  0.92475  1.0000
  H   H191      1.0  0.01113  0.04361  0.78590  1.0000
  C   C114      1.0  0.98810  0.03252  0.78902  1.0000
  N   N14       1.0  0.26433  0.48510  0.91371  1.0000
  H   H192      1.0  0.15798  0.99142  0.79797  1.0000
  H   H193      1.0  0.98560  0.01210  0.79693  1.0000
  H   H194      1.0  0.23472  0.48837  0.93157  1.0000
  H   H195      1.0  0.01830  0.85331  0.00433  1.0000
  C   C115      1.0  0.13905  0.98100  0.00882  1.0000
  S   S42       1.0  0.05295  0.97896  0.18458  1.0000
  C   C116      1.0  0.99878  0.93655  0.18690  1.0000
  H   H196      1.0  0.99890  0.80417  0.19259  1.0000
  H   H197      1.0  0.07106  0.87966  0.01118  1.0000
  H   H198      1.0  0.14136  0.96691  0.01997  1.0000
  H   H199      1.0  0.08400  0.91129  0.02405  1.0000
  C   C117      1.0  0.02526  0.95133  0.21535  1.0000
  N   N15       1.0  0.03822  0.89314  0.01812  1.0000
  H   H200      1.0  0.00397  0.92721  0.23885  1.0000
  C   C118      1.0  0.00095  0.85507  0.20303  1.0000
  C   C119      1.0  0.02372  0.95441  0.19656  1.0000
  H   H201      1.0  0.99746  0.93883  0.17236  1.0000
  H   H202      1.0  0.99540  0.86773  0.21253  1.0000
  H   H203      1.0  0.04962  0.92908  0.03508  1.0000
  H   H204      1.0  0.04452  0.96480  0.22291  1.0000
  C   C120      1.0  0.00228  0.92999  0.22434  1.0000
  C   C121      1.0  0.06575  0.88985  0.02231  1.0000
  H   H205      1.0  0.06513  0.87618  0.03482  1.0000
  H   H206      1.0  0.01111  0.87025  0.19156  1.0000
  C   C122      1.0  0.03225  0.90722  0.03300  1.0000
  H   H207      1.0  0.01164  0.91005  0.03016  1.0000
  C   C123      1.0  0.01470  0.86428  0.01571  1.0000
  H   H208      1.0  0.03056  0.89410  0.04588  1.0000
  H   H209      1.0  0.01744  0.84820  0.21020  1.0000
  H   H210      1.0  0.01257  0.84978  0.02800  1.0000
  H   H211      1.0  0.05793  0.93318  0.00250  1.0000
  H   H212      1.0  0.99419  0.82580  0.17324  1.0000
  H   H213      1.0  0.99362  0.86602  0.01251  1.0000
  C   C124      1.0  0.04023  0.91127  0.00136  1.0000
  Fe  Fe21      1.0  0.09984  0.57269  0.44492  1.0000
  S   S43       1.0  0.11278  0.53780  0.45806  1.0000
  S   S44       1.0  0.05973  0.56742  0.42657  1.0000
  Fe  Fe22      1.0  0.15699  0.62140  0.45879  1.0000
  S   S45       1.0  0.17331  0.58986  0.47345  1.0000
  S   S46       1.0  0.18325  0.66926  0.45268  1.0000
  Fe  Fe23      1.0  0.15712  0.56426  0.44869  1.0000
  S   S47       1.0  0.18477  0.55095  0.43225  1.0000
  Fe  Fe24      1.0  0.12758  0.56652  0.48175  1.0000
  S   S48       1.0  0.14309  0.59687  0.43360  1.0000
  S   S49       1.0  0.11231  0.60024  0.46910  1.0000
  C   C125      1.0  0.24701  0.62765  0.42146  1.0000
  C   C126      1.0  0.02560  0.50810  0.42758  1.0000
  C   C127      1.0  0.21285  0.54367  0.44411  1.0000
  C   C128      1.0  0.21139  0.53484  0.46235  1.0000
  C   C129      1.0  0.23354  0.52802  0.47130  1.0000
  C   C130      1.0  0.25782  0.53115  0.46228  1.0000
  C   C131      1.0  0.25976  0.54107  0.44421  1.0000
  C   C132      1.0  0.23704  0.54666  0.43506  1.0000
  H   H214      1.0  0.19280  0.53244  0.46945  1.0000
  H   H215      1.0  0.23186  0.52031  0.48526  1.0000
  H   H216      1.0  0.25718  0.67820  0.43580  1.0000
  H   H217      1.0  0.23830  0.55340  0.42094  1.0000
  C   C133      1.0  0.21926  0.68836  0.46069  1.0000
  C   C134      1.0  0.23181  0.67739  0.47517  1.0000
  C   C135      1.0  0.26048  0.69331  0.48124  1.0000
  C   C136      1.0  0.27690  0.72022  0.47285  1.0000
  C   C137      1.0  0.26450  0.73105  0.45824  1.0000
  C   C138      1.0  0.23569  0.71526  0.45230  1.0000
  H   H218      1.0  0.21922  0.65692  0.48191  1.0000
  H   H219      1.0  0.25581  0.63439  0.46670  1.0000
  H   H220      1.0  0.27691  0.75176  0.45170  1.0000
  H   H221      1.0  0.22606  0.72396  0.44114  1.0000
  C   C139      1.0  0.06919  0.52288  0.38619  1.0000
  H   H222      1.0  0.27998  0.60485  0.44183  1.0000
  H   H223      1.0  0.10263  0.57445  0.39966  1.0000
  C   C140      1.0  0.02815  0.53604  0.42169  1.0000
  C   C141      1.0  0.00570  0.53921  0.41058  1.0000
  H   H224      1.0  0.22861  0.63445  0.41913  1.0000
  C   C142      1.0  0.11478  0.51962  0.38312  1.0000
  H   H225      1.0  0.00749  0.56070  0.40588  1.0000
  H   H226      1.0  0.26984  0.68490  0.49266  1.0000
  N   N16       1.0  0.26354  0.63834  0.43853  1.0000
  H   H227      1.0  0.27839  0.54374  0.43713  1.0000
  H   H228      1.0  0.23781  0.60353  0.42158  1.0000
  H   H229      1.0  0.22558  0.63265  0.45178  1.0000
  H   H230      1.0  0.13646  0.57210  0.39715  1.0000
  H   H231      1.0  0.28965  0.68016  0.42678  1.0000
  H   H232      1.0  0.30242  0.63719  0.42984  1.0000
  S   S50       1.0  0.28447  0.52076  0.47348  1.0000
  H   H233      1.0  0.23567  0.60228  0.45459  1.0000
  H   H234      1.0  0.11508  0.52690  0.36866  1.0000
  H   H235      1.0  0.26075  0.63599  0.40976  1.0000
  C   C143      1.0  0.27489  0.67037  0.43790  1.0000
  C   C144      1.0  0.24438  0.62641  0.45358  1.0000
  H   H236      1.0  0.30089  0.63684  0.45375  1.0000
  C   C145      1.0  0.28773  0.62891  0.44111  1.0000
  H   H237      1.0  0.11327  0.57263  0.37765  1.0000
  C   C146      1.0  0.11360  0.56426  0.39186  1.0000
  H   H238      1.0  0.13754  0.52609  0.38848  1.0000
  S   S51       1.0  0.31278  0.73915  0.48110  1.0000
  N   N17       1.0  0.09939  0.53226  0.39339  1.0000
  H   H239      1.0  0.08874  0.53158  0.42062  1.0000
  H   H240      1.0  0.28930  0.50098  0.43494  1.0000
  H   H241      1.0  0.06781  0.52907  0.37162  1.0000
  H   H242      1.0  0.05745  0.53313  0.39321  1.0000
  H   H243      1.0  0.28710  0.67926  0.45066  1.0000
  C   C147      1.0  0.10006  0.52235  0.41250  1.0000
  H   H244      1.0  0.12254  0.52916  0.41841  1.0000
  H   H245      1.0  0.04256  0.50524  0.43620  1.0000
  H   H246      1.0  0.05725  0.49897  0.38796  1.0000
  H   H247      1.0  0.10445  0.49549  0.38394  1.0000
  H   H248      1.0  0.08939  0.49834  0.41430  1.0000
  H   H249      1.0  0.99939  0.52782  0.55581  1.0000
  Fe  Fe25      1.0  0.19649  0.82750  0.68481  1.0000
  S   S52       1.0  0.20523  0.79185  0.70041  1.0000
  S   S53       1.0  0.22145  0.84970  0.66004  1.0000
  Fe  Fe26      1.0  0.14086  0.81343  0.70436  1.0000
  S   S54       1.0  0.14528  0.77541  0.72038  1.0000
  S   S55       1.0  0.10166  0.82330  0.70821  1.0000
  Fe  Fe27      1.0  0.19141  0.80607  0.72439  1.0000
  Fe  Fe28      1.0  0.15819  0.76436  0.69471  1.0000
  S   S56       1.0  0.15232  0.72134  0.68356  1.0000
  S   S57       1.0  0.18664  0.84460  0.70936  1.0000
  S   S58       1.0  0.14975  0.79961  0.67828  1.0000
  Fe  Fe29      1.0  0.04771  0.53168  0.62273  1.0000
  S   S59       1.0  0.01001  0.54184  0.62895  1.0000
  H   H250      1.0  0.09452  0.76529  0.74288  1.0000
  Fe  Fe30      1.0  0.06928  0.58176  0.59511  1.0000
  S   S60       1.0  0.03403  0.59616  0.59922  1.0000
  S   S61       1.0  0.10311  0.60675  0.57538  1.0000
  Fe  Fe31      1.0  0.04275  0.58849  0.62870  1.0000
  S   S62       1.0  0.04217  0.62220  0.64718  1.0000
  H   H251      1.0  0.05496  0.87327  0.73975  1.0000
  S   S63       1.0  0.08051  0.57755  0.62461  1.0000
  S   S64       1.0  0.03910  0.53544  0.59270  1.0000
  H   H252      1.0  0.14802  0.86999  0.72704  1.0000
  C   C148      1.0  0.11098  0.51781  0.59929  1.0000
  H   H253      1.0  0.18233  0.54622  0.61168  1.0000
  H   H254      1.0  0.15349  0.55368  0.63470  1.0000
  C   C149      1.0  0.12133  0.69448  0.67323  1.0000
  C   C150      1.0  0.12442  0.67177  0.66503  1.0000
  C   C151      1.0  0.10055  0.64990  0.65663  1.0000
  C   C152      1.0  0.07317  0.65024  0.65660  1.0000
  C   C153      1.0  0.07011  0.67306  0.66472  1.0000
  C   C154      1.0  0.09409  0.69524  0.67285  1.0000
  H   H255      1.0  0.14539  0.67095  0.66527  1.0000
  H   H256      1.0  0.10321  0.63242  0.65055  1.0000
  H   H257      1.0  0.04900  0.67347  0.66478  1.0000
  H   H258      1.0  0.09136  0.71257  0.67908  1.0000
  C   C155      1.0  0.25948  0.86517  0.65917  1.0000
  C   C156      1.0  0.27163  0.87171  0.64230  1.0000
  C   C157      1.0  0.02782  0.58530  0.55012  1.0000
  H   H259      1.0  0.02947  0.55544  0.51116  1.0000
  C   C158      1.0  0.27775  0.87203  0.67473  1.0000
  H   H260      1.0  0.25769  0.86652  0.63018  1.0000
  C   C159      1.0  0.01423  0.53479  0.54461  1.0000
  H   H261      1.0  0.26871  0.86720  0.68780  1.0000
  C   C160      1.0  0.10213  0.85098  0.72174  1.0000
  C   C161      1.0  0.07595  0.85231  0.72532  1.0000
  H   H262      1.0  0.27343  0.51157  0.65386  1.0000
  C   C162      1.0  0.08939  0.49465  0.68289  1.0000
  H   H263      1.0  0.14532  0.56969  0.58548  1.0000
  C   C163      1.0  0.12771  0.87058  0.72977  1.0000
  H   H264      1.0  0.03092  0.60729  0.54432  1.0000
  H   H265      1.0  0.30513  0.52634  0.59565  1.0000
  H   H266      1.0  0.13001  0.81589  0.74153  1.0000
  C   C164      1.0  0.10618  0.58885  0.55684  1.0000
  C   C165      1.0  0.11970  0.60512  0.54164  1.0000
  C   C166      1.0  0.12199  0.59120  0.52659  1.0000
  C   C167      1.0  0.11122  0.56092  0.52686  1.0000
  C   C168      1.0  0.09797  0.54469  0.54215  1.0000
  C   C169      1.0  0.09529  0.55860  0.55704  1.0000
  H   H267      1.0  0.12825  0.62857  0.54143  1.0000
  H   H268      1.0  0.16523  0.53167  0.59049  1.0000
  H   H269      1.0  0.08964  0.52126  0.54240  1.0000
  H   H270      1.0  0.08500  0.54591  0.56870  1.0000
  N   N18       1.0  0.17910  0.76928  0.63499  1.0000
  C   C170      1.0  0.19783  0.77212  0.65160  1.0000
  C   C171      1.0  0.19111  0.76010  0.62045  1.0000
  C   C172      1.0  0.17760  0.79755  0.62969  1.0000
  C   C173      1.0  0.14991  0.74735  0.63826  1.0000
  H   H271      1.0  0.18933  0.77900  0.66278  1.0000
  H   H272      1.0  0.22000  0.78872  0.64977  1.0000
  H   H273      1.0  0.19921  0.75114  0.65621  1.0000
  H   H274      1.0  0.17744  0.75762  0.60772  1.0000
  H   H275      1.0  0.21314  0.77621  0.61767  1.0000
  H   H276      1.0  0.19258  0.73886  0.62412  1.0000
  H   H277      1.0  0.16878  0.80516  0.64045  1.0000
  H   H278      1.0  0.16366  0.79634  0.61722  1.0000
  H   H279      1.0  0.19933  0.81470  0.62735  1.0000
  H   H280      1.0  0.13494  0.74484  0.62615  1.0000
  H   H281      1.0  0.14045  0.75321  0.64949  1.0000
  H   H282      1.0  0.15026  0.72570  0.64212  1.0000
  C   C174      1.0  0.03681  0.57173  0.52171  1.0000
  H   H283      1.0  0.09240  0.52367  0.60074  1.0000
  H   H284      1.0  0.31721  0.97549  0.65836  1.0000
  C   C175      1.0  0.30779  0.88586  0.67339  1.0000
  H   H285      1.0  0.05867  0.57370  0.52688  1.0000
  C   C176      1.0  0.13414  0.53777  0.62762  1.0000
  H   H286      1.0  0.11308  0.51710  0.58465  1.0000
  C   C177      1.0  0.28120  0.49482  0.65806  1.0000
  H   H287      1.0  0.31070  0.88968  0.62790  1.0000
  N   N19       1.0  0.01674  0.56328  0.53636  1.0000
  C   C178      1.0  0.30957  0.49920  0.65483  1.0000
  H   H288      1.0  0.08992  0.50592  0.69474  1.0000
  C   C179      1.0  0.14318  0.56825  0.60028  1.0000
  C   C180      1.0  0.31399  0.49352  0.71237  1.0000
  H   H289      1.0  0.01283  0.58011  0.56113  1.0000
  C   C181      1.0  0.12704  0.89097  0.74141  1.0000
  C   C182      1.0  0.07526  0.87260  0.73707  1.0000
  H   H290      1.0  0.30889  0.51362  0.74379  1.0000
  H   H291      1.0  0.14697  0.90599  0.74753  1.0000
  Fe  Fe32      1.0  0.00397  0.54897  0.59892  1.0000
  C   C183      1.0  0.07713  0.50145  0.66645  1.0000
  H   H292      1.0  0.98911  0.58253  0.52294  1.0000
  H   H293      1.0  0.13019  0.51586  0.63397  1.0000
  C   C184      1.0  0.16195  0.53100  0.60510  1.0000
  H   H294      1.0  0.13233  0.60387  0.51487  1.0000
  C   C185      1.0  0.30170  0.88496  0.64097  1.0000
  H   H295      1.0  0.15818  0.50872  0.61073  1.0000
  N   N20       1.0  0.13757  0.53872  0.60808  1.0000
  H   H296      1.0  0.00586  0.51761  0.53464  1.0000
  H   H297      1.0  0.05604  0.83731  0.71913  1.0000
  S   S65       1.0  0.05895  0.49275  0.63044  1.0000
  H   H298      1.0  0.12528  0.57481  0.60246  1.0000
  H   H299      1.0  0.06831  0.51783  0.66572  1.0000
  H   H300      1.0  0.03541  0.53547  0.55028  1.0000
  H   H301      1.0  0.11268  0.49768  0.73817  1.0000
  H   H302      1.0  0.16317  0.58470  0.60643  1.0000
  H   H303      1.0  0.07725  0.80294  0.74541  1.0000
  H   H304      1.0  0.27482  0.51459  0.71796  1.0000
  H   H305      1.0  0.11542  0.54266  0.63038  1.0000
  H   H306      1.0  0.04886  0.58663  0.55641  1.0000
  C   C186      1.0  0.30878  0.51078  0.60596  1.0000
  H   H307      1.0  0.03918  0.59308  0.51510  1.0000
  C   C187      1.0  0.98810  0.56133  0.52908  1.0000
  S   S66       1.0  0.11380  0.54250  0.50846  1.0000
  H   H308      1.0  0.10515  0.49547  0.60546  1.0000
  H   H309      1.0  0.31555  0.50135  0.57222  1.0000
  H   H310      1.0  0.29545  0.50876  0.61747  1.0000
  C   C188      1.0  0.10085  0.89203  0.74518  1.0000
  H   H311      1.0  0.17691  0.51009  0.74920  1.0000
  H   H312      1.0  0.30851  0.96093  0.62701  1.0000
  C   C189      1.0  0.26695  0.49055  0.71831  1.0000
  C   C190      1.0  0.30037  0.48964  0.74304  1.0000
  Fe  Fe33      1.0  0.21513  0.53148  0.83828  1.0000
  H   H313      1.0  0.17300  0.78534  0.93802  1.0000
  S   S67       1.0  0.01114  0.94597  0.79538  1.0000
  Fe  Fe34      1.0  0.06255  0.92256  0.77048  1.0000
  S   S68       1.0  0.01652  0.89213  0.77491  1.0000
  C   C191      1.0  0.12341  0.98756  0.97794  1.0000
  Fe  Fe35      1.0  0.00599  0.93114  0.76735  1.0000
  Fe  Fe36      1.0  0.02501  0.90941  0.80270  1.0000
  S   S69       1.0  0.00884  0.88033  0.82738  1.0000
  H   H314      1.0  0.24026  0.77440  0.77399  1.0000
  S   S70       1.0  0.07144  0.93667  0.79903  1.0000
  Fe  Fe37      1.0  0.02405  0.87028  0.95761  1.0000
  S   S71       1.0  0.06052  0.86011  0.97081  1.0000
  H   H315      1.0  0.30051  0.71397  0.86500  1.0000
  Fe  Fe38      1.0  0.06158  0.90689  0.92705  1.0000
  S   S72       1.0  0.10112  0.90072  0.93887  1.0000
  S   S73       1.0  0.06504  0.93561  0.90175  1.0000
  Fe  Fe39      1.0  0.07064  0.85418  0.94284  1.0000
  S   S74       1.0  0.07776  0.81577  0.93305  1.0000
  Fe  Fe40      1.0  0.08769  0.90765  0.96557  1.0000
  C   C192      1.0  0.17033  0.71762  0.94952  1.0000
  S   S75       1.0  0.03140  0.86022  0.92998  1.0000
  S   S76       1.0  0.05111  0.91800  0.95326  1.0000
  Fe  Fe41      1.0  0.18247  0.54350  0.86655  1.0000
  S   S77       1.0  0.15083  0.56404  0.86811  1.0000
  S   S78       1.0  0.22269  0.57117  0.85313  1.0000
  Fe  Fe42      1.0  0.18052  0.75265  0.84679  1.0000
  S   S79       1.0  0.16214  0.74118  0.87417  1.0000
  S   S80       1.0  0.15356  0.74256  0.82061  1.0000
  Fe  Fe43      1.0  0.24236  0.77671  0.86163  1.0000
  S   S81       1.0  0.22992  0.76869  0.89017  1.0000
  Fe  Fe44      1.0  0.19772  0.72565  0.88119  1.0000
  S   S82       1.0  0.19738  0.68851  0.90019  1.0000
  Fe  Fe45      1.0  0.19529  0.78499  0.88144  1.0000
  S   S83       1.0  0.18966  0.81681  0.89943  1.0000
  S   S84       1.0  0.21260  0.73252  0.85321  1.0000
  S   S85       1.0  0.21122  0.79761  0.85347  1.0000
  C   C193      1.0  0.16549  0.59924  0.87627  1.0000
  C   C194      1.0  0.15640  0.62049  0.86825  1.0000
  C   C195      1.0  0.16673  0.64823  0.87518  1.0000
  C   C196      1.0  0.18527  0.65444  0.89064  1.0000
  C   C197      1.0  0.19443  0.63324  0.89865  1.0000
  C   C198      1.0  0.18505  0.60590  0.89127  1.0000
  H   H316      1.0  0.14123  0.61540  0.85667  1.0000
  H   H317      1.0  0.15957  0.66446  0.86890  1.0000
  H   H318      1.0  0.20867  0.63788  0.91066  1.0000
  H   H319      1.0  0.19193  0.58952  0.89762  1.0000
  C   C199      1.0  0.10914  0.81644  0.92387  1.0000
  C   C200      1.0  0.10712  0.79296  0.91398  1.0000
  C   C201      1.0  0.13135  0.79290  0.90609  1.0000
  C   C202      1.0  0.15806  0.81612  0.90833  1.0000
  C   C203      1.0  0.16011  0.83944  0.91837  1.0000
  C   C204      1.0  0.13579  0.83973  0.92600  1.0000
  H   H320      1.0  0.08657  0.77487  0.91223  1.0000
  H   H321      1.0  0.12928  0.77493  0.89825  1.0000
  H   H322      1.0  0.18069  0.85745  0.92026  1.0000
  H   H323      1.0  0.13775  0.85783  0.93369  1.0000
  H   H324      1.0  0.11308  0.98125  0.75517  1.0000
  H   H325      1.0  0.16492  0.75615  0.91117  1.0000
  C   C205      1.0  0.27712  0.51651  0.90887  1.0000
  Fe  Fe46      1.0  0.24481  0.55319  0.87471  1.0000
  C   C206      1.0  0.22144  0.51367  0.79494  1.0000
  C   C207      1.0  0.02365  0.89613  0.84803  1.0000
  C   C208      1.0  0.04290  0.92516  0.84861  1.0000
  C   C209      1.0  0.05491  0.93720  0.86523  1.0000
  C   C210      1.0  0.04784  0.92032  0.88133  1.0000
  C   C211      1.0  0.02805  0.89147  0.88075  1.0000
  C   C212      1.0  0.01595  0.87942  0.86413  1.0000
  H   H326      1.0  0.04872  0.93833  0.83627  1.0000
  H   H327      1.0  0.07009  0.95959  0.86560  1.0000
  H   H328      1.0  0.02210  0.87842  0.89309  1.0000
  C   C213      1.0  0.12612  0.96908  0.99228  1.0000
  C   C214      1.0  0.19698  0.79394  0.77042  1.0000
  C   C215      1.0  0.17520  0.76618  0.76899  1.0000
  C   C216      1.0  0.16192  0.75049  0.78447  1.0000
  C   C217      1.0  0.17061  0.76236  0.80142  1.0000
  C   C218      1.0  0.19222  0.79020  0.80277  1.0000
  C   C219      1.0  0.20528  0.80595  0.78731  1.0000
  C   C220      1.0  0.12111  0.50139  0.75246  1.0000
  H   H329      1.0  0.14520  0.72892  0.78335  1.0000
  H   H330      1.0  0.19861  0.79983  0.81566  1.0000
  H   H331      1.0  0.22187  0.82757  0.78845  1.0000
  H   H332      1.0  0.30449  0.65590  0.86215  1.0000
  H   H333      1.0  0.17649  0.70172  0.94322  1.0000
  C   C221      1.0  0.31385  0.60637  0.87834  1.0000
  N   N21       1.0  0.27368  0.66953  0.87212  1.0000
  H   H334      1.0  0.17938  0.77069  0.95982  1.0000
  C   C222      1.0  0.29480  0.78539  0.78455  1.0000
  H   H335      1.0  0.25646  0.74951  0.82047  1.0000
  H   H336      1.0  0.13661  0.72670  0.92188  1.0000
  H   H337      1.0  0.31558  0.79718  0.79217  1.0000
  N   N22       1.0  0.17653  0.74424  0.93785  1.0000
  C   C223      1.0  0.31395  0.78496  0.86257  1.0000
  C   C224      1.0  0.08289  0.80348  0.76015  1.0000
  H   H338      1.0  0.26795  0.63558  0.85450  1.0000
  H   H339      1.0  0.28721  0.67175  0.84531  1.0000
  C   C225      1.0  0.26827  0.64946  0.88822  1.0000
  H   H340      1.0  0.27798  0.52978  0.92031  1.0000
  H   H341      1.0  0.29634  0.76661  0.77850  1.0000
  H   H342      1.0  0.29888  0.58468  0.85346  1.0000
  H   H343      1.0  0.26429  0.52227  0.89762  1.0000
  S   S86       1.0  0.20486  0.52797  0.88962  1.0000
  H   H344      1.0  0.05009  0.84676  0.88264  1.0000
  H   H345      1.0  0.24969  0.68707  0.85323  1.0000
  H   H346      1.0  0.28907  0.70771  0.88757  1.0000
  S   S87       1.0  0.28637  0.79289  0.85053  1.0000
  N   N23       1.0  0.10680  0.79406  0.76472  1.0000
  C   C226      1.0  0.11221  0.79281  0.78446  1.0000
  H   H347      1.0  0.22425  0.75397  0.79391  1.0000
  S   S88       1.0  0.24095  0.51554  0.85889  1.0000
  S   S89       1.0  0.11408  0.93114  0.99005  1.0000
  S   S90       1.0  0.22094  0.54047  0.80843  1.0000
  H   H348      1.0  0.08613  0.89084  0.89612  1.0000
  Fe  Fe47      1.0  0.05686  0.97192  0.78899  1.0000
  H   H349      1.0  0.29466  0.76712  0.81922  1.0000
  N   N24       1.0  0.27036  0.77592  0.79630  1.0000
  H   H350      1.0  0.26040  0.65755  0.89921  1.0000
  H   H351      1.0  0.16900  0.75655  0.75603  1.0000
  H   H352      1.0  0.13922  0.83725  0.76100  1.0000
  C   C227      1.0  0.16793  0.76480  0.94642  1.0000
  H   H353      1.0  0.29325  0.77281  0.88767  1.0000
  H   H354      1.0  0.12360  0.90175  0.89275  1.0000
  C   C228      1.0  0.10289  0.88259  0.89404  1.0000
  H   H355      1.0  0.10492  0.86981  0.90652  1.0000
  S   S91       1.0  0.17281  0.50470  0.85010  1.0000
  H   H356      1.0  0.07588  0.89115  0.86334  1.0000
  H   H357      1.0  0.00082  0.85703  0.86376  1.0000
  H   H358      1.0  0.11291  0.90132  0.85947  1.0000
  C   C229      1.0  0.09239  0.88240  0.86191  1.0000
  N   N25       1.0  0.09526  0.86473  0.87811  1.0000
  H   H359      1.0  0.06921  0.82591  0.89289  1.0000
  C   C230      1.0  0.06770  0.83964  0.88071  1.0000
  S   S92       1.0  0.10140  0.91797  0.76013  1.0000
  S   S93       1.0  0.28400  0.58348  0.89041  1.0000
  H   H360      1.0  0.13935  0.87264  0.87433  1.0000
  H   H361      1.0  0.08583  0.86946  0.84967  1.0000
  H   H362      1.0  0.11318  0.84101  0.86384  1.0000
  C   C231      1.0  0.11807  0.85432  0.87584  1.0000
  H   H363      1.0  0.06105  0.82563  0.86897  1.0000
  C   C232      1.0  0.22500  0.49920  0.76517  1.0000
  H   H364      1.0  0.12048  0.84057  0.88767  1.0000
  H   H365      1.0  0.22913  0.65133  0.86258  1.0000
  S   S94       1.0  0.21551  0.81348  0.75164  1.0000
  H   H366      1.0  0.13041  0.78616  0.78831  1.0000
  H   H367      1.0  0.22859  0.54180  0.77100  1.0000
  H   H368      1.0  0.24301  0.74052  0.78010  1.0000
  H   H369      1.0  0.14699  0.70671  0.95193  1.0000
  H   H370      1.0  0.14438  0.75562  0.94828  1.0000
  H   H371      1.0  0.28810  0.64650  0.89352  1.0000
  H   H372      1.0  0.29937  0.52367  0.90440  1.0000
  H   H373      1.0  0.29246  0.80031  0.77328  1.0000
  C   C233      1.0  0.16024  0.73660  0.92037  1.0000
  H   H374      1.0  0.25174  0.62752  0.88512  1.0000
  H   H375      1.0  0.18240  0.72244  0.96282  1.0000
  H   H376      1.0  0.16594  0.72085  0.91358  1.0000
  C   C234      1.0  0.31209  0.77561  0.88074  1.0000
  C   C235      1.0  0.20764  0.75796  0.93492  1.0000
  H   H377      1.0  0.08860  0.82610  0.76406  1.0000
  H   H378      1.0  0.11781  0.81432  0.79012  1.0000
  H   H379      1.0  0.21299  0.77822  0.92619  1.0000
  H   H380      1.0  0.21474  0.74314  0.92821  1.0000
  C   C236      1.0  0.29593  0.69818  0.87681  1.0000
  H   H381      1.0  0.22073  0.76390  0.94782  1.0000
  H   H382      1.0  0.10257  0.49775  0.76065  1.0000
  H   H383      1.0  0.15166  0.80885  0.75977  1.0000
  H   H384      1.0  0.09309  0.77685  0.79121  1.0000
  H   H385      1.0  0.26604  0.81681  0.79314  1.0000
  H   H386      1.0  0.25116  0.79528  0.81305  1.0000
  C   C237      1.0  0.24675  0.67271  0.86563  1.0000
  C   C238      1.0  0.22532  0.52027  0.77650  1.0000
  H   H387      1.0  0.04482  0.90117  0.99000  1.0000
  H   H388      1.0  0.06311  0.78912  0.76693  1.0000
  C   C239      1.0  0.28374  0.65769  0.85787  1.0000
  C   C240      1.0  0.24329  0.76050  0.78564  1.0000
  H   H389      1.0  0.28927  0.81377  0.81205  1.0000
  S   S95       1.0  0.05094  0.95998  0.76033  1.0000
  C   C241      1.0  0.27419  0.75628  0.81108  1.0000
  C   C242      1.0  0.26915  0.80160  0.80392  1.0000
  H   H390      1.0  0.01973  0.91390  0.99748  1.0000
  H   H391      1.0  0.11362  0.97870  0.96512  1.0000
  H   H392      1.0  0.27458  0.73635  0.80590  1.0000
  H   H393      1.0  0.23911  0.68241  0.87590  1.0000
  C   C243      1.0  0.09902  0.76504  0.75776  1.0000
  C   C244      1.0  0.13306  0.81494  0.75643  1.0000
  H   H394      1.0  0.12988  0.96560  0.78447  1.0000
  H   H395      1.0  0.16091  0.97943  0.75881  1.0000
  H   H396      1.0  0.11671  0.75738  0.76064  1.0000
  H   H397      1.0  0.16193  0.51021  0.77945  1.0000
  H   H398      1.0  0.07950  0.74863  0.76387  1.0000
  H   H399      1.0  0.13605  0.52461  0.75319  1.0000
  Fe  Fe48      1.0  0.19876  0.49118  0.87214  1.0000
  C   C245      1.0  0.31584  0.60225  0.86029  1.0000
  C   C246      1.0  0.13948  0.98870  0.78816  1.0000
  H   H400      1.0  0.31662  0.69666  0.88174  1.0000
  H   H401      1.0  0.28323  0.49036  0.94073  1.0000
  H   H402      1.0  0.22821  0.50454  0.75099  1.0000
  H   H403      1.0  0.58030  0.33795  0.06501  1.0000
  S   S96       1.0  0.60990  0.43318  0.13871  1.0000
  Fe  Fe49      1.0  0.47483  0.29604  0.11388  1.0000
  S   S97       1.0  0.49023  0.27932  0.13946  1.0000
  S   S98       1.0  0.50766  0.33270  0.09766  1.0000
  Fe  Fe50      1.0  0.41357  0.24765  0.11510  1.0000
  S   S99       1.0  0.42596  0.22701  0.14046  1.0000
  S   S100      1.0  0.36500  0.22906  0.10800  1.0000
  Fe  Fe51      1.0  0.44779  0.27220  0.14991  1.0000
  S   S101      1.0  0.44747  0.28369  0.17857  1.0000
  Fe  Fe52      1.0  0.46722  0.23585  0.12776  1.0000
  S   S102      1.0  0.48962  0.20493  0.13076  1.0000
  S   S103      1.0  0.43396  0.29304  0.12529  1.0000
  S   S104      1.0  0.45338  0.25243  0.10142  1.0000
  H   H404      1.0  0.46856  0.23701  0.17877  1.0000
  S   S105      1.0  0.61798  0.27083  0.10812  1.0000
  H   H405      1.0  0.50279  0.29097  0.07014  1.0000
  H   H406      1.0  0.42886  0.23622  0.23860  1.0000
  C   C247      1.0  0.52583  0.22289  0.12536  1.0000
  C   C248      1.0  0.53593  0.25177  0.11892  1.0000
  C   C249      1.0  0.56445  0.26625  0.11425  1.0000
  C   C250      1.0  0.58321  0.25198  0.11580  1.0000
  C   C251      1.0  0.57345  0.22317  0.12258  1.0000
  C   C252      1.0  0.54468  0.20860  0.12733  1.0000
  H   H407      1.0  0.52162  0.26290  0.11721  1.0000
  H   H408      1.0  0.57186  0.28856  0.10921  1.0000
  H   H409      1.0  0.58781  0.21196  0.12374  1.0000
  H   H410      1.0  0.53697  0.18618  0.13226  1.0000
  C   C253      1.0  0.58177  0.40565  0.12686  1.0000
  C   C254      1.0  0.58074  0.40430  0.10815  1.0000
  C   C255      1.0  0.55785  0.38199  0.09933  1.0000
  C   C256      1.0  0.53607  0.36060  0.10913  1.0000
  C   C257      1.0  0.53737  0.36180  0.12784  1.0000
  C   C258      1.0  0.56000  0.38431  0.13662  1.0000
  H   H411      1.0  0.59726  0.42077  0.10047  1.0000
  H   H412      1.0  0.55683  0.38169  0.08484  1.0000
  H   H413      1.0  0.52065  0.34571  0.13555  1.0000
  H   H414      1.0  0.56055  0.38524  0.15108  1.0000
  C   C259      1.0  0.34268  0.21049  0.08955  1.0000
  H   H415      1.0  0.38568  0.27016  0.22368  1.0000
  S   S106      1.0  0.38740  0.17795  0.23290  1.0000
  C   C260      1.0  0.41713  0.34329  0.22735  1.0000
  C   C261      1.0  0.35366  0.20535  0.07425  1.0000
  H   H416      1.0  0.62705  0.33072  0.15214  1.0000
  H   H417      1.0  0.55763  0.31505  0.03592  1.0000
  H   H418      1.0  0.34349  0.18716  0.04803  1.0000
  H   H419      1.0  0.37669  0.21288  0.07338  1.0000
  C   C262      1.0  0.40213  0.20820  0.21809  1.0000
  C   C263      1.0  0.39481  0.20554  0.19962  1.0000
  C   C264      1.0  0.40802  0.22892  0.18743  1.0000
  C   C265      1.0  0.42929  0.25469  0.19361  1.0000
  C   C266      1.0  0.43667  0.25730  0.21209  1.0000
  C   C267      1.0  0.42279  0.23428  0.22436  1.0000
  H   H420      1.0  0.37876  0.18540  0.19475  1.0000
  H   H421      1.0  0.40161  0.22700  0.17328  1.0000
  H   H422      1.0  0.45359  0.27697  0.21685  1.0000
  H   H423      1.0  0.48998  0.22937  0.16377  1.0000
  H   H424      1.0  0.56941  0.27635  0.07822  1.0000
  H   H425      1.0  0.58401  0.29276  0.05725  1.0000
  C   C268      1.0  0.51762  0.27947  0.07122  1.0000
  H   H426      1.0  0.56350  0.32159  0.08563  1.0000
  H   H427      1.0  0.55289  0.25904  0.05781  1.0000
  C   C269      1.0  0.53778  0.30194  0.04306  1.0000
  C   C270      1.0  0.55935  0.32469  0.07091  1.0000
  H   H428      1.0  0.52344  0.31398  0.04137  1.0000
  H   H429      1.0  0.52662  0.28122  0.03614  1.0000
  H   H430      1.0  0.42190  0.28320  0.24875  1.0000
  H   H431      1.0  0.40982  0.29718  0.20894  1.0000
  H   H432      1.0  0.52186  0.27563  0.08582  1.0000
  H   H433      1.0  0.50392  0.23954  0.18619  1.0000
  C   C271      1.0  0.63026  0.32684  0.13819  1.0000
  N   N26       1.0  0.54459  0.29663  0.06229  1.0000
  H   H434      1.0  0.50596  0.25791  0.06535  1.0000
  H   H435      1.0  0.54593  0.33769  0.06932  1.0000
  C   C272      1.0  0.33477  0.19073  0.05991  1.0000
  H   H436      1.0  0.60895  0.31280  0.13211  1.0000
  C   C273      1.0  0.39355  0.29346  0.21901  1.0000
  N   N27       1.0  0.47195  0.19591  0.18423  1.0000
  C   C274      1.0  0.44503  0.18030  0.17349  1.0000
  C   C275      1.0  0.49284  0.18296  0.18197  1.0000
  C   C276      1.0  0.46578  0.19361  0.20342  1.0000
  C   C277      1.0  0.48415  0.22679  0.17800  1.0000
  H   H437      1.0  0.43523  0.15692  0.17779  1.0000
  H   H438      1.0  0.44889  0.18172  0.15891  1.0000
  H   H439      1.0  0.42877  0.18949  0.17486  1.0000
  H   H440      1.0  0.51359  0.19446  0.18965  1.0000
  H   H441      1.0  0.48441  0.15968  0.18660  1.0000
  H   H442      1.0  0.49769  0.18418  0.16756  1.0000
  H   H443      1.0  0.45071  0.20393  0.20556  1.0000
  H   H444      1.0  0.48565  0.20463  0.21202  1.0000
  H   H445      1.0  0.45560  0.17060  0.20849  1.0000
  C   C278      1.0  0.56351  0.28052  0.06393  1.0000
  H   H446      1.0  0.43421  0.34770  0.21776  1.0000
  H   H447      1.0  0.62744  0.33439  0.10214  1.0000
  C   C279      1.0  0.64165  0.15027  0.24512  1.0000
  H   H448      1.0  0.63315  0.39084  0.11806  1.0000
  H   H449      1.0  0.61196  0.16250  0.21661  1.0000
  H   H450      1.0  0.64836  0.18886  0.21710  1.0000
  C   C280      1.0  0.62767  0.18149  0.22383  1.0000
  H   H451      1.0  0.39984  0.34892  0.22015  1.0000
  H   H452      1.0  0.36507  0.31257  0.24025  1.0000
  H   H453      1.0  0.62000  0.19937  0.22179  1.0000
  N   N28       1.0  0.63144  0.17406  0.24316  1.0000
  N   N29       1.0  0.40585  0.31271  0.23421  1.0000
  C   C281      1.0  0.42952  0.30631  0.24370  1.0000
  H   H454      1.0  0.37509  0.29707  0.21183  1.0000
  C   C282      1.0  0.62389  0.36990  0.12608  1.0000
  H   H455      1.0  0.42666  0.35831  0.23853  1.0000
  N   N30       1.0  0.64325  0.35435  0.12745  1.0000
  H   H456      1.0  0.62008  0.37526  0.13956  1.0000
  H   H457      1.0  0.60253  0.35682  0.11954  1.0000
  H   H458      1.0  0.44735  0.31057  0.23479  1.0000
  H   H459      1.0  0.62591  0.13036  0.23879  1.0000
  H   H460      1.0  0.64399  0.31418  0.13896  1.0000
  H   H461      1.0  0.58707  0.14523  0.24544  1.0000
  C   C283      1.0  0.38327  0.30784  0.24683  1.0000
  C   C284      1.0  0.64797  0.34820  0.10924  1.0000
  H   H462      1.0  0.59553  0.18214  0.25071  1.0000
  H   H463      1.0  0.64632  0.21854  0.25037  1.0000
  Fe  Fe53      1.0  0.48310  0.03056  0.38688  1.0000
  S   S107      1.0  0.51856  0.06594  0.40188  1.0000
  Fe  Fe54      1.0  0.47508  0.07544  0.35872  1.0000
  S   S108      1.0  0.51030  0.11314  0.37184  1.0000
  S   S109      1.0  0.45637  0.08607  0.33187  1.0000
  Fe  Fe55      1.0  0.53528  0.08487  0.37469  1.0000
  S   S110      1.0  0.58295  0.09750  0.37065  1.0000
  Fe  Fe56      1.0  0.49031  0.09060  0.39747  1.0000
  S   S111      1.0  0.47834  0.11336  0.41834  1.0000
  S   S112      1.0  0.50142  0.04842  0.35989  1.0000
  S   S113      1.0  0.45339  0.05422  0.38420  1.0000
  H   H464      1.0  0.60616  0.15883  0.26635  1.0000
  C   C285      1.0  0.41203  0.48128  0.41441  1.0000
  Fe  Fe57      1.0  0.38054  0.23552  0.28400  1.0000
  S   S114      1.0  0.40243  0.20450  0.28380  1.0000
  S   S115      1.0  0.40819  0.28386  0.28626  1.0000
  Fe  Fe58      1.0  0.48149  0.46953  0.36823  1.0000
  Fe  Fe59      1.0  0.36431  0.17292  0.29821  1.0000
  S   S116      1.0  0.36530  0.14410  0.32305  1.0000
  C   C286      1.0  0.53220  0.31882  0.47102  1.0000
  S   S117      1.0  0.34392  0.20498  0.30001  1.0000
  Fe  Fe60      1.0  0.47130  0.40773  0.35850  1.0000
  S   S118      1.0  0.43666  0.36218  0.35444  1.0000
  Fe  Fe61      1.0  0.51885  0.43972  0.38652  1.0000
  S   S119      1.0  0.54695  0.44032  0.41181  1.0000
  S   S120      1.0  0.47120  0.42768  0.38463  1.0000
  S   S121      1.0  0.51842  0.41660  0.36194  1.0000
  C   C287      1.0  0.53099  0.42661  0.43238  1.0000
  C   C288      1.0  0.54813  0.43343  0.44846  1.0000
  C   C289      1.0  0.53580  0.42387  0.46513  1.0000
  C   C290      1.0  0.50630  0.40720  0.46575  1.0000
  C   C291      1.0  0.48918  0.40015  0.44968  1.0000
  C   C292      1.0  0.50149  0.40979  0.43301  1.0000
  H   H465      1.0  0.57096  0.44646  0.44802  1.0000
  H   H466      1.0  0.42995  0.45987  0.39794  1.0000
  S   S122      1.0  0.49060  0.39344  0.48634  1.0000
  H   H467      1.0  0.54534  0.31055  0.48075  1.0000
  C   C293      1.0  0.50433  0.07706  0.48248  1.0000
  C   C294      1.0  0.41644  0.30487  0.30561  1.0000
  C   C295      1.0  0.40275  0.29392  0.32166  1.0000
  C   C296      1.0  0.40931  0.31175  0.33646  1.0000
  C   C297      1.0  0.42979  0.34057  0.33548  1.0000
  C   C298      1.0  0.44370  0.35141  0.31947  1.0000
  C   C299      1.0  0.43693  0.33368  0.30461  1.0000
  H   H468      1.0  0.38687  0.27188  0.32262  1.0000
  H   H469      1.0  0.39838  0.30320  0.34875  1.0000
  H   H470      1.0  0.45946  0.37353  0.31852  1.0000
  H   H471      1.0  0.44769  0.34240  0.29229  1.0000
  C   C300      1.0  0.58557  0.12287  0.33603  1.0000
  C   C301      1.0  0.60036  0.11517  0.35078  1.0000
  S   S123      1.0  0.52950  0.48287  0.37164  1.0000
  H   H472      1.0  0.56289  0.11808  0.33660  1.0000
  H   H473      1.0  0.54653  0.34082  0.46586  1.0000
  C   C302      1.0  0.43078  0.10183  0.32967  1.0000
  C   C303      1.0  0.42966  0.11897  0.31411  1.0000
  C   C304      1.0  0.40970  0.13205  0.31192  1.0000
  C   C305      1.0  0.39038  0.12770  0.32519  1.0000
  C   C306      1.0  0.39113  0.11013  0.34063  1.0000
  C   C307      1.0  0.41136  0.09734  0.34292  1.0000
  H   H474      1.0  0.44441  0.12227  0.30371  1.0000
  H   H475      1.0  0.40921  0.14536  0.29991  1.0000
  H   H476      1.0  0.37598  0.10636  0.35084  1.0000
  H   H477      1.0  0.41163  0.08361  0.35476  1.0000
  C   C308      1.0  0.50450  0.13133  0.43517  1.0000
  C   C309      1.0  0.53313  0.13497  0.43445  1.0000
  C   C310      1.0  0.55372  0.15014  0.44780  1.0000
  C   C311      1.0  0.49270  0.47734  0.41754  1.0000
  C   C312      1.0  0.51702  0.15741  0.46289  1.0000
  C   C313      1.0  0.49648  0.14254  0.44942  1.0000
  H   H478      1.0  0.53951  0.12646  0.42348  1.0000
  H   H479      1.0  0.57595  0.15322  0.44707  1.0000
  C   C314      1.0  0.48914  0.29022  0.48640  1.0000
  H   H480      1.0  0.47435  0.13985  0.44999  1.0000
  H   H481      1.0  0.48819  0.40416  0.42066  1.0000
  H   H482      1.0  0.58933  0.04321  0.36011  1.0000
  S   S124      1.0  0.35547  0.22166  0.25753  1.0000
  N   N31       1.0  0.45983  0.16397  0.37599  1.0000
  C   C315      1.0  0.46598  0.16313  0.35708  1.0000
  C   C316      1.0  0.48698  0.17357  0.38733  1.0000
  C   C317      1.0  0.44042  0.13472  0.38249  1.0000
  C   C318      1.0  0.44587  0.18445  0.37709  1.0000
  C   C319      1.0  0.54576  0.16144  0.46202  1.0000
  H   H483      1.0  0.44616  0.15748  0.34803  1.0000
  N   N32       1.0  0.50740  0.31969  0.47957  1.0000
  H   H484      1.0  0.48306  0.17407  0.40173  1.0000
  H   H485      1.0  0.49796  0.15849  0.38687  1.0000
  H   H486      1.0  0.50224  0.19558  0.38293  1.0000
  H   H487      1.0  0.44970  0.11841  0.38111  1.0000
  H   H488      1.0  0.41919  0.12731  0.37488  1.0000
  H   H489      1.0  0.43651  0.13421  0.39699  1.0000
  H   H490      1.0  0.44079  0.18554  0.39115  1.0000
  H   H491      1.0  0.54654  0.00440  0.39916  1.0000
  H   H492      1.0  0.45992  0.20677  0.37228  1.0000
  C   C320      1.0  0.55511  0.01992  0.38753  1.0000
  H   H493      1.0  0.58838  0.14266  0.30919  1.0000
  H   H494      1.0  0.51074  0.16627  0.47372  1.0000
  S   S125      1.0  0.55696  0.47205  0.32427  1.0000
  S   S126      1.0  0.64672  0.16122  0.29958  1.0000
  H   H495      1.0  0.52504  0.30439  0.45946  1.0000
  Fe  Fe62      1.0  0.52557  0.45914  0.34674  1.0000
  H   H496      1.0  0.40032  0.46168  0.42225  1.0000
  H   H497      1.0  0.48390  0.05765  0.48060  1.0000
  H   H498      1.0  0.33329  0.45851  0.44898  1.0000
  H   H499      1.0  0.48169  0.18447  0.35199  1.0000
  S   S127      1.0  0.47804  0.44895  0.34175  1.0000
  H   H500      1.0  0.47495  0.14664  0.35546  1.0000
  C   C321      1.0  0.62983  0.12152  0.34975  1.0000
  H   H501      1.0  0.33244  0.46653  0.41595  1.0000
  Fe  Fe63      1.0  0.37459  0.18858  0.25865  1.0000
  H   H502      1.0  0.50224  0.09520  0.47377  1.0000
  H   H503      1.0  0.60981  0.47630  0.31124  1.0000
  H   H504      1.0  0.64145  0.11551  0.36103  1.0000
  H   H505      1.0  0.53104  0.36199  0.48986  1.0000
  H   H506      1.0  0.42532  0.17782  0.36862  1.0000
  C   C322      1.0  0.62954  0.14320  0.31945  1.0000
  H   H507      1.0  0.52185  0.07246  0.47722  1.0000
  C   C323      1.0  0.42891  0.48019  0.40067  1.0000
  C   C324      1.0  0.57608  0.98987  0.37609  1.0000
  H   H508      1.0  0.46636  0.38707  0.45011  1.0000
  C   C325      1.0  0.60010  0.13680  0.32048  1.0000
  S   S128      1.0  0.57218  0.18023  0.47851  1.0000
  S   S129      1.0  0.33832  0.15404  0.27296  1.0000
  H   H509      1.0  0.50166  0.46058  0.41767  1.0000
  H   H510      1.0  0.55342  0.03842  0.35292  1.0000
  H   H511      1.0  0.47051  0.29019  0.49325  1.0000
  C   C326      1.0  0.60377  0.16466  0.25174  1.0000
  C   C327      1.0  0.49041  0.33047  0.46619  1.0000
  H   H512      1.0  0.57654  0.03654  0.39177  1.0000
  H   H513      1.0  0.37435  0.28500  0.25231  1.0000
  H   H514      1.0  0.54916  0.42932  0.47749  1.0000
  N   N33       1.0  0.55656  0.00496  0.37163  1.0000
  H   H515      1.0  0.55589  0.10790  0.49758  1.0000
  H   H516      1.0  0.56901  0.01610  0.34428  1.0000
  H   H517      1.0  0.50145  0.28122  0.49630  1.0000
  H   H518      1.0  0.54054  0.03140  0.38457  1.0000
  H   H519      1.0  0.48099  0.31563  0.45495  1.0000
  H   H520      1.0  0.48912  0.48331  0.40320  1.0000
  H   H521      1.0  0.50395  0.35212  0.46020  1.0000
  C   C328      1.0  0.56757  0.02650  0.35655  1.0000
  H   H522      1.0  0.47245  0.33303  0.47245  1.0000
  H   H523      1.0  0.48048  0.27484  0.47537  1.0000
  Fe  Fe64      1.0  0.32067  0.18813  0.27346  1.0000
  H   H524      1.0  0.52495  0.47708  0.44773  1.0000
  H   H525      1.0  0.39194  0.32167  0.25865  1.0000
  C   C329      1.0  0.51794  0.33936  0.49466  1.0000
  H   H526      1.0  0.59818  0.00543  0.38011  1.0000
  H   H527      1.0  0.43866  0.31974  0.25565  1.0000
  H   H528      1.0  0.47138  0.46717  0.42352  1.0000
  H   H529      1.0  0.48347  0.10840  0.49963  1.0000
  H   H530      1.0  0.51208  0.99416  0.36315  1.0000
  H   H531      1.0  0.49503  0.48482  0.45285  1.0000
  C   C330      1.0  0.64436  0.13539  0.33415  1.0000
  H   H532      1.0  0.64512  0.14437  0.25958  1.0000
  H   H533      1.0  0.53539  0.12977  0.49582  1.0000
  C   C331      1.0  0.64046  0.37699  0.56159  1.0000
  Fe  Fe65      1.0  0.52568  0.21070  0.52715  1.0000
  S   S130      1.0  0.54446  0.19942  0.55350  1.0000
  S   S131      1.0  0.49635  0.23464  0.52508  1.0000
  C   C332      1.0  0.51385  0.06041  0.51267  1.0000
  S   S132      1.0  0.58102  0.17708  0.52926  1.0000
  H   H534      1.0  0.61758  0.13337  0.59961  1.0000
  Fe  Fe66      1.0  0.53768  0.15764  0.54111  1.0000
  S   S133      1.0  0.53186  0.11329  0.55445  1.0000
  Fe  Fe67      1.0  0.58619  0.21933  0.53976  1.0000
  S   S134      1.0  0.62635  0.24722  0.55589  1.0000
  H   H535      1.0  0.46621  0.07111  0.50732  1.0000
  S   S135      1.0  0.56777  0.23316  0.51421  1.0000
  C   C333      1.0  0.63032  0.34147  0.53925  1.0000
  H   H536      1.0  0.60750  0.38166  0.53286  1.0000
  H   H537      1.0  0.56470  0.16314  0.58024  1.0000
  H   H538      1.0  0.57824  0.18134  0.60088  1.0000
  C   C334      1.0  0.61499  0.16610  0.56998  1.0000
  H   H539      1.0  0.51837  0.06560  0.52716  1.0000
  Fe  Fe68      1.0  0.52062  0.43996  0.54596  1.0000
  S   S136      1.0  0.50160  0.39328  0.53813  1.0000
  S   S137      1.0  0.48676  0.45206  0.55755  1.0000
  Fe  Fe69      1.0  0.57645  0.45143  0.52781  1.0000
  S   S138      1.0  0.56059  0.40641  0.51821  1.0000
  H   H540      1.0  0.53141  0.33236  0.50488  1.0000
  H   H541      1.0  0.64108  0.41246  0.53259  1.0000
  H   H542      1.0  0.59480  0.14309  0.61258  1.0000
  Fe  Fe70      1.0  0.54498  0.39293  0.54588  1.0000
  S   S139      1.0  0.55692  0.35731  0.55936  1.0000
  S   S140      1.0  0.53578  0.45748  0.51824  1.0000
  S   S141      1.0  0.56312  0.43798  0.55621  1.0000
  C   C335      1.0  0.31958  0.48641  0.58285  1.0000
  N   N34       1.0  0.60833  0.16949  0.58833  1.0000
  N   N35       1.0  0.64422  0.37269  0.54276  1.0000
  H   H543      1.0  0.54890  0.26039  0.54733  1.0000
  C   C336      1.0  0.63077  0.38878  0.53051  1.0000
  S   S142      1.0  0.62068  0.47950  0.51846  1.0000
  H   H544      1.0  0.49980  0.34020  0.50168  1.0000
  Fe  Fe71      1.0  0.55877  0.18892  0.50478  1.0000
  C   C337      1.0  0.34740  0.01536  0.63343  1.0000
  H   H545      1.0  0.49393  0.04023  0.51172  1.0000
  C   C338      1.0  0.51231  0.26809  0.53550  1.0000
  C   C339      1.0  0.49902  0.28785  0.53344  1.0000
  C   C340      1.0  0.51260  0.31540  0.54063  1.0000
  C   C341      1.0  0.53895  0.32281  0.55054  1.0000
  C   C342      1.0  0.55151  0.30252  0.55334  1.0000
  C   C343      1.0  0.53860  0.27553  0.54548  1.0000
  H   H546      1.0  0.44087  0.45750  0.57417  1.0000
  H   H547      1.0  0.50245  0.33070  0.53881  1.0000
  H   H548      1.0  0.54390  0.11645  0.51745  1.0000
  H   H549      1.0  0.47828  0.28191  0.52622  1.0000
  C   C344      1.0  0.45785  0.04357  0.58513  1.0000
  C   C345      1.0  0.45710  0.07081  0.58016  1.0000
  C   C346      1.0  0.47923  0.09225  0.57050  1.0000
  C   C347      1.0  0.50260  0.08676  0.56587  1.0000
  C   C348      1.0  0.50329  0.05948  0.57073  1.0000
  C   C349      1.0  0.48101  0.03794  0.58021  1.0000
  H   H550      1.0  0.43932  0.07543  0.58390  1.0000
  H   H551      1.0  0.47837  0.11312  0.56692  1.0000
  H   H552      1.0  0.52129  0.05498  0.56728  1.0000
  H   H553      1.0  0.48195  0.01716  0.58397  1.0000
  C   C350      1.0  0.58424  0.17898  0.58729  1.0000
  H   H554      1.0  0.38802  0.99742  0.62496  1.0000
  C   C351      1.0  0.48713  0.47583  0.57400  1.0000
  H   H555      1.0  0.57140  0.30777  0.56148  1.0000
  H   H556      1.0  0.64058  0.21295  0.58961  1.0000
  H   H557      1.0  0.59608  0.14964  0.56282  1.0000
  H   H558      1.0  0.35339  0.99503  0.66740  1.0000
  Fe  Fe72      1.0  0.51898  0.41099  0.51119  1.0000
  H   H559      1.0  0.32474  0.01326  0.63330  1.0000
  H   H560      1.0  0.49130  0.09713  0.52215  1.0000
  H   H561      1.0  0.33183  0.47254  0.61725  1.0000
  H   H562      1.0  0.65039  0.40038  0.56460  1.0000
  H   H563      1.0  0.62967  0.19495  0.61111  1.0000
  S   S143      1.0  0.42987  0.01776  0.59787  1.0000
  H   H564      1.0  0.65048  0.36536  0.57128  1.0000
  H   H565      1.0  0.35500  0.02277  0.61962  1.0000
  H   H566      1.0  0.59002  0.20043  0.57987  1.0000
  H   H567      1.0  0.60665  0.33304  0.54031  1.0000
  S   S144      1.0  0.35444  0.48124  0.65468  1.0000
  H   H568      1.0  0.63262  0.38568  0.51617  1.0000
  H   H569      1.0  0.58058  0.12448  0.59214  1.0000
  C   C352      1.0  0.53765  0.11076  0.50319  1.0000
  C   C353      1.0  0.60002  0.14138  0.59866  1.0000
  C   C354      1.0  0.64969  0.28003  0.52541  1.0000
  H   H570      1.0  0.53193  0.05567  0.50844  1.0000
  C   C355      1.0  0.46061  0.47406  0.57943  1.0000
  S   S145      1.0  0.51497  0.16710  0.51570  1.0000
  H   H571      1.0  0.63424  0.33716  0.52554  1.0000
  C   C356      1.0  0.63395  0.19156  0.59728  1.0000
  H   H572      1.0  0.63201  0.26423  0.51788  1.0000
  C   C357      1.0  0.31967  0.47749  0.65979  1.0000
  H   H573      1.0  0.33154  0.48594  0.71630  1.0000
  H   H574      1.0  0.63305  0.46406  0.55555  1.0000
  H   H575      1.0  0.36066  0.03283  0.64260  1.0000
  C   C358      1.0  0.64994  0.47303  0.52926  1.0000
  H   H576      1.0  0.45165  0.48202  0.53755  1.0000
  H   H577      1.0  0.61726  0.36884  0.56435  1.0000
  H   H578      1.0  0.62125  0.18694  0.56180  1.0000
  H   H579      1.0  0.39462  0.00858  0.64772  1.0000
  H   H580      1.0  0.63315  0.15906  0.57020  1.0000
  C   C359      1.0  0.48684  0.09055  0.50793  1.0000
  H   H581      1.0  0.63858  0.32840  0.54902  1.0000
  C   C360      1.0  0.38014  0.99137  0.63877  1.0000
  N   N36       1.0  0.51064  0.08464  0.50156  1.0000
  H   H582      1.0  0.31776  0.48244  0.74817  1.0000
  H   H583      1.0  0.59553  0.51745  0.23958  1.0000
  H   H584      1.0  0.62711  0.55066  0.23797  1.0000
  C   C361      1.0  0.61487  0.53224  0.24729  1.0000
  H   H585      1.0  0.60023  0.57786  0.24848  1.0000
  H   H586      1.0  0.56863  0.54469  0.24995  1.0000
  H   H587      1.0  0.40683  0.69856  0.48502  1.0000
  Fe  Fe73      1.0  0.37832  0.83538  0.44500  1.0000
  S   S146      1.0  0.42159  0.83981  0.45717  1.0000
  S   S147      1.0  0.37455  0.87184  0.42603  1.0000
  Fe  Fe74      1.0  0.34636  0.78072  0.46915  1.0000
  S   S148      1.0  0.38818  0.78415  0.48351  1.0000
  N   N37       1.0  0.51240  0.50285  0.42727  1.0000
  Fe  Fe75      1.0  0.40462  0.79131  0.45605  1.0000
  S   S149      1.0  0.43040  0.76485  0.45234  1.0000
  S   S150      1.0  0.35738  0.82850  0.47152  1.0000
  S   S151      1.0  0.36276  0.78690  0.44140  1.0000
  H   H588      1.0  0.41677  0.97038  0.39763  1.0000
  H   H589      1.0  0.39213  0.96064  0.47853  1.0000
  H   H590      1.0  0.57036  0.50273  0.26857  1.0000
  H   H591      1.0  0.37460  0.88284  0.49136  1.0000
  H   H592      1.0  0.56834  0.97352  0.38745  1.0000
  H   H593      1.0  0.51838  0.96719  0.37761  1.0000
  Fe  Fe76      1.0  0.38015  0.54418  0.44648  1.0000
  S   S152      1.0  0.40871  0.59059  0.45235  1.0000
  S   S153      1.0  0.38791  0.50713  0.43526  1.0000
  H   H594      1.0  0.42362  0.91978  0.45466  1.0000
  S   S154      1.0  0.35460  0.59214  0.47381  1.0000
  Fe  Fe77      1.0  0.36894  0.59995  0.44561  1.0000
  S   S155      1.0  0.36007  0.63558  0.42948  1.0000
  Fe  Fe78      1.0  0.39188  0.57919  0.48016  1.0000
  C   C362      1.0  0.38435  0.90695  0.49142  1.0000
  S   S156      1.0  0.34194  0.55464  0.43717  1.0000
  S   S157      1.0  0.36601  0.53259  0.47489  1.0000
  C   C363      1.0  0.59098  0.51739  0.27521  1.0000
  H   H595      1.0  0.55025  0.49819  0.41981  1.0000
  C   C364      1.0  0.41500  0.90947  0.46781  1.0000
  H   H596      1.0  0.47839  0.51656  0.43128  1.0000
  C   C365      1.0  0.41000  0.50740  0.41797  1.0000
  C   C366      1.0  0.42517  0.53251  0.40765  1.0000
  C   C367      1.0  0.44198  0.53138  0.39385  1.0000
  H   H597      1.0  0.42378  0.55275  0.41018  1.0000
  H   H598      1.0  0.45349  0.55089  0.38586  1.0000
  N   N38       1.0  0.39387  0.92003  0.47345  1.0000
  C   C368      1.0  0.62305  0.55156  0.32807  1.0000
  C   C369      1.0  0.59667  0.52788  0.33094  1.0000
  H   H599      1.0  0.53089  0.51270  0.45418  1.0000
  C   C370      1.0  0.50020  0.52513  0.42588  1.0000
  N   N39       1.0  0.36642  0.69364  0.49469  1.0000
  H   H600      1.0  0.64748  0.55035  0.27781  1.0000
  H   H601      1.0  0.57984  0.53090  0.33738  1.0000
  C   C371      1.0  0.58874  0.55861  0.25743  1.0000
  C   C372      1.0  0.41105  0.72919  0.44545  1.0000
  C   C373      1.0  0.38472  0.72154  0.43548  1.0000
  C   C374      1.0  0.36958  0.69287  0.43027  1.0000
  C   C375      1.0  0.38021  0.67151  0.43553  1.0000
  C   C376      1.0  0.40638  0.67906  0.44565  1.0000
  C   C377      1.0  0.42205  0.70798  0.45024  1.0000
  H   H602      1.0  0.37633  0.73784  0.43144  1.0000
  H   H603      1.0  0.34952  0.68723  0.42226  1.0000
  H   H604      1.0  0.41484  0.66276  0.44960  1.0000
  H   H605      1.0  0.44259  0.71387  0.45775  1.0000
  C   C378      1.0  0.44962  0.95441  0.40568  1.0000
  C   C379      1.0  0.45491  0.93077  0.41388  1.0000
  C   C380      1.0  0.43230  0.90552  0.42025  1.0000
  C   C381      1.0  0.40391  0.90339  0.41833  1.0000
  C   C382      1.0  0.39859  0.92708  0.41020  1.0000
  C   C383      1.0  0.42128  0.95252  0.40403  1.0000
  H   H606      1.0  0.47667  0.93185  0.41519  1.0000
  H   H607      1.0  0.43681  0.88749  0.42634  1.0000
  H   H608      1.0  0.37672  0.92566  0.40852  1.0000
  H   H609      1.0  0.53851  0.52114  0.40464  1.0000
  H   H610      1.0  0.37526  0.92096  0.44656  1.0000
  C   C384      1.0  0.44401  0.50527  0.39029  1.0000
  H   H611      1.0  0.55617  0.53397  0.42608  1.0000
  S   S158      1.0  0.46607  0.50520  0.37306  1.0000
  H   H612      1.0  0.64632  0.58087  0.26430  1.0000
  H   H613      1.0  0.62835  0.57032  0.28502  1.0000
  C   C385      1.0  0.63341  0.56189  0.27298  1.0000
  C   C386      1.0  0.52748  0.98357  0.36644  1.0000
  H   H614      1.0  0.58235  0.56646  0.26922  1.0000
  H   H615      1.0  0.58565  0.52436  0.28775  1.0000
  C   C387      1.0  0.59159  0.50070  0.32465  1.0000
  H   H616      1.0  0.36803  0.91396  0.49608  1.0000
  H   H617      1.0  0.51412  0.54457  0.43337  1.0000
  C   C388      1.0  0.54061  0.51463  0.41913  1.0000
  C   C389      1.0  0.64460  0.54827  0.31898  1.0000
  H   H618      1.0  0.52759  0.97179  0.35448  1.0000
  C   C390      1.0  0.35290  0.69604  0.47667  1.0000
  H   H619      1.0  0.36676  0.65209  0.49030  1.0000
  Fe  Fe79      1.0  0.40046  0.83182  0.48336  1.0000
  H   H620      1.0  0.43349  0.91372  0.47790  1.0000
  H   H621      1.0  0.35930  0.68491  0.46665  1.0000
  H   H622      1.0  0.35937  0.71914  0.47177  1.0000
  H   H623      1.0  0.42658  0.95880  0.48388  1.0000
  H   H624      1.0  0.35236  0.91940  0.46407  1.0000
  H   H625      1.0  0.32975  0.49197  0.45077  1.0000
  H   H626      1.0  0.41468  0.96235  0.46078  1.0000
  N   N40       1.0  0.60698  0.54252  0.26322  1.0000
  C   C391      1.0  0.40742  0.95193  0.47421  1.0000
  Fe  Fe80      1.0  0.33006  0.54644  0.46577  1.0000
  C   C392      1.0  0.63990  0.52082  0.31336  1.0000
  H   H627      1.0  0.60374  0.50422  0.27938  1.0000
  C   C393      1.0  0.36879  0.91178  0.46033  1.0000
  H   H628      1.0  0.40508  0.88571  0.46618  1.0000
  H   H629      1.0  0.35809  0.88781  0.45934  1.0000
  H   H630      1.0  0.62644  0.57266  0.33255  1.0000
  H   H631      1.0  0.49779  0.53245  0.41158  1.0000
  H   H632      1.0  0.62891  0.52028  0.25124  1.0000
  H   H633      1.0  0.40444  0.73194  0.48921  1.0000
  C   C394      1.0  0.61352  0.49726  0.31610  1.0000
  S   S159      1.0  0.47912  0.98517  0.39734  1.0000
  H   H634      1.0  0.32903  0.68638  0.47675  1.0000
  H   H635      1.0  0.57769  0.97831  0.36439  1.0000
  C   C395      1.0  0.39801  0.70889  0.49419  1.0000
  H   H636      1.0  0.32876  0.49988  0.41792  1.0000
  C   C396      1.0  0.51598  0.49406  0.44637  1.0000
  H   H637      1.0  0.33533  0.65047  0.50048  1.0000
  C   C397      1.0  0.35900  0.66270  0.50000  1.0000
  H   H638      1.0  0.55873  0.94223  0.68523  1.0000
  Fe  Fe81      1.0  0.38999  0.90858  0.59248  1.0000
  S   S160      1.0  0.43594  0.94034  0.59157  1.0000
  S   S161      1.0  0.36371  0.87900  0.57057  1.0000
  Fe  Fe82      1.0  0.38424  0.92121  0.63094  1.0000
  S   S162      1.0  0.43028  0.95396  0.63317  1.0000
  S   S163      1.0  0.35777  0.91169  0.65563  1.0000
  Fe  Fe83      1.0  0.42174  0.97024  0.60517  1.0000
  Fe  Fe84      1.0  0.44074  0.92144  0.61949  1.0000
  S   S164      1.0  0.47782  0.90720  0.62553  1.0000
  S   S165      1.0  0.37492  0.93955  0.60399  1.0000
  S   S166      1.0  0.39563  0.88775  0.61937  1.0000
  Fe  Fe85      1.0  0.51789  0.81587  0.70498  1.0000
  S   S167      1.0  0.55389  0.82009  0.68814  1.0000
  S   S168      1.0  0.48667  0.83778  0.69905  1.0000
  Fe  Fe86      1.0  0.53517  0.77948  0.73431  1.0000
  S   S169      1.0  0.57233  0.78049  0.71945  1.0000
  Fe  Fe87      1.0  0.58169  0.82777  0.71400  1.0000
  H   H639      1.0  0.55660  0.90613  0.70993  1.0000
  Fe  Fe88      1.0  0.54107  0.77225  0.69509  1.0000
  S   S170      1.0  0.53880  0.74339  0.67245  1.0000
  S   S171      1.0  0.54642  0.82712  0.73035  1.0000
  S   S172      1.0  0.50323  0.76766  0.71050  1.0000
  S   S173      1.0  0.37838  0.56115  0.63244  1.0000
  S   S174      1.0  0.43907  0.58688  0.61186  1.0000
  Fe  Fe89      1.0  0.42554  0.58492  0.64009  1.0000
  S   S175      1.0  0.43907  0.61779  0.66200  1.0000
  Fe  Fe90      1.0  0.39259  0.55909  0.60502  1.0000
  S   S176      1.0  0.36436  0.56086  0.58030  1.0000
  C   C398      1.0  0.50999  0.70919  0.66928  1.0000
  C   C399      1.0  0.49150  0.69471  0.68295  1.0000
  C   C400      1.0  0.46972  0.66696  0.68031  1.0000
  C   C401      1.0  0.46587  0.65349  0.66394  1.0000
  C   C402      1.0  0.48394  0.66823  0.65009  1.0000
  C   C403      1.0  0.50613  0.69578  0.65285  1.0000
  H   H640      1.0  0.49425  0.70471  0.69565  1.0000
  H   H641      1.0  0.45582  0.65581  0.69109  1.0000
  H   H642      1.0  0.48073  0.65856  0.63725  1.0000
  H   H643      1.0  0.52017  0.70696  0.64215  1.0000
  C   C404      1.0  0.51126  0.51660  0.59324  1.0000
  C   C405      1.0  0.47915  0.88686  0.64571  1.0000
  C   C406      1.0  0.46179  0.88469  0.65975  1.0000
  C   C407      1.0  0.46410  0.86926  0.67592  1.0000
  C   C408      1.0  0.48342  0.85551  0.67811  1.0000
  C   C409      1.0  0.50024  0.85701  0.66386  1.0000
  C   C410      1.0  0.49830  0.87288  0.64778  1.0000
  H   H644      1.0  0.44689  0.89529  0.65829  1.0000
  H   H645      1.0  0.45090  0.86808  0.68685  1.0000
  H   H646      1.0  0.51475  0.84601  0.66527  1.0000
  H   H647      1.0  0.51162  0.87425  0.63690  1.0000
  N   N41       1.0  0.45404  0.52560  0.53253  1.0000
  H   H648      1.0  0.41955  0.81145  0.61827  1.0000
  C   C411      1.0  0.40545  0.58331  0.52589  1.0000
  C   C412      1.0  0.42283  0.58963  0.54190  1.0000
  C   C413      1.0  0.41044  0.58246  0.55867  1.0000
  C   C414      1.0  0.38054  0.56956  0.55949  1.0000
  C   C415      1.0  0.36312  0.56363  0.54346  1.0000
  C   C416      1.0  0.37554  0.57023  0.52669  1.0000
  H   H649      1.0  0.44596  0.60011  0.54136  1.0000
  H   H650      1.0  0.33997  0.55374  0.54399  1.0000
  H   H651      1.0  0.36197  0.56521  0.51441  1.0000
  C   C417      1.0  0.40835  0.86591  0.52340  1.0000
  C   C418      1.0  0.37903  0.84952  0.52527  1.0000
  C   C419      1.0  0.36545  0.85392  0.53972  1.0000
  C   C420      1.0  0.38110  0.87466  0.55231  1.0000
  C   C421      1.0  0.41038  0.89106  0.55035  1.0000
  C   C422      1.0  0.42398  0.88663  0.53596  1.0000
  H   H652      1.0  0.36682  0.83350  0.51561  1.0000
  H   H653      1.0  0.34276  0.84114  0.54119  1.0000
  H   H654      1.0  0.42255  0.90724  0.55986  1.0000
  H   H655      1.0  0.44664  0.89949  0.53447  1.0000
  Fe  Fe91      1.0  0.44253  0.54416  0.61968  1.0000
  C   C423      1.0  0.43267  0.83382  0.61311  1.0000
  C   C424      1.0  0.48469  0.51491  0.59854  1.0000
  C   C425      1.0  0.60758  0.93444  0.69440  1.0000
  H   H656      1.0  0.47135  0.53517  0.55971  1.0000
  H   H657      1.0  0.62052  0.92332  0.70191  1.0000
  H   H658      1.0  0.60331  0.94777  0.70406  1.0000
  H   H659      1.0  0.59938  0.88347  0.68104  1.0000
  H   H660      1.0  0.39666  0.83124  0.57227  1.0000
  H   H661      1.0  0.60060  0.90948  0.66289  1.0000
  H   H662      1.0  0.56317  0.60561  0.65839  1.0000
  H   H663      1.0  0.62121  0.94943  0.68396  1.0000
  H   H664      1.0  0.38286  0.97102  0.64331  1.0000
  N   N42       1.0  0.58051  0.91323  0.68627  1.0000
  C   C426      1.0  0.44032  0.81683  0.58544  1.0000
  H   H665      1.0  0.63439  0.82366  0.74127  1.0000
  C   C427      1.0  0.45936  0.49342  0.59163  1.0000
  H   H666      1.0  0.32351  0.51927  0.64833  1.0000
  C   C428      1.0  0.58726  0.89569  0.67383  1.0000
  H   H667      1.0  0.36525  0.70531  0.52164  1.0000
  H   H668      1.0  0.36899  0.66004  0.51350  1.0000
  H   H669      1.0  0.48728  0.50952  0.53906  1.0000
  C   C429      1.0  0.47391  0.55358  0.52464  1.0000
  H   H670      1.0  0.42554  0.84888  0.61945  1.0000
  Fe  Fe92      1.0  0.38537  0.52031  0.63893  1.0000
  C   C430      1.0  0.35575  0.70688  0.50784  1.0000
  H   H671      1.0  0.54320  0.91311  0.67031  1.0000
  H   H672      1.0  0.44668  0.86962  0.57223  1.0000
  C   C431      1.0  0.56402  0.92862  0.67628  1.0000
  H   H673      1.0  0.56732  0.87952  0.66738  1.0000
  S   S177      1.0  0.48396  0.54015  0.61362  1.0000
  H   H674      1.0  0.57614  0.94296  0.66507  1.0000
  H   H675      1.0  0.45541  0.83922  0.61810  1.0000
  H   H676      1.0  0.47717  0.55179  0.51030  1.0000
  H   H677      1.0  0.42770  0.51429  0.50793  1.0000
  C   C432      1.0  0.39947  0.82929  0.58721  1.0000
  C   C433      1.0  0.44740  0.86685  0.58716  1.0000
  H   H678      1.0  0.53101  0.53306  0.59855  1.0000
  H   H679      1.0  0.39099  0.84405  0.59267  1.0000
  H   H680      1.0  0.38552  0.80676  0.59163  1.0000
  H   H681      1.0  0.43951  0.88229  0.59232  1.0000
  C   C434      1.0  0.42578  0.51647  0.52243  1.0000
  H   H682      1.0  0.43846  0.81841  0.57046  1.0000
  N   N43       1.0  0.52151  0.60728  0.65387  1.0000
  C   C435      1.0  0.50321  0.61185  0.63855  1.0000
  C   C436      1.0  0.54873  0.60898  0.64722  1.0000
  C   C437      1.0  0.50636  0.57834  0.66264  1.0000
  C   C438      1.0  0.52753  0.62986  0.66697  1.0000
  H   H683      1.0  0.48217  0.60986  0.64303  1.0000
  H   H684      1.0  0.49871  0.59558  0.62821  1.0000
  H   H685      1.0  0.51354  0.63373  0.63182  1.0000
  H   H686      1.0  0.54463  0.59208  0.63731  1.0000
  H   H687      1.0  0.56057  0.63048  0.64038  1.0000
  H   H688      1.0  0.51985  0.57365  0.67392  1.0000
  H   H689      1.0  0.50040  0.56085  0.65291  1.0000
  H   H690      1.0  0.48613  0.57672  0.66828  1.0000
  H   H691      1.0  0.54165  0.62743  0.67863  1.0000
  H   H692      1.0  0.50729  0.62873  0.67237  1.0000
  H   H693      1.0  0.42402  0.58739  0.57094  1.0000
  S   S178      1.0  0.43169  0.54380  0.64832  1.0000
  C   C439      1.0  0.56317  0.89399  0.70064  1.0000
  H   H694      1.0  0.43880  0.49165  0.59572  1.0000
  H   H695      1.0  0.53821  0.65208  0.66070  1.0000
  C   C440      1.0  0.51251  0.49719  0.58100  1.0000
  H   H696      1.0  0.54317  0.87701  0.69494  1.0000
  H   H697      1.0  0.41606  0.53259  0.52312  1.0000
  S   S179      1.0  0.39686  0.51660  0.61101  1.0000
  H   H698      1.0  0.44220  0.54597  0.55293  1.0000
  H   H699      1.0  0.46332  0.82198  0.58964  1.0000
  N   N44       1.0  0.42994  0.83668  0.59324  1.0000
  C   C441      1.0  0.34006  0.97869  0.65758  1.0000
  S   S180      1.0  0.42600  0.86206  0.50515  1.0000
  H   H700      1.0  0.57526  0.88269  0.70880  1.0000
  H   H701      1.0  0.32343  0.51762  0.71241  1.0000
  H   H702      1.0  0.47034  0.87367  0.59210  1.0000
  H   H703      1.0  0.42770  0.79386  0.58982  1.0000
  C   C442      1.0  0.45054  0.52898  0.55156  1.0000
  C   C443      1.0  0.31994  0.89245  0.65653  1.0000
  H   H704      1.0  0.53306  0.49886  0.57690  1.0000
  H   H705      1.0  0.46533  0.57070  0.52493  1.0000
  H   H706      1.0  0.40272  0.91289  0.50168  1.0000
  H   H707      1.0  0.49535  0.56133  0.53207  1.0000
  S   S181      1.0  0.62426  0.86725  0.71679  1.0000
  S   S182      1.0  0.42177  0.59093  0.50514  1.0000
  N   N45       1.0  0.34981  0.98764  0.63913  1.0000
  H   H708      1.0  0.33173  0.52087  0.61087  1.0000
  H   H709      1.0  0.34155  0.95775  0.66221  1.0000
  H   H710      1.0  0.43514  0.50846  0.55780  1.0000
  H   H711      1.0  0.33372  0.94415  0.63031  1.0000
  H   H712      1.0  0.32169  0.89153  0.68551  1.0000
  C   C444      1.0  0.33168  0.96509  0.62668  1.0000
  C   C445      1.0  0.46594  0.50339  0.53154  1.0000
  H   H713      1.0  0.46883  0.50003  0.51741  1.0000
  H   H714      1.0  0.41033  0.49525  0.52787  1.0000
  H   H715      1.0  0.34299  0.49628  0.58680  1.0000
  H   H716      1.0  0.33190  0.69630  0.50826  1.0000
  H   H717      1.0  0.40894  0.70875  0.50772  1.0000
  H   H718      1.0  0.33801  0.97134  0.61256  1.0000
  H   H719      1.0  0.36108  0.73022  0.50421  1.0000
  C   C446      1.0  0.61061  0.84473  0.80066  1.0000
  S   S183      1.0  0.60813  0.86005  0.93892  1.0000
  C   C447      1.0  0.39550  0.69297  0.77957  1.0000
  Fe  Fe93      1.0  0.45327  0.77025  0.84362  1.0000
  S   S184      1.0  0.46689  0.73377  0.85190  1.0000
  S   S185      1.0  0.46274  0.79496  0.81670  1.0000
  Fe  Fe94      1.0  0.41895  0.76025  0.87689  1.0000
  S   S186      1.0  0.43044  0.72306  0.88755  1.0000
  S   S187      1.0  0.38916  0.77018  0.89351  1.0000
  Fe  Fe95      1.0  0.47520  0.75192  0.87944  1.0000
  S   S188      1.0  0.51512  0.75417  0.89674  1.0000
  Fe  Fe96      1.0  0.42104  0.70914  0.85914  1.0000
  S   S189      1.0  0.39297  0.66555  0.84809  1.0000
  S   S190      1.0  0.46428  0.79015  0.87071  1.0000
  S   S191      1.0  0.40686  0.74450  0.84901  1.0000
  H   H720      1.0  0.45199  0.72748  0.77864  1.0000
  C   C448      1.0  0.35995  0.77498  0.88133  1.0000
  C   C449      1.0  0.36138  0.78348  0.86304  1.0000
  H   H721      1.0  0.44022  0.81931  0.94398  1.0000
  H   H722      1.0  0.47937  0.77763  0.91388  1.0000
  H   H723      1.0  0.46817  0.84529  0.91777  1.0000
  C   C450      1.0  0.59521  0.81366  0.77549  1.0000
  H   H724      1.0  0.38051  0.78704  0.85619  1.0000
  H   H725      1.0  0.33402  0.76454  0.90432  1.0000
  H   H726      1.0  0.34036  0.79628  0.83978  1.0000
  H   H727      1.0  0.37403  0.68595  0.78523  1.0000
  H   H728      1.0  0.48508  0.82792  0.90541  1.0000
  H   H729      1.0  0.58278  0.79420  0.78403  1.0000
  C   C451      1.0  0.35994  0.64802  0.87773  1.0000
  C   C452      1.0  0.36234  0.64346  0.85981  1.0000
  C   C453      1.0  0.34019  0.62056  0.85112  1.0000
  H   H730      1.0  0.61135  0.86475  0.80643  1.0000
  H   H731      1.0  0.50991  0.81754  0.93362  1.0000
  H   H732      1.0  0.37694  0.66549  0.88457  1.0000
  H   H733      1.0  0.60174  0.86249  0.75633  1.0000
  H   H734      1.0  0.46021  0.75895  0.93319  1.0000
  C   C454      1.0  0.58489  0.83197  0.92500  1.0000
  C   C455      1.0  0.58748  0.80535  0.92511  1.0000
  C   C456      1.0  0.56628  0.78199  0.91605  1.0000
  C   C457      1.0  0.54258  0.78509  0.90645  1.0000
  C   C458      1.0  0.54074  0.81214  0.90557  1.0000
  C   C459      1.0  0.56150  0.83528  0.91508  1.0000
  H   H735      1.0  0.60512  0.80233  0.93287  1.0000
  H   H736      1.0  0.56797  0.76119  0.91679  1.0000
  H   H737      1.0  0.52310  0.81505  0.89782  1.0000
  H   H738      1.0  0.55938  0.85582  0.91486  1.0000
  C   C460      1.0  0.51158  0.76926  0.77719  1.0000
  C   C461      1.0  0.49642  0.78643  0.77124  1.0000
  C   C462      1.0  0.48189  0.79460  0.78355  1.0000
  C   C463      1.0  0.48234  0.78557  0.80179  1.0000
  C   C464      1.0  0.49797  0.76887  0.80773  1.0000
  C   C465      1.0  0.51253  0.76074  0.79547  1.0000
  C   C466      1.0  0.46612  0.82399  0.91327  1.0000
  H   H739      1.0  0.46991  0.80763  0.77887  1.0000
  H   H740      1.0  0.49910  0.76242  0.82179  1.0000
  H   H741      1.0  0.52446  0.74767  0.80016  1.0000
  H   H742      1.0  0.41851  0.79026  0.92984  1.0000
  H   H743      1.0  0.61725  0.81433  0.77484  1.0000
  C   C467      1.0  0.61151  0.86554  0.77035  1.0000
  H   H744      1.0  0.43619  0.78271  0.95024  1.0000
  H   H745      1.0  0.58475  0.81008  0.76166  1.0000
  H   H746      1.0  0.34189  0.61688  0.83727  1.0000
  H   H747      1.0  0.44665  0.81584  0.90385  1.0000
  H   H748      1.0  0.55395  0.83395  0.77034  1.0000
  C   C468      1.0  0.43867  0.79868  0.93867  1.0000
  C   C469      1.0  0.49042  0.81448  0.94070  1.0000
  H   H749      1.0  0.56562  0.85838  0.78842  1.0000
  N   N46       1.0  0.46410  0.80310  0.92867  1.0000
  H   H750      1.0  0.49376  0.83583  0.94580  1.0000
  C   C470      1.0  0.46104  0.77512  0.92198  1.0000
  H   H751      1.0  0.48952  0.79932  0.95253  1.0000
  C   C471      1.0  0.33860  0.78875  0.85376  1.0000
  C   C472      1.0  0.33594  0.62930  0.88702  1.0000
  H   H752      1.0  0.42811  0.67017  0.81553  1.0000
  H   H753      1.0  0.44655  0.69047  0.77618  1.0000
  C   C473      1.0  0.41208  0.66811  0.80400  1.0000
  H   H754      1.0  0.39418  0.67656  0.77000  1.0000
  H   H755      1.0  0.39856  0.71074  0.81342  1.0000
  H   H756      1.0  0.39057  0.65967  0.80979  1.0000
  H   H757      1.0  0.44095  0.76566  0.91331  1.0000
  C   C474      1.0  0.56610  0.83822  0.78365  1.0000
  C   C475      1.0  0.44636  0.70597  0.78595  1.0000
  H   H758      1.0  0.59938  0.82614  0.81015  1.0000
  H   H759      1.0  0.41241  0.65140  0.79525  1.0000
  H   H760      1.0  0.46390  0.70812  0.79645  1.0000
  H   H761      1.0  0.39973  0.71383  0.77168  1.0000
  H   H762      1.0  0.43663  0.72183  0.81703  1.0000
  N   N47       1.0  0.41822  0.69624  0.79398  1.0000
  N   N48       1.0  0.59585  0.84055  0.78253  1.0000
  H   H763      1.0  0.42265  0.73932  0.79931  1.0000
  C   C476      1.0  0.41897  0.71797  0.80643  1.0000
  H   H764      1.0  0.55395  0.82012  0.79316  1.0000
  H   H765      1.0  0.63439  0.86866  0.76981  1.0000
  H   H766      1.0  0.49554  0.79307  0.75715  1.0000
  S   S192      1.0  0.52953  0.75807  0.76222  1.0000
  C   C477      1.0  0.33521  0.77100  0.89015  1.0000
  H   H767      1.0  0.61150  0.88607  0.77483  1.0000
  H   H768      1.0  0.63319  0.84669  0.80030  1.0000
  H   H769      1.0  0.33457  0.63258  0.90100  1.0000
  H   H770      1.0  0.72928  0.13464  0.07907  1.0000
  Fe  Fe97      1.0  0.85837  0.04935  0.20207  1.0000
  S   S193      1.0  0.87576  0.06152  0.17459  1.0000
  N   N49       1.0  0.71200  0.47195  0.24353  1.0000
  Fe  Fe98      1.0  0.86401  0.11039  0.20889  1.0000
  S   S194      1.0  0.88296  0.12776  0.18220  1.0000
  Fe  Fe99      1.0  0.84868  0.08770  0.17101  1.0000
  S   S195      1.0  0.82537  0.09618  0.14552  1.0000
  Fe  Fe100     1.0  0.90879  0.10061  0.18768  1.0000
  S   S196      1.0  0.82765  0.07186  0.19740  1.0000
  Fe  Fe101     1.0  0.79611  0.10201  0.01964  1.0000
  C   C478      1.0  0.92117  0.14402  0.03271  1.0000
  C   C479      1.0  0.96924  0.01100  0.22617  1.0000
  Fe  Fe102     1.0  0.84561  0.11287  0.04795  1.0000
  S   S197      1.0  0.86387  0.16087  0.04226  1.0000
  S   S198      1.0  0.86843  0.09352  0.06882  1.0000
  Fe  Fe103     1.0  0.81771  0.15613  0.04217  1.0000
  S   S199      1.0  0.81250  0.18691  0.06118  1.0000
  H   H771      1.0  0.83543  0.05407  0.23342  1.0000
  S   S200      1.0  0.95388  0.11626  0.17839  1.0000
  S   S201      1.0  0.80011  0.10830  0.04949  1.0000
  S   S202      1.0  0.84012  0.10229  0.01890  1.0000
  Fe  Fe104     1.0  0.70435  0.46278  0.11061  1.0000
  S   S203      1.0  0.67876  0.26959  0.14191  1.0000
  S   S204      1.0  0.71422  0.43128  0.09522  1.0000
  S   S205      1.0  0.68947  0.45185  0.13862  1.0000
  Fe  Fe105     1.0  0.68475  0.22786  0.14297  1.0000
  S   S206      1.0  0.72582  0.24633  0.12858  1.0000
  S   S207      1.0  0.68227  0.19867  0.16792  1.0000
  S   S208      1.0  0.86211  0.14233  0.22822  1.0000
  Fe  Fe106     1.0  0.69727  0.23287  0.10337  1.0000
  S   S209      1.0  0.70265  0.20825  0.08044  1.0000
  Fe  Fe107     1.0  0.71743  0.28719  0.12542  1.0000
  S   S210      1.0  0.74883  0.33178  0.13334  1.0000
  C   C480      1.0  0.72537  0.40479  0.10600  1.0000
  C   C481      1.0  0.73932  0.40814  0.12319  1.0000
  C   C482      1.0  0.74708  0.38594  0.13141  1.0000
  C   C483      1.0  0.74027  0.36010  0.12268  1.0000
  C   C484      1.0  0.72641  0.35694  0.10552  1.0000
  C   C485      1.0  0.71940  0.37934  0.09713  1.0000
  H   H772      1.0  0.74426  0.42786  0.13005  1.0000
  H   H773      1.0  0.75800  0.38865  0.14463  1.0000
  H   H774      1.0  0.72171  0.33752  0.09847  1.0000
  H   H775      1.0  0.70898  0.37676  0.08375  1.0000
  H   H776      1.0  0.72258  0.09782  0.07491  1.0000
  H   H777      1.0  0.79167  0.15014  0.09429  1.0000
  H   H778      1.0  0.84074  0.99342  0.18011  1.0000
  H   H779      1.0  0.76551  0.16007  0.10331  1.0000
  H   H780      1.0  0.73543  0.10296  0.12482  1.0000
  H   H781      1.0  0.75661  0.12643  0.07003  1.0000
  H   H782      1.0  0.80310  0.09890  0.23113  1.0000
  H   H783      1.0  0.68127  0.39352  0.12853  1.0000
  C   C486      1.0  0.78202  0.19369  0.06564  1.0000
  C   C487      1.0  0.78396  0.21043  0.08032  1.0000
  C   C488      1.0  0.75997  0.21521  0.08501  1.0000
  C   C489      1.0  0.73380  0.20358  0.07491  1.0000
  C   C490      1.0  0.73201  0.18724  0.06005  1.0000
  C   C491      1.0  0.75596  0.18229  0.05543  1.0000
  H   H784      1.0  0.80410  0.21956  0.08821  1.0000
  H   H785      1.0  0.76171  0.22797  0.09639  1.0000
  H   H786      1.0  0.71192  0.17833  0.05207  1.0000
  H   H787      1.0  0.75421  0.16964  0.04399  1.0000
  C   C492      1.0  0.83886  0.09577  0.12467  1.0000
  C   C493      1.0  0.83424  0.11323  0.11028  1.0000
  C   C494      1.0  0.84353  0.11274  0.09321  1.0000
  C   C495      1.0  0.85754  0.09470  0.09039  1.0000
  C   C496      1.0  0.86287  0.07770  0.10488  1.0000
  C   C497      1.0  0.85354  0.07824  0.12203  1.0000
  H   H788      1.0  0.82380  0.12753  0.11241  1.0000
  H   H789      1.0  0.83997  0.12650  0.08226  1.0000
  H   H790      1.0  0.87367  0.06366  0.10276  1.0000
  H   H791      1.0  0.85705  0.06456  0.13306  1.0000
  C   C498      1.0  0.69469  0.21427  0.18887  1.0000
  C   C499      1.0  0.70350  0.19875  0.20278  1.0000
  C   C500      1.0  0.71415  0.21092  0.21953  1.0000
  C   C501      1.0  0.71560  0.23852  0.22255  1.0000
  C   C502      1.0  0.70619  0.25377  0.20877  1.0000
  C   C503      1.0  0.69593  0.24178  0.19192  1.0000
  H   H792      1.0  0.70267  0.17747  0.20047  1.0000
  H   H793      1.0  0.72169  0.19912  0.22998  1.0000
  H   H794      1.0  0.70690  0.27497  0.21114  1.0000
  H   H795      1.0  0.68876  0.25368  0.18135  1.0000
  Fe  Fe108     1.0  0.65386  0.25546  0.11568  1.0000
  S   S211      1.0  0.89345  0.08697  0.21542  1.0000
  C   C504      1.0  0.68200  0.46915  0.24416  1.0000
  N   N50       1.0  0.77916  0.28862  0.17512  1.0000
  C   C505      1.0  0.80163  0.30079  0.18962  1.0000
  C   C506      1.0  0.79218  0.29674  0.15748  1.0000
  C   C507      1.0  0.75688  0.30037  0.17568  1.0000
  C   C508      1.0  0.76597  0.25667  0.17775  1.0000
  H   H796      1.0  0.79247  0.29495  0.20312  1.0000
  H   H797      1.0  0.81193  0.32487  0.18812  1.0000
  H   H798      1.0  0.81882  0.29239  0.18957  1.0000
  H   H799      1.0  0.80889  0.28804  0.15639  1.0000
  H   H800      1.0  0.77570  0.28836  0.14625  1.0000
  H   H801      1.0  0.80224  0.32072  0.15505  1.0000
  H   H802      1.0  0.74774  0.29618  0.18911  1.0000
  H   H803      1.0  0.73882  0.29047  0.16553  1.0000
  H   H804      1.0  0.76570  0.32423  0.17266  1.0000
  H   H805      1.0  0.78189  0.24691  0.17677  1.0000
  H   H806      1.0  0.74805  0.24668  0.16752  1.0000
  H   H807      1.0  0.75688  0.24989  0.19121  1.0000
  H   H808      1.0  0.78302  0.14073  0.11743  1.0000
  N   N51       1.0  0.93018  0.15524  0.13394  1.0000
  C   C509      1.0  0.92449  0.12406  0.13630  1.0000
  C   C510      1.0  0.93796  0.20572  0.00307  1.0000
  C   C511      1.0  0.90259  0.15871  0.13092  1.0000
  C   C512      1.0  0.94773  0.16792  0.11822  1.0000
  H   H809      1.0  0.91352  0.11227  0.12404  1.0000
  H   H810      1.0  0.91051  0.11353  0.14770  1.0000
  H   H811      1.0  0.94474  0.12058  0.13928  1.0000
  Fe  Fe109     1.0  0.65264  0.46325  0.12759  1.0000
  C   C513      1.0  0.78319  0.11648  0.24887  1.0000
  H   H812      1.0  0.97754  0.99818  0.23613  1.0000
  H   H813      1.0  0.88813  0.14805  0.14210  1.0000
  H   H814      1.0  0.89086  0.14873  0.11830  1.0000
  H   H815      1.0  0.90585  0.18194  0.12985  1.0000
  H   H816      1.0  0.95239  0.19144  0.11601  1.0000
  H   H817      1.0  0.93643  0.15702  0.10570  1.0000
  H   H818      1.0  0.96868  0.16556  0.12010  1.0000
  S   S212      1.0  0.69239  0.27553  0.09896  1.0000
  N   N52       1.0  0.96974  0.00317  0.20757  1.0000
  N   N53       1.0  0.75077  0.11485  0.09820  1.0000
  C   C514      1.0  0.76258  0.09233  0.09868  1.0000
  C   C515      1.0  0.72745  0.10601  0.11077  1.0000
  C   C516      1.0  0.73927  0.11853  0.07975  1.0000
  C   C517      1.0  0.77377  0.14264  0.10358  1.0000
  H   H819      1.0  0.78006  0.09830  0.08920  1.0000
  H   H820      1.0  0.74579  0.07104  0.09478  1.0000
  H   H821      1.0  0.77173  0.08914  0.11239  1.0000
  H   H822      1.0  0.71821  0.12269  0.11078  1.0000
  H   H823      1.0  0.70958  0.08524  0.10704  1.0000
  H   H824      1.0  0.93506  0.01554  0.19756  1.0000
  H   H825      1.0  0.68636  0.36165  0.13741  1.0000
  H   H826      1.0  0.90599  0.14818  0.02242  1.0000
  S   S213      1.0  0.66630  0.47217  0.09919  1.0000
  H   H827      1.0  0.79499  0.03907  0.00943  1.0000
  H   H828      1.0  0.66634  0.44768  0.23967  1.0000
  C   C518      1.0  0.90830  0.09636  0.02184  1.0000
  H   H829      1.0  0.96632  0.15849  0.01260  1.0000
  H   H830      1.0  0.90928  0.13500  0.04512  1.0000
  H   H831      1.0  0.97026  0.13874  0.04424  1.0000
  C   C519      1.0  0.94593  0.17023  0.15023  1.0000
  C   C520      1.0  0.94848  0.13710  0.00997  1.0000
  C   C521      1.0  0.80575  0.11721  0.23880  1.0000
  H   H832      1.0  0.70336  0.44792  0.21959  1.0000
  C   C522      1.0  0.95187  0.11832  0.04052  1.0000
  C   C523      1.0  0.83185  0.14152  0.23891  1.0000
  H   H833      1.0  0.74045  0.47183  0.22378  1.0000
  H   H834      1.0  0.95787  0.12286  0.00487  1.0000
  Fe  Fe110     1.0  0.85525  0.15045  0.01309  1.0000
  S   S214      1.0  0.72867  0.25435  0.24341  1.0000
  N   N54       1.0  0.93251  0.12394  0.02625  1.0000
  H   H835      1.0  0.94705  0.00714  0.22958  1.0000
  C   C524      1.0  0.67107  0.37259  0.13632  1.0000
  H   H836      1.0  0.91600  0.08017  0.01761  1.0000
  S   S215      1.0  0.65623  0.21170  0.11802  1.0000
  H   H837      1.0  0.67795  0.48606  0.23524  1.0000
  C   C525      1.0  0.71785  0.46930  0.22484  1.0000
  H   H838      1.0  0.66244  0.33634  0.10979  1.0000
  S   S216      1.0  0.85019  0.00698  0.21798  1.0000
  H   H839      1.0  0.66238  0.15648  0.23863  1.0000
  H   H840      1.0  0.93867  0.16535  0.03581  1.0000
  H   H841      1.0  0.89392  0.09977  0.01061  1.0000
  H   H842      1.0  0.95709  0.09943  0.21639  1.0000
  H   H843      1.0  0.96673  0.16774  0.15303  1.0000
  H   H844      1.0  0.95794  0.01470  0.18069  1.0000
  H   H845      1.0  0.98308  0.03426  0.22811  1.0000
  C   C526      1.0  0.95771  0.01998  0.19485  1.0000
  S   S217      1.0  0.81046  0.14991  0.01220  1.0000
  H   H846      1.0  0.96086  0.10321  0.03616  1.0000
  H   H847      1.0  0.97035  0.04372  0.19583  1.0000
  S   S218      1.0  0.75611  0.06928  0.00542  1.0000
  H   H848      1.0  0.66847  0.37784  0.15007  1.0000
  H   H849      1.0  0.92765  0.20482  0.01532  1.0000
  H   H850      1.0  0.89488  0.08658  0.03362  1.0000
  H   H851      1.0  0.94020  0.10835  0.05294  1.0000
  C   C527      1.0  0.97568  0.09953  0.21031  1.0000
  C   C528      1.0  0.96747  0.22324  0.00165  1.0000
  C   C529      1.0  0.77544  0.02562  0.00214  1.0000
  H   H852      1.0  0.95062  0.19380  0.14899  1.0000
  H   H853      1.0  0.97976  0.23554  0.01296  1.0000
  H   H854      1.0  0.93339  0.16107  0.16236  1.0000
  C   C530      1.0  0.82357  0.04619  0.24587  1.0000
  H   H855      1.0  0.65810  0.36858  0.10084  1.0000
  H   H856      1.0  0.87753  0.04895  0.24950  1.0000
  H   H857      1.0  0.81221  0.02222  0.24514  1.0000
  H   H858      1.0  0.67412  0.20691  0.24631  1.0000
  H   H859      1.0  0.71456  0.48630  0.21561  1.0000
  C   C531      1.0  0.97927  0.10705  0.19199  1.0000
  H   H860      1.0  0.80709  0.05557  0.24555  1.0000
  C   C532      1.0  0.83468  0.16543  0.24864  1.0000
  H   H861      1.0  0.87093  0.09521  0.24987  1.0000
  H   H862      1.0  0.85479  0.18431  0.24885  1.0000
  H   H863      1.0  0.76331  0.09734  0.24904  1.0000
  Fe  Fe111     1.0  0.84242  0.42469  0.39706  1.0000
  S   S219      1.0  0.87206  0.40403  0.39053  1.0000
  S   S220      1.0  0.81335  0.40346  0.41989  1.0000
  C   C533      1.0  0.80595  0.48742  0.33761  1.0000
  S   S221      1.0  0.89551  0.45524  0.35951  1.0000
  Fe  Fe112     1.0  0.85920  0.41101  0.36160  1.0000
  S   S222      1.0  0.85065  0.38357  0.33709  1.0000
  Fe  Fe113     1.0  0.90581  0.44985  0.38912  1.0000
  S   S223      1.0  0.82669  0.42808  0.36824  1.0000
  C   C534      1.0  0.84080  0.44211  0.28949  1.0000
  Fe  Fe114     1.0  0.74840  0.17474  0.28144  1.0000
  S   S224      1.0  0.77404  0.22319  0.27956  1.0000
  S   S225      1.0  0.75788  0.13745  0.27226  1.0000
  Fe  Fe115     1.0  0.69474  0.18051  0.29464  1.0000
  S   S226      1.0  0.71631  0.22906  0.29317  1.0000
  C   C535      1.0  0.68926  0.22383  0.36958  1.0000
  Fe  Fe116     1.0  0.73281  0.22495  0.26704  1.0000
  Fe  Fe117     1.0  0.75542  0.22353  0.30597  1.0000
  S   S227      1.0  0.77548  0.24769  0.33154  1.0000
  S   S228      1.0  0.70841  0.17694  0.26742  1.0000
  S   S229      1.0  0.73279  0.17460  0.30897  1.0000
  S   S230      1.0  0.94883  0.45527  0.40415  1.0000
  H   H864      1.0  0.79928  0.38690  0.45645  1.0000
  H   H865      1.0  0.90385  0.46641  0.47602  1.0000
  C   C536      1.0  0.89135  0.42706  0.43893  1.0000
  H   H866      1.0  0.75220  0.45508  0.47091  1.0000
  C   C537      1.0  0.86479  0.04121  0.26169  1.0000
  H   H867      1.0  0.66690  0.13978  0.33344  1.0000
  H   H868      1.0  0.67827  0.23861  0.37115  1.0000
  C   C538      1.0  0.85847  0.08621  0.26207  1.0000
  N   N55       1.0  0.84347  0.05428  0.26200  1.0000
  H   H869      1.0  0.71936  0.25352  0.32999  1.0000
  H   H870      1.0  0.85461  0.45112  0.27787  1.0000
  H   H871      1.0  0.73526  0.43697  0.43139  1.0000
  H   H872      1.0  0.71607  0.44355  0.47760  1.0000
  H   H873      1.0  0.68613  0.42160  0.44115  1.0000
  N   N56       1.0  0.72143  0.41786  0.45758  1.0000
  C   C539      1.0  0.71642  0.44903  0.25539  1.0000
  C   C540      1.0  0.82849  0.34599  0.33584  1.0000
  C   C541      1.0  0.81850  0.32808  0.35120  1.0000
  C   C542      1.0  0.80219  0.29809  0.34963  1.0000
  C   C543      1.0  0.79529  0.28574  0.33270  1.0000
  C   C544      1.0  0.80466  0.30377  0.31730  1.0000
  C   C545      1.0  0.82137  0.33367  0.31890  1.0000
  H   H874      1.0  0.82395  0.33720  0.36432  1.0000
  H   H875      1.0  0.79525  0.28435  0.36164  1.0000
  H   H876      1.0  0.79964  0.29456  0.30421  1.0000
  H   H877      1.0  0.82909  0.34726  0.30694  1.0000
  C   C546      1.0  0.81531  0.42433  0.43816  1.0000
  C   C547      1.0  0.82481  0.45452  0.43625  1.0000
  C   C548      1.0  0.82443  0.47038  0.45085  1.0000
  C   C549      1.0  0.81490  0.45617  0.46745  1.0000
  C   C550      1.0  0.80656  0.42613  0.46951  1.0000
  C   C551      1.0  0.80645  0.41024  0.45486  1.0000
  H   H878      1.0  0.83144  0.46555  0.42336  1.0000
  H   H879      1.0  0.81074  0.05304  0.27885  1.0000
  H   H880      1.0  0.79953  0.41497  0.48226  1.0000
  H   H881      1.0  0.73888  0.45060  0.25522  1.0000
  H   H882      1.0  0.73515  0.26117  0.35226  1.0000
  C   C552      1.0  0.73932  0.42223  0.44212  1.0000
  H   H883      1.0  0.87069  0.44936  0.46303  1.0000
  H   H884      1.0  0.65585  0.19531  0.26668  1.0000
  H   H885      1.0  0.71459  0.20275  0.33507  1.0000
  H   H886      1.0  0.94954  0.46750  0.46513  1.0000
  H   H887      1.0  0.70410  0.26877  0.34512  1.0000
  C   C553      1.0  0.70982  0.20357  0.34922  1.0000
  H   H888      1.0  0.84134  0.04920  0.29075  1.0000
  H   H889      1.0  0.85414  0.01714  0.26124  1.0000
  H   H890      1.0  0.81447  0.18343  0.26589  1.0000
  H   H891      1.0  0.87382  0.09323  0.27399  1.0000
  H   H892      1.0  0.92450  0.48149  0.42846  1.0000
  H   H893      1.0  0.88600  0.40551  0.44610  1.0000
  C   C554      1.0  0.65278  0.19982  0.25202  1.0000
  H   H894      1.0  0.81202  0.44713  0.31698  1.0000
  N   N57       1.0  0.69530  0.22347  0.35061  1.0000
  C   C555      1.0  0.66801  0.21339  0.33941  1.0000
  H   H895      1.0  0.88054  0.43827  0.31518  1.0000
  H   H896      1.0  0.67172  0.21177  0.32511  1.0000
  S   S231      1.0  0.81196  0.47613  0.48496  1.0000
  H   H897      1.0  0.81528  0.01947  0.27861  1.0000
  H   H898      1.0  0.84305  0.09684  0.26222  1.0000
  H   H899      1.0  0.90332  0.42751  0.42705  1.0000
  C   C556      1.0  0.78608  0.14035  0.25868  1.0000
  H   H900      1.0  0.73082  0.21078  0.35720  1.0000
  C   C557      1.0  0.88168  0.46036  0.31077  1.0000
  H   H901      1.0  0.76460  0.46741  0.32337  1.0000
  C   C558      1.0  0.69074  0.40637  0.45128  1.0000
  H   H902      1.0  0.67513  0.20180  0.37483  1.0000
  H   H903      1.0  0.65291  0.19151  0.34421  1.0000
  H   H904      1.0  0.69636  0.18107  0.35401  1.0000
  H   H905      1.0  0.81890  0.44106  0.28522  1.0000
  C   C559      1.0  0.72647  0.39697  0.47102  1.0000
  H   H906      1.0  0.72595  0.46232  0.45613  1.0000
  Fe  Fe118     1.0  0.86337  0.47177  0.36765  1.0000
  C   C560      1.0  0.82698  0.04348  0.27829  1.0000
  C   C561      1.0  0.93616  0.44962  0.45627  1.0000
  S   S232      1.0  0.87654  0.46990  0.39722  1.0000
  C   C562      1.0  0.81183  0.16502  0.25829  1.0000
  H   H907      1.0  0.65686  0.22836  0.33963  1.0000
  H   H908      1.0  0.88018  0.04665  0.27368  1.0000
  H   H909      1.0  0.80353  0.46822  0.34601  1.0000
  C   C563      1.0  0.83371  0.44702  0.32031  1.0000
  H   H910      1.0  0.94871  0.45150  0.44435  1.0000
  N   N58       1.0  0.90813  0.45108  0.45076  1.0000
  H   H911      1.0  0.67663  0.40284  0.46262  1.0000
  H   H912      1.0  0.70948  0.23134  0.37835  1.0000
  H   H913      1.0  0.76258  0.43222  0.44623  1.0000
  H   H914      1.0  0.72207  0.37589  0.46513  1.0000
  H   H915      1.0  0.83899  0.41942  0.29252  1.0000
  H   H916      1.0  0.93333  0.42868  0.46364  1.0000
  H   H917      1.0  0.71263  0.45093  0.26965  1.0000
  H   H918      1.0  0.68428  0.38522  0.44493  1.0000
  H   H919      1.0  0.84283  0.45911  0.33273  1.0000
  C   C564      1.0  0.97879  0.48691  0.41088  1.0000
  C   C565      1.0  0.71418  0.25304  0.34424  1.0000
  H   H920      1.0  0.73532  0.40138  0.43602  1.0000
  N   N59       1.0  0.85283  0.45985  0.30536  1.0000
  H   H921      1.0  0.88789  0.42761  0.47460  1.0000
  C   C566      1.0  0.89201  0.44851  0.46683  1.0000
  H   H922      1.0  0.83054  0.42413  0.32359  1.0000
  H   H923      1.0  0.74909  0.40543  0.47667  1.0000
  H   H924      1.0  0.89182  0.47463  0.32223  1.0000
  C   C567      1.0  0.91296  0.47911  0.44091  1.0000
  C   C568      1.0  0.72917  0.44590  0.46591  1.0000
  H   H925      1.0  0.87081  0.42838  0.43372  1.0000
  H   H926      1.0  0.89224  0.48115  0.43681  1.0000
  H   H927      1.0  0.89640  0.46865  0.29956  1.0000
  H   H928      1.0  0.71258  0.39233  0.48259  1.0000
  H   H929      1.0  0.67709  0.47174  0.25802  1.0000
  C   C569      1.0  0.78383  0.48705  0.32483  1.0000
  H   H930      1.0  0.70164  0.42701  0.25123  1.0000
  H   H931      1.0  0.83071  0.46747  0.62042  1.0000
  S   S233      1.0  0.80067  0.41165  0.52067  1.0000
  Fe  Fe119     1.0  0.75648  0.44762  0.54180  1.0000
  S   S234      1.0  0.76144  0.40771  0.55405  1.0000
  Fe  Fe120     1.0  0.79335  0.45130  0.51059  1.0000
  Fe  Fe121     1.0  0.80823  0.43116  0.54777  1.0000
  S   S235      1.0  0.84384  0.43259  0.56895  1.0000
  Fe  Fe122     1.0  0.75341  0.39275  0.52586  1.0000
  S   S236      1.0  0.71962  0.35263  0.51348  1.0000
  H   H932      1.0  0.68640  0.40705  0.54216  1.0000
  S   S237      1.0  0.74582  0.43152  0.51401  1.0000
  C   C570      1.0  0.67322  0.47583  0.51930  1.0000
  H   H933      1.0  0.67899  0.38036  0.52576  1.0000
  C   C571      1.0  0.65214  0.27675  0.54415  1.0000
  H   H934      1.0  0.89189  0.44254  0.59474  1.0000
  N   N60       1.0  0.81782  0.48667  0.59634  1.0000
  S   S238      1.0  0.80354  0.47206  0.53736  1.0000
  H   H935      1.0  0.71442  0.33639  0.55198  1.0000
  C   C572      1.0  0.89756  0.46132  0.58547  1.0000
  S   S239      1.0  0.72886  0.46190  0.55754  1.0000
  H   H936      1.0  0.67606  0.45838  0.57068  1.0000
  C   C573      1.0  0.87811  0.46194  0.57102  1.0000
  H   H937      1.0  0.67763  0.29482  0.56821  1.0000
  C   C574      1.0  0.67057  0.30341  0.51628  1.0000
  C   C575      1.0  0.69395  0.32390  0.52577  1.0000
  C   C576      1.0  0.69631  0.32088  0.54455  1.0000
  C   C577      1.0  0.67552  0.29726  0.55371  1.0000
  C   C578      1.0  0.67519  0.46287  0.55629  1.0000
  H   H938      1.0  0.77655  0.46434  0.58267  1.0000
  C   C579      1.0  0.67525  0.38352  0.53976  1.0000
  C   C580      1.0  0.79315  0.45969  0.59149  1.0000
  H   H939      1.0  0.78258  0.44690  0.60360  1.0000
  H   H940      1.0  0.96186  0.00250  0.74865  1.0000
  H   H941      1.0  0.68607  0.37206  0.54897  1.0000
  H   H942      1.0  0.66871  0.30544  0.50174  1.0000
  C   C581      1.0  0.69846  0.46570  0.54633  1.0000
  H   H943      1.0  0.65263  0.18521  0.59828  1.0000
  C   C582      1.0  0.69719  0.47166  0.52774  1.0000
  H   H944      1.0  0.80006  0.44548  0.58406  1.0000
  H   H945      1.0  0.67275  0.48146  0.50503  1.0000
  H   H946      1.0  0.71513  0.47417  0.51998  1.0000
  H   H947      1.0  0.93897  0.48419  0.59934  1.0000
  C   C583      1.0  0.88582  0.48634  0.55912  1.0000
  C   C584      1.0  0.92429  0.48492  0.58813  1.0000
  H   H948      1.0  0.84702  0.46524  0.60058  1.0000
  C   C585      1.0  0.83954  0.47937  0.60765  1.0000
  H   H949      1.0  0.87121  0.48712  0.54788  1.0000
  C   C586      1.0  0.65079  0.46603  0.54774  1.0000
  H   H950      1.0  0.95883  0.05116  0.75000  1.0000
  H   H951      1.0  0.89813  0.05501  0.75025  1.0000
  C   C587      1.0  0.76565  0.03834  0.91800  1.0000
  H   H952      1.0  0.76415  0.00999  0.95021  1.0000
  C   C588      1.0  0.90175  0.06105  0.80182  1.0000
  H   H953      1.0  0.92366  0.00842  0.76494  1.0000
  S   S240      1.0  0.94594  0.11479  0.80205  1.0000
  N   N61       1.0  0.74824  0.00742  0.92243  1.0000
  C   C589      1.0  0.74349  0.00332  0.94189  1.0000
  H   H954      1.0  0.96856  0.15666  0.87800  1.0000
  C   C590      1.0  0.93544  0.19186  0.97252  1.0000
  S   S241      1.0  0.85320  0.00391  0.76443  1.0000
  H   H955      1.0  0.72292  0.00053  0.89728  1.0000
  H   H956      1.0  0.92310  0.17974  0.96115  1.0000
  C   C591      1.0  0.96699  0.16306  0.84217  1.0000
  H   H957      1.0  0.78952  0.99109  0.99958  1.0000
  H   H958      1.0  0.95868  0.15617  0.82828  1.0000
  H   H959      1.0  0.71043  0.02460  0.98633  1.0000
  C   C592      1.0  0.87952  0.03414  0.77512  1.0000
  C   C593      1.0  0.89934  0.05650  0.76469  1.0000
  C   C594      1.0  0.92038  0.08100  0.77281  1.0000
  C   C595      1.0  0.92144  0.08348  0.79140  1.0000
  H   H960      1.0  0.92909  0.11800  0.86061  1.0000
  C   C596      1.0  0.88107  0.03632  0.79376  1.0000
  C   C597      1.0  0.72783  0.01740  0.98909  1.0000
  H   H961      1.0  0.93512  0.09838  0.76462  1.0000
  C   C598      1.0  0.72021  0.99835  0.91205  1.0000
  H   H962      1.0  0.86585  0.01928  0.80190  1.0000
  H   H963      1.0  0.93302  0.02592  0.78591  1.0000
  C   C599      1.0  0.92179  0.18987  0.98849  1.0000
  H   H964      1.0  0.94959  0.09581  0.86224  1.0000
  N   N62       1.0  0.96909  0.02674  0.77240  1.0000
  H   H965      1.0  0.75466  0.05234  0.92138  1.0000
  H   H966      1.0  0.98348  0.04684  0.79780  1.0000
  C   C600      1.0  0.77223  0.99836  0.99656  1.0000
  H   H967      1.0  0.93413  0.14099  0.99888  1.0000
  H   H968      1.0  0.90224  0.06289  0.81619  1.0000
  S   S242      1.0  0.88481  0.16667  0.98955  1.0000
  H   H969      1.0  0.97508  0.21066  0.95871  1.0000
  C   C601      1.0  0.97593  0.00763  0.76125  1.0000
  C   C602      1.0  0.94597  0.11375  0.85426  1.0000
  H   H970      1.0  0.93707  0.10578  0.84062  1.0000
  C   C603      1.0  0.96493  0.20935  0.97110  1.0000
  H   H971      1.0  0.70800  0.01135  0.91508  1.0000
  H   H972      1.0  0.93423  0.99099  0.78436  1.0000
  H   H973      1.0  0.95073  0.16878  0.84813  1.0000
  H   H974      1.0  0.76965  0.04219  0.90340  1.0000
  C   C604      1.0  0.98110  0.22515  0.98567  1.0000
  C   C605      1.0  0.93872  0.01238  0.77714  1.0000
  H   H975      1.0  0.76701  0.99164  0.90315  1.0000
  H   H976      1.0  0.78491  0.99592  0.92531  1.0000
  H   H977      1.0  0.97004  0.06992  0.77059  1.0000
  H   H978      1.0  0.73176  0.01622  0.94593  1.0000
  N   N63       1.0  0.97285  0.14011  0.85316  1.0000
  C   C606      1.0  0.75321  0.03528  0.99847  1.0000
  H   H979      1.0  0.78692  0.04590  0.92566  1.0000
  C   C607      1.0  0.97367  0.05447  0.76224  1.0000
  C   C608      1.0  0.72463  0.99013  0.98347  1.0000
  C   C609      1.0  0.76358  0.98964  0.91782  1.0000
  H   H980      1.0  0.98304  0.31295  0.96443  1.0000
  C   C610      1.0  0.98384  0.15025  0.87143  1.0000
  H   H981      1.0  0.83638  0.88406  0.13945  1.0000
  Fe  Fe123     1.0  0.84628  0.80932  0.21754  1.0000
  S   S243      1.0  0.83298  0.81509  0.18848  1.0000
  H   H982      1.0  0.77285  0.82872  0.11540  1.0000
  Fe  Fe124     1.0  0.90651  0.85769  0.21263  1.0000
  S   S244      1.0  0.89724  0.86560  0.18330  1.0000
  Fe  Fe125     1.0  0.85516  0.86309  0.19209  1.0000
  S   S245      1.0  0.83870  0.89547  0.17809  1.0000
  Fe  Fe126     1.0  0.87618  0.81721  0.18262  1.0000
  S   S246      1.0  0.88129  0.78941  0.16205  1.0000
  S   S247      1.0  0.86525  0.85765  0.22163  1.0000
  S   S248      1.0  0.88863  0.80895  0.21144  1.0000
  Fe  Fe127     1.0  0.85058  0.75970  0.02662  1.0000
  S   S249      1.0  0.83685  0.79587  0.03103  1.0000
  N   N64       1.0  0.76560  0.88065  0.00808  1.0000
  Fe  Fe128     1.0  0.80949  0.71709  0.05376  1.0000
  S   S250      1.0  0.79284  0.75004  0.06066  1.0000
  S   S251      1.0  0.80387  0.67225  0.06649  1.0000
  Fe  Fe129     1.0  0.79185  0.76151  0.03080  1.0000
  C   C611      1.0  0.79377  0.90551  0.00891  1.0000
  Fe  Fe130     1.0  0.83854  0.78253  0.06046  1.0000
  S   S252      1.0  0.85747  0.81876  0.07985  1.0000
  S   S253      1.0  0.80501  0.72600  0.02385  1.0000
  S   S254      1.0  0.85576  0.74917  0.05615  1.0000
  H   H983      1.0  0.95466  0.82427  0.22180  1.0000
  S   S255      1.0  0.67547  0.51024  0.13419  1.0000
  H   H984      1.0  0.84411  0.70025  0.03475  1.0000
  Fe  Fe131     1.0  0.69316  0.51846  0.10666  1.0000
  S   S256      1.0  0.69465  0.56015  0.09115  1.0000
  S   S257      1.0  0.73221  0.50955  0.11570  1.0000
  C   C612      1.0  0.84355  0.97561  0.18787  1.0000
  S   S258      1.0  0.88471  0.75726  0.00950  1.0000
  C   C613      1.0  0.73180  0.50056  0.24985  1.0000
  H   H985      1.0  0.71296  0.56543  0.15621  1.0000
  C   C614      1.0  0.79501  0.84528  0.11808  1.0000
  S   S259      1.0  0.94993  0.88400  0.22636  1.0000
  H   H986      1.0  0.85058  0.86331  0.12788  1.0000
  H   H987      1.0  0.95287  0.96491  0.19216  1.0000
  H   H988      1.0  0.79395  0.86699  0.11711  1.0000
  C   C615      1.0  0.77294  0.64123  0.07279  1.0000
  C   C616      1.0  0.77660  0.61612  0.07990  1.0000
  C   C617      1.0  0.75290  0.59097  0.08518  1.0000
  C   C618      1.0  0.72513  0.59064  0.08359  1.0000
  C   C619      1.0  0.72146  0.61571  0.07643  1.0000
  C   C620      1.0  0.74518  0.64086  0.07107  1.0000
  H   H989      1.0  0.79792  0.61605  0.08124  1.0000
  H   H990      1.0  0.75611  0.57179  0.09041  1.0000
  H   H991      1.0  0.70011  0.61574  0.07508  1.0000
  H   H992      1.0  0.74194  0.65993  0.06560  1.0000
  C   C621      1.0  0.87521  0.79775  0.13917  1.0000
  C   C622      1.0  0.86315  0.77530  0.12717  1.0000
  C   C623      1.0  0.85785  0.78144  0.10885  1.0000
  C   C624      1.0  0.86519  0.81017  0.10242  1.0000
  C   C625      1.0  0.87807  0.83266  0.11433  1.0000
  C   C626      1.0  0.88274  0.82649  0.13271  1.0000
  H   H993      1.0  0.85753  0.75304  0.13208  1.0000
  H   H994      1.0  0.84801  0.76399  0.09973  1.0000
  H   H995      1.0  0.88427  0.85493  0.10929  1.0000
  H   H996      1.0  0.89259  0.84394  0.14182  1.0000
  C   C627      1.0  0.84382  0.92709  0.18921  1.0000
  C   C628      1.0  0.84996  0.92883  0.20781  1.0000
  C   C629      1.0  0.85215  0.95354  0.21645  1.0000
  H   H997      1.0  0.84427  0.64728  0.05653  1.0000
  H   H998      1.0  0.95654  0.90248  0.18823  1.0000
  C   C630      1.0  0.84077  0.95064  0.17927  1.0000
  C   C631      1.0  0.78918  0.84054  0.15010  1.0000
  H   H999      1.0  0.73598  0.56991  0.12058  1.0000
  C   C632      1.0  0.78141  0.71770  0.24433  1.0000
  H   H1000     1.0  0.83596  0.94948  0.16490  1.0000
  C   C633      1.0  0.72544  0.52818  0.18442  1.0000
  C   C634      1.0  0.69551  0.51739  0.18503  1.0000
  C   C635      1.0  0.68317  0.52399  0.19930  1.0000
  C   C636      1.0  0.70067  0.54142  0.21298  1.0000
  C   C637      1.0  0.73056  0.55295  0.21203  1.0000
  C   C638      1.0  0.74290  0.54612  0.19789  1.0000
  S   S260      1.0  0.74165  0.51905  0.16735  1.0000
  Fe  Fe132     1.0  0.71326  0.49936  0.14285  1.0000
  H   H1001     1.0  0.74423  0.56690  0.22230  1.0000
  H   H1002     1.0  0.76607  0.55468  0.19742  1.0000
  H   H1003     1.0  0.78813  0.86220  0.15018  1.0000
  N   N65       1.0  0.74218  0.60076  0.14039  1.0000
  C   C639      1.0  0.74111  0.62406  0.12740  1.0000
  C   C640      1.0  0.71316  0.58386  0.14688  1.0000
  C   C641      1.0  0.76248  0.61349  0.15580  1.0000
  C   C642      1.0  0.75186  0.58141  0.13144  1.0000
  H   H1004     1.0  0.76232  0.63654  0.12155  1.0000
  H   H1005     1.0  0.73468  0.63960  0.13378  1.0000
  H   H1006     1.0  0.72522  0.61500  0.11594  1.0000
  H   H1007     1.0  0.70541  0.59750  0.15417  1.0000
  H   H1008     1.0  0.69720  0.57457  0.13547  1.0000
  H   H1009     1.0  0.76355  0.59626  0.16581  1.0000
  H   H1010     1.0  0.75590  0.62825  0.16292  1.0000
  H   H1011     1.0  0.78462  0.62621  0.15135  1.0000
  H   H1012     1.0  0.75446  0.56451  0.14102  1.0000
  H   H1013     1.0  0.77282  0.59360  0.12529  1.0000
  H   H1014     1.0  0.76683  0.82393  0.14840  1.0000
  H   H1015     1.0  0.80825  0.84466  0.10706  1.0000
  H   H1016     1.0  0.79802  0.83659  0.16371  1.0000
  C   C643      1.0  0.95230  0.97183  0.20587  1.0000
  N   N66       1.0  0.80734  0.83965  0.13589  1.0000
  C   C644      1.0  0.83666  0.86216  0.13883  1.0000
  H   H1017     1.0  0.85211  0.91077  0.21563  1.0000
  H   H1018     1.0  0.68186  0.50338  0.17475  1.0000
  H   H1019     1.0  0.84719  0.85785  0.15177  1.0000
  H   H1020     1.0  0.85609  0.95433  0.23090  1.0000
  H   H1021     1.0  0.94161  0.79267  0.20868  1.0000
  H   H1022     1.0  0.96036  0.95857  0.21562  1.0000
  C   C645      1.0  0.95469  0.84019  0.18667  1.0000
  N   N67       1.0  0.86846  0.67421  0.03486  1.0000
  H   H1023     1.0  0.78667  0.79311  0.13527  1.0000
  S   S261      1.0  0.68468  0.54675  0.23166  1.0000
  C   C646      1.0  0.80853  0.81074  0.13649  1.0000
  H   H1024     1.0  0.81935  0.80634  0.14928  1.0000
  C   C647      1.0  0.89598  0.69945  0.03248  1.0000
  H   H1025     1.0  0.92934  0.96609  0.20847  1.0000
  C   C648      1.0  0.86512  0.66591  0.05423  1.0000
  N   N68       1.0  0.97519  0.82990  0.19694  1.0000
  H   H1026     1.0  0.79213  0.92551  0.00237  1.0000
  S   S262      1.0  0.81026  0.77487  0.23320  1.0000
  H   H1027     1.0  0.97610  0.80352  0.22089  1.0000
  H   H1028     1.0  0.84646  0.68915  0.01304  1.0000
  H   H1029     1.0  0.78335  0.84811  0.00983  1.0000
  C   C649      1.0  0.84447  0.68202  0.02754  1.0000
  C   C650      1.0  0.84882  0.97696  0.20654  1.0000
  H   H1030     1.0  0.93524  0.82181  0.18152  1.0000
  S   S263      1.0  0.75224  0.76941  0.02003  1.0000
  H   H1031     1.0  0.66001  0.51507  0.19988  1.0000
  H   H1032     1.0  0.82320  0.66367  0.02913  1.0000
  H   H1033     1.0  0.75148  0.89154  0.03177  1.0000
  H   H1034     1.0  0.96450  0.85475  0.17491  1.0000
  C   C651      1.0  0.76849  0.85454  0.01688  1.0000
  H   H1035     1.0  0.89656  0.71857  0.03936  1.0000
  C   C652      1.0  0.74458  0.88735  0.01736  1.0000
  H   H1036     1.0  0.88599  0.64312  0.03033  1.0000
  H   H1037     1.0  0.96450  0.79364  0.18033  1.0000
  H   H1038     1.0  0.80216  0.91026  0.02307  1.0000
  H   H1039     1.0  0.72886  0.51840  0.24146  1.0000
  H   H1040     1.0  0.86516  0.68409  0.06186  1.0000
  H   H1041     1.0  0.88272  0.65973  0.06029  1.0000
  H   H1042     1.0  0.70501  0.78099  0.00357  1.0000
  H   H1043     1.0  0.87044  0.65525  0.01051  1.0000
  C   C653      1.0  0.96132  0.81173  0.21277  1.0000
  H   H1044     1.0  0.94725  0.85247  0.19528  1.0000
  H   H1045     1.0  0.82072  0.80882  0.12532  1.0000
  H   H1046     1.0  0.91468  0.69463  0.03800  1.0000
  H   H1047     1.0  0.74186  0.90693  0.01102  1.0000
  H   H1048     1.0  0.89913  0.70640  0.01801  1.0000
  C   C654      1.0  0.80851  0.74054  0.24230  1.0000
  H   H1049     1.0  0.74743  0.83557  0.01692  1.0000
  H   H1050     1.0  0.77692  0.85798  0.03112  1.0000
  C   C655      1.0  0.97739  0.91199  0.21466  1.0000
  H   H1051     1.0  0.89757  0.81946  0.00632  1.0000
  C   C656      1.0  0.86814  0.64960  0.02518  1.0000
  H   H1052     1.0  0.72299  0.86912  0.01680  1.0000
  H   H1053     1.0  0.81002  0.90116  0.00191  1.0000
  H   H1054     1.0  0.84754  0.63031  0.02673  1.0000
  C   C657      1.0  0.97556  0.91577  0.19591  1.0000
  H   H1055     1.0  0.85411  0.75359  0.24756  1.0000
  H   H1056     1.0  0.76223  0.72091  0.23936  1.0000
  C   C658      1.0  0.83315  0.73615  0.24884  1.0000
  H   H1057     1.0  0.75473  0.50372  0.24964  1.0000
  C   C659      1.0  0.98362  0.81260  0.18527  1.0000
  H   H1058     1.0  0.79559  0.66547  0.33109  1.0000
  H   H1059     1.0  0.74710  0.70472  0.32368  1.0000
  S   S264      1.0  0.75963  0.50946  0.29668  1.0000
  S   S265      1.0  0.71631  0.60406  0.26911  1.0000
  Fe  Fe133     1.0  0.74866  0.54807  0.28742  1.0000
  S   S266      1.0  0.75429  0.58695  0.30255  1.0000
  S   S267      1.0  0.76070  0.57334  0.26104  1.0000
  Fe  Fe134     1.0  0.70746  0.57611  0.29477  1.0000
  C   C660      1.0  0.83059  0.70959  0.25782  1.0000
  Fe  Fe135     1.0  0.76272  0.61177  0.27557  1.0000
  S   S268      1.0  0.80138  0.65496  0.27293  1.0000
  S   S269      1.0  0.70123  0.53574  0.28143  1.0000
  C   C661      1.0  0.98106  0.51484  0.40530  1.0000
  H   H1060     1.0  0.84975  0.70680  0.26332  1.0000
  H   H1061     1.0  0.74336  0.64388  0.33721  1.0000
  S   S270      1.0  0.86157  0.51223  0.35283  1.0000
  H   H1062     1.0  0.75790  0.67353  0.25418  1.0000
  H   H1063     1.0  0.80695  0.68661  0.31040  1.0000
  S   S271      1.0  0.67613  0.57920  0.31367  1.0000
  H   H1064     1.0  0.78600  0.64859  0.30991  1.0000
  C   C662      1.0  0.73840  0.64851  0.32280  1.0000
  H   H1065     1.0  0.77226  0.69752  0.28959  1.0000
  H   H1066     1.0  0.75162  0.65942  0.28810  1.0000
  C   C663      1.0  0.83139  0.51230  0.33912  1.0000
  H   H1067     1.0  0.77232  0.69711  0.33936  1.0000
  C   C664      1.0  0.78884  0.66845  0.31678  1.0000
  C   C665      1.0  0.78640  0.51192  0.31398  1.0000
  C   C666      1.0  0.81121  0.53729  0.31612  1.0000
  C   C667      1.0  0.83371  0.53738  0.32854  1.0000
  N   N69       1.0  0.76217  0.67383  0.31507  1.0000
  H   H1068     1.0  0.73465  0.68242  0.29394  1.0000
  H   H1069     1.0  0.81350  0.55656  0.30779  1.0000
  H   H1070     1.0  0.85323  0.55681  0.32971  1.0000
  C   C668      1.0  0.76674  0.69991  0.32479  1.0000
  H   H1071     1.0  0.78461  0.71936  0.31926  1.0000
  H   H1072     1.0  0.73405  0.62857  0.31557  1.0000
  H   H1073     1.0  0.71792  0.65179  0.32186  1.0000
  C   C669      1.0  0.75478  0.67854  0.29586  1.0000
  H   H1074     1.0  0.65639  0.51772  0.30670  1.0000
  H   H1075     1.0  0.96409  0.51768  0.39666  1.0000
  H   H1076     1.0  0.72792  0.50322  0.26388  1.0000
  Fe  Fe136     1.0  0.71370  0.56410  0.25635  1.0000
  C   C670      1.0  0.80348  0.68685  0.25995  1.0000
  H   H1077     1.0  0.83090  0.49363  0.44915  1.0000
  C   C671      1.0  0.77890  0.69082  0.25280  1.0000
  H   H1078     1.0  0.86460  0.50371  0.31275  1.0000
  H   H1079     1.0  0.92611  0.49777  0.44926  1.0000
  H   H1080     1.0  0.86891  0.50013  0.28958  1.0000
  H   H1081     1.0  0.83356  0.49041  0.29753  1.0000
  C   C672      1.0  0.85507  0.48980  0.30103  1.0000
  S   S272      1.0  0.96463  0.54033  0.57915  1.0000
  H   H1082     1.0  0.73517  0.84135  0.74415  1.0000
  H   H1083     1.0  0.76492  0.80590  0.72956  1.0000
  H   H1084     1.0  0.79123  0.51035  0.59812  1.0000
  H   H1085     1.0  0.85892  0.49914  0.61111  1.0000
  H   H1086     1.0  0.67754  0.91427  0.72679  1.0000
  H   H1087     1.0  0.97255  0.55485  0.53991  1.0000
  C   C673      1.0  0.67676  0.89523  0.73488  1.0000
  C   C674      1.0  0.80574  0.85153  0.74571  1.0000
  H   H1088     1.0  0.82586  0.52533  0.61007  1.0000
  H   H1089     1.0  0.91790  0.52887  0.55269  1.0000
  C   C675      1.0  0.91238  0.50999  0.56186  1.0000
  C   C676      1.0  0.83079  0.50294  0.57978  1.0000
  C   C677      1.0  0.80779  0.50468  0.60634  1.0000
  H   H1090     1.0  0.81517  0.87428  0.75000  1.0000
  C   C678      1.0  0.93176  0.50948  0.57637  1.0000
  H   H1091     1.0  0.75922  0.85287  0.72606  1.0000
  H   H1092     1.0  0.84997  0.52310  0.58284  1.0000
  N   N70       1.0  0.77528  0.83656  0.75018  1.0000
  H   H1093     1.0  0.80819  0.85224  0.73100  1.0000
  H   H1094     1.0  0.97903  0.54495  0.51864  1.0000
  H   H1095     1.0  0.79792  0.49311  0.61895  1.0000
  H   H1096     1.0  0.74088  0.79455  0.74758  1.0000
  C   C679      1.0  0.75823  0.85199  0.74093  1.0000
  C   C680      1.0  0.69954  0.89740  0.74768  1.0000
  H   H1097     1.0  0.71760  0.91797  0.74938  1.0000
  H   H1098     1.0  0.76605  0.87470  0.74518  1.0000
  H   H1099     1.0  0.81512  0.50910  0.57097  1.0000
  C   C681      1.0  0.76380  0.80645  0.74434  1.0000
  C   C682      1.0  0.65298  0.86871  0.73256  1.0000
  H   H1100     1.0  0.83802  0.48967  0.57180  1.0000
  C   C683      1.0  0.65236  0.84427  0.74306  1.0000
  H   H1101     1.0  0.70748  0.84469  0.86931  1.0000
  Fe  Fe137     1.0  0.82867  0.90476  0.78987  1.0000
  S   S273      1.0  0.80851  0.92173  0.76653  1.0000
  S   S274      1.0  0.85028  0.87420  0.78731  1.0000
  Fe  Fe138     1.0  0.80917  0.93369  0.81726  1.0000
  S   S275      1.0  0.78665  0.95285  0.79604  1.0000
  S   S276      1.0  0.81506  0.93626  0.84750  1.0000
  Fe  Fe139     1.0  0.77022  0.90919  0.78331  1.0000
  H   H1102     1.0  0.91979  0.87570  0.85499  1.0000
  H   H1103     1.0  0.96571  0.93670  0.84634  1.0000
  S   S277      1.0  0.78994  0.88978  0.80603  1.0000
  S   S278      1.0  0.85000  0.94717  0.80291  1.0000
  Fe  Fe140     1.0  0.71093  0.86132  0.94399  1.0000
  S   S279      1.0  0.68631  0.86925  0.96515  1.0000
  S   S280      1.0  0.73608  0.83275  0.94549  1.0000
  Fe  Fe141     1.0  0.70606  0.90998  0.91864  1.0000
  S   S281      1.0  0.68209  0.92219  0.93809  1.0000
  S   S282      1.0  0.71303  0.93363  0.89145  1.0000
  Fe  Fe142     1.0  0.71356  0.91675  0.95952  1.0000
  S   S283      1.0  0.74427  0.94649  0.98047  1.0000
  H   H1104     1.0  0.93613  0.86056  0.99114  1.0000
  S   S284      1.0  0.73949  0.90826  0.93950  1.0000
  S   S285      1.0  0.67951  0.86227  0.92101  1.0000
  C   C684      1.0  0.72429  0.85874  0.87891  1.0000
  H   H1105     1.0  0.89312  0.87776  0.83813  1.0000
  H   H1106     1.0  0.78616  0.82504  0.77736  1.0000
  S   S286      1.0  0.96899  0.93609  0.75091  1.0000
  C   C685      1.0  0.73998  0.81397  0.96587  1.0000
  C   C686      1.0  0.71813  0.80339  0.97796  1.0000
  H   H1107     1.0  0.78179  0.85855  0.77459  1.0000
  H   H1108     1.0  0.69814  0.80603  0.97471  1.0000
  C   C687      1.0  0.96533  0.91741  0.83986  1.0000
  C   C688      1.0  0.78663  0.93592  0.85945  1.0000
  C   C689      1.0  0.76182  0.93719  0.85055  1.0000
  C   C690      1.0  0.73943  0.93678  0.86052  1.0000
  C   C691      1.0  0.74147  0.93436  0.87937  1.0000
  C   C692      1.0  0.76621  0.93291  0.88828  1.0000
  C   C693      1.0  0.78888  0.93406  0.87831  1.0000
  H   H1109     1.0  0.76002  0.93877  0.83600  1.0000
  H   H1110     1.0  0.72036  0.93805  0.85359  1.0000
  H   H1111     1.0  0.76806  0.93133  0.90281  1.0000
  H   H1112     1.0  0.80821  0.93336  0.88521  1.0000
  H   H1113     1.0  0.91652  0.86243  0.81589  1.0000
  C   C694      1.0  0.91375  0.81565  0.99968  1.0000
  H   H1114     1.0  0.77003  0.86883  0.98175  1.0000
  H   H1115     1.0  0.78961  0.79322  0.98990  1.0000
  H   H1116     1.0  0.70482  0.97645  0.97651  1.0000
  C   C695      1.0  0.88288  0.89117  0.77676  1.0000
  C   C696      1.0  0.88975  0.91816  0.76760  1.0000
  Fe  Fe143     1.0  0.82684  0.96360  0.78092  1.0000
  H   H1117     1.0  0.94479  0.92721  0.80624  1.0000
  H   H1118     1.0  0.73985  0.87695  0.87088  1.0000
  C   C697      1.0  0.92943  0.91990  0.81717  1.0000
  N   N71       1.0  0.73879  0.84235  0.88998  1.0000
  S   S287      1.0  0.98370  0.86478  0.97156  1.0000
  C   C698      1.0  0.71721  0.81754  0.89970  1.0000
  C   C699      1.0  0.75394  0.83158  0.87820  1.0000
  C   C700      1.0  0.93605  0.91873  0.76103  1.0000
  H   H1119     1.0  0.75417  0.89483  0.98177  1.0000
  C   C701      1.0  0.90257  0.87796  0.77803  1.0000
  H   H1120     1.0  0.70644  0.97516  0.91513  1.0000
  H   H1121     1.0  0.70098  0.80240  0.89030  1.0000
  H   H1122     1.0  0.72748  0.80497  0.90845  1.0000
  H   H1123     1.0  0.78254  0.81781  0.96079  1.0000
  H   H1124     1.0  0.73872  0.81699  0.86811  1.0000
  H   H1125     1.0  0.76521  0.81921  0.88616  1.0000
  S   S288      1.0  0.72619  0.87426  0.77505  1.0000
  H   H1126     1.0  0.94467  0.88186  0.77162  1.0000
  C   C702      1.0  0.76560  0.80987  0.97013  1.0000
  C   C703      1.0  0.75546  0.87526  0.98906  1.0000
  N   N72       1.0  0.93690  0.90091  0.83092  1.0000
  H   H1127     1.0  0.73363  0.85766  0.98792  1.0000
  C   C704      1.0  0.77332  0.83619  0.76983  1.0000
  C   C705      1.0  0.67503  0.84647  0.75591  1.0000
  C   C706      1.0  0.93567  0.83892  0.99105  1.0000
  H   H1128     1.0  0.77714  0.87985  0.89630  1.0000
  C   C707      1.0  0.92944  0.89205  0.77055  1.0000
  H   H1129     1.0  0.77039  0.84984  0.87067  1.0000
  C   C708      1.0  0.93787  0.87598  0.82222  1.0000
  H   H1130     1.0  0.91360  0.90849  0.85131  1.0000
  C   C709      1.0  0.95587  0.80630  0.98214  1.0000
  H   H1131     1.0  0.70544  0.82492  0.90873  1.0000
  C   C710      1.0  0.72205  0.78915  0.99428  1.0000
  H   H1132     1.0  0.71364  0.86831  0.88740  1.0000
  H   H1133     1.0  0.74931  0.87092  0.91180  1.0000
  C   C711      1.0  0.91489  0.89024  0.84445  1.0000
  C   C712      1.0  0.74691  0.98054  0.98714  1.0000
  H   H1134     1.0  0.77025  0.84957  0.91225  1.0000
  C   C713      1.0  0.95675  0.83440  0.98216  1.0000
  H   H1135     1.0  0.92951  0.93949  0.82312  1.0000
  C   C714      1.0  0.69870  0.87303  0.75834  1.0000
  C   C715      1.0  0.75984  0.86156  0.90311  1.0000
  C   C716      1.0  0.76967  0.79595  0.98660  1.0000
  H   H1136     1.0  0.98259  0.92507  0.83014  1.0000
  H   H1137     1.0  0.90753  0.90838  0.81078  1.0000
  H   H1138     1.0  0.75103  0.96626  0.92117  1.0000
  H   H1139     1.0  0.95362  0.88325  0.81151  1.0000
  H   H1140     1.0  0.89711  0.85687  0.78485  1.0000
  Fe  Fe144     1.0  0.65678  0.87387  0.94161  1.0000
  H   H1141     1.0  0.67423  0.82744  0.76402  1.0000
  H   H1142     1.0  0.81928  0.84068  0.75271  1.0000
  H   H1143     1.0  0.94462  0.86179  0.83206  1.0000
  H   H1144     1.0  0.97136  0.90377  0.85050  1.0000
  H   H1145     1.0  0.75065  0.82540  0.77378  1.0000
  C   C717      1.0  0.93375  0.78295  0.99063  1.0000
  C   C718      1.0  0.91606  0.93162  0.75942  1.0000
  H   H1146     1.0  0.87462  0.92847  0.76655  1.0000
  H   H1147     1.0  0.97191  0.80249  0.97535  1.0000
  H   H1148     1.0  0.73063  0.98018  0.94577  1.0000
  H   H1149     1.0  0.93297  0.76124  0.99028  1.0000
  C   C719      1.0  0.91252  0.78747  0.99938  1.0000
  C   C720      1.0  0.74787  0.78557  0.99875  1.0000
  H   H1150     1.0  0.92093  0.95206  0.75187  1.0000
  H   H1151     1.0  0.77618  0.79421  0.75111  1.0000
  H   H1152     1.0  0.97306  0.98666  0.76860  1.0000
