data_image0
_chemical_formula_structural       FeS2FeS2FeSFeS3FeS2FeS2FeSFeS3FeS2FeS2FeSFeS3FeS2FeS2FeSFeS3FeS2FeS2FeSFeS3FeS2FeS2FeSFeS3FeS2FeS2FeSFeS3FeS2FeS2FeSFeS3FeS2FeS2FeSFeS3FeS2FeS2FeSFeS3FeS2FeS2FeSFeS3FeS2FeS2FeSFeS3FeS2FeS2FeSFeS3FeS2FeS2FeSFeS3FeS2FeS2FeSFeS3FeS2FeS2FeSFeS3FeS2FeS2FeSFeS3FeS2FeS2FeSFeS3C6H4C6H4C6H4C6H4C6H4C6H4C6H4C6H4C6H4C6H4C6H4C6H4C6H4C6H4C6H4C6H4C6H4C6H4C6H4C6H4C6H4C6H4C6H4C6H4C6H4C6H4C6H4C6H4C6H4C6H4C6H4C6H4C6H4C6H4C6H4C6H4NC4H12NC4H12NC4H12NC4H12NC4H12NC4H12NC4H12NC4H12NC4H12NC4H12NC4H12NC4H12NC4H12NC4H12NC4H12NC4H12NC4H12NC4H12NC4H12NC4H12NC4H12NC4H12NC4H12NC4H12NC4H12NC4H12NC4H12NC4H12NC4H12NC4H12NC4H12NC4H12NC4H12NC4H12NC4H12NC4H12
_chemical_formula_sum              "Fe72 S144 C360 H576 N36"
_cell_length_a       56.419899993775275
_cell_length_b       56.74471297946767
_cell_length_c       27.559599942527477
_cell_angle_alpha    90.02634701773378
_cell_angle_beta     89.79132052435061
_cell_angle_gamma    120.07254951471849

_space_group_name_H-M_alt    "P 1"
_space_group_IT_number       1

loop_
  _space_group_symop_operation_xyz
  'x, y, z'

loop_
  _atom_site_type_symbol
  _atom_site_label
  _atom_site_symmetry_multiplicity
  _atom_site_fract_x
  _atom_site_fract_y
  _atom_site_fract_z
  _atom_site_occupancy
  Fe  Fe1       1.0  0.8305136738898815  0.40974099353679133  0.020537949500201824  1.0000
  S   S1        1.0  0.8266304675083246  0.40757273859980875  0.10150664962627395  1.0000
  S   S2        1.0  0.8105415229331733  0.4270474518989061  0.9732123658312182  1.0000
  Fe  Fe2       1.0  0.8635385495560006  0.38079249379010527  0.018385240862214713  1.0000
  S   S3        1.0  0.8617995135822869  0.375876625434959  0.09960140098801853  1.0000
  S   S4        1.0  0.887206372424191  0.36493642683590455  0.9765698772855397  1.0000
  Fe  Fe3       1.0  0.8178820252160585  0.3647607489708032  0.09212547767249048  1.0000
  S   S5        1.0  0.7828015420000137  0.3331363765426737  0.1362948200410603  1.0000
  Fe  Fe4       1.0  0.8708145199112682  0.41910743420769514  0.10122347179564631  1.0000
  S   S6        1.0  0.90401954030265  0.45130437184086947  0.1480969810627698  1.0000
  S   S7        1.0  0.8186367876553909  0.3659276291794226  0.010775829966449546  1.0000
  S   S8        1.0  0.8756049643442565  0.42490072286570746  0.020378440543314058  1.0000
  Fe  Fe5       1.0  0.694900794692834  0.4412267456945598  0.06266656287463342  1.0000
  S   S9        1.0  0.6832849453782487  0.4254077652052824  0.9867974855810955  1.0000
  S   S10       1.0  0.7381393139850511  0.4634928092063689  0.09073062362151542  1.0000
  Fe  Fe6       1.0  0.6354987719996219  0.41728811742779476  0.09495145907220968  1.0000
  S   S11       1.0  0.6192328881237998  0.39857826569434623  0.02193953387252945  1.0000
  S   S12       1.0  0.6086276107727568  0.4205975622682384  0.15266355267854811  1.0000
  Fe  Fe7       1.0  0.6519127338160994  0.3870901257642583  0.02359163914238449  1.0000
  S   S13       1.0  0.6511990250070296  0.3502592667849621  0.9921313964681353  1.0000
  Fe  Fe8       1.0  0.6520710143053958  0.4386125640317071  0.991838549059101  1.0000
  S   S14       1.0  0.6386167586448108  0.4568607266694205  0.9323800150013941  1.0000
  S   S15       1.0  0.6653167786643434  0.4020255216649333  0.09956734436387289  1.0000
  S   S16       1.0  0.6665955922798109  0.4581370488077511  0.0646910808270026  1.0000
  Fe  Fe9       1.0  0.6539675936051712  0.20727621684153905  0.04521802261358854  1.0000
  S   S17       1.0  0.6406839119382061  0.21266219977022607  0.11924951798970983  1.0000
  S   S18       1.0  0.6971635914890297  0.23096064003568664  0.016495861274262946  1.0000
  Fe  Fe10      1.0  0.5968759988064168  0.16188890457384147  0.017088252661245917  1.0000
  S   S19       1.0  0.5791956157869248  0.16350291741233752  0.08943633540423292  1.0000
  S   S20       1.0  0.5683637022055239  0.13186683903399218  0.9610928068482071  1.0000
  Fe  Fe11      1.0  0.6041528851782355  0.20888627116579428  0.08028179645867309  1.0000
  S   S21       1.0  0.5867207434182824  0.23612442539245337  0.09695942212313613  1.0000
  Fe  Fe12      1.0  0.6174378403310903  0.16707222481830605  0.12163023361813895  1.0000
  S   S22       1.0  0.6181266175310273  0.14155185388391253  0.1841337491940027  1.0000
  S   S23       1.0  0.6191536354002832  0.2069896055064505  0.005703500395834116  1.0000
  S   S24       1.0  0.633190157861872  0.16174250990180425  0.04985965533145231  1.0000
  Fe  Fe13      1.0  0.21100128479544086  0.6278372813659685  0.09168607758541743  1.0000
  S   S25       1.0  0.20669505545374012  0.6344043706300507  0.012299557672480033  1.0000
  S   S26       1.0  0.17937206346994083  0.6197862762654056  0.1497070770452282  1.0000
  Fe  Fe14      1.0  0.2621614618043622  0.6235483122044662  0.0750481403673254  1.0000
  S   S27       1.0  0.26222041183538114  0.6295497885627166  0.9948255346390981  1.0000
  S   S28       1.0  0.29206519640421436  0.6158485462930836  0.11575678598188936  1.0000
  Fe  Fe15      1.0  0.252450670507394  0.662076899629587  0.01505168487850339  1.0000
  S   S29       1.0  0.27694094410999454  0.7018581332135081  0.9755020353045396  1.0000
  Fe  Fe16      1.0  0.21690112163688002  0.601408042087275  0.9988189319544647  1.0000
  S   S30       1.0  0.1938643254660466  0.5641120205260366  0.9515846676465171  1.0000
  S   S31       1.0  0.25592424552549764  0.6581728211299388  0.0956135906738892  1.0000
  S   S32       1.0  0.21763161246341606  0.5926061241669562  0.07800217366482012  1.0000
  Fe  Fe17      1.0  0.40605659701651464  0.5958383837800705  0.025615421985046627  1.0000
  S   S33       1.0  0.4051109969389431  0.5942603570254901  0.10671812549138106  1.0000
  S   S34       1.0  0.37357129299737574  0.5985973356546479  0.9829312727686098  1.0000
  Fe  Fe18      1.0  0.46186014125843794  0.6000362470980783  0.01984704059364084  1.0000
  S   S35       1.0  0.4654531884594079  0.5989407328146366  0.10129836576470237  1.0000
  S   S36       1.0  0.4968297969126844  0.6060696174640644  0.9713160898188735  1.0000
  Fe  Fe19      1.0  0.42138448329500106  0.5656088706191807  0.09859259140143056  1.0000
  S   S37       1.0  0.40043398075666514  0.5266509456093872  0.14259462966866127  1.0000
  Fe  Fe20      1.0  0.44867796957404477  0.6274739334932512  0.10191257389070833  1.0000
  S   S38       1.0  0.4625068942606717  0.6641416228996931  0.15018537538951238  1.0000
  S   S39       1.0  0.4188783218371089  0.5644602089158934  0.01695858744621015  1.0000
  S   S40       1.0  0.4488474781862887  0.6312187578536994  0.021060591311562904  1.0000
  Fe  Fe21      1.0  0.4590831473679648  0.8394493020753846  0.01555596638013812  1.0000
  S   S41       1.0  0.44377351699492396  0.8451565971678522  0.08702025362153679  1.0000
  S   S42       1.0  0.47043891221119144  0.869223635155702  0.9537708947398841  1.0000
  Fe  Fe22      1.0  0.45955223784894855  0.7890620435414881  0.05023416106363876  1.0000
  S   S43       1.0  0.4450181014233514  0.7909525242429901  0.1254151986467029  1.0000
  S   S44       1.0  0.46295341158193215  0.7543170732306381  0.01909502870000379  1.0000
  Fe  Fe23      1.0  0.41571701769282793  0.8000864347151646  0.08628910836790574  1.0000
  S   S45       1.0  0.37255149906343565  0.7808214440229987  0.11449710598442973  1.0000
  Fe  Fe24      1.0  0.4746837262678928  0.8359788224082245  0.11995557412989134  1.0000
  S   S46       1.0  0.4983848115986713  0.8666209360452903  0.1788307678516111  1.0000
  S   S47       1.0  0.42813714791727076  0.7950757251740636  0.011515890892385361  1.0000
  S   S48       1.0  0.4920155197043508  0.833218177648435  0.04786912970891155  1.0000
  Fe  Fe25      1.0  0.925197639724558  0.37572408781037714  0.7026606667349478  1.0000
  S   S49       1.0  0.9256302679748698  0.3366712378960866  0.7134021089427199  1.0000
  S   S50       1.0  0.9175984338411729  0.40097382684959837  0.7571169267276154  1.0000
  Fe  Fe26      1.0  0.9296081000229666  0.37393379336684884  0.5929503480513546  1.0000
  S   S51       1.0  0.9300494864126727  0.3347407244051272  0.5941894589156305  1.0000
  S   S52       1.0  0.9299331223761017  0.3938940907938842  0.5224904634821794  1.0000
  Fe  Fe27      1.0  0.896602203395218  0.3210064570723188  0.6498312579676451  1.0000
  S   S53       1.0  0.8545385863590018  0.28298610125224205  0.6532698795223754  1.0000
  Fe  Fe28      1.0  0.9592679914596768  0.35397565045771184  0.6567113246015859  1.0000
  S   S54       1.0  0.9977062973360907  0.3509520624254905  0.6506368995039172  1.0000
  S   S55       1.0  0.8939815106755356  0.3589635915154997  0.643380926078498  1.0000
  S   S56       1.0  0.9610345108440232  0.3942773369209038  0.6509981048017761  1.0000
  Fe  Fe29      1.0  0.6992454587836123  0.15437439574212042  0.5218600347070695  1.0000
  S   S57       1.0  0.7260323518554045  0.13583245935044191  0.5128362319851548  1.0000
  S   S58       1.0  0.6807207455858685  0.15741495667375574  0.592070081416717  1.0000
  Fe  Fe30      1.0  0.7052093062876091  0.17295885134398634  0.4166590189147043  1.0000
  S   S59       1.0  0.732858464301959  0.15638467198492892  0.3990239313034662  1.0000
  S   S60       1.0  0.6940229502477103  0.19749810571697887  0.36651159080738144  1.0000
  Fe  Fe31      1.0  0.7030529702115562  0.11947653708920795  0.4426066933706012  1.0000
  S   S61       1.0  0.682895837731998  0.07733167396574936  0.4081086658416628  1.0000
  Fe  Fe32      1.0  0.7532687267536163  0.17434284220687987  0.470747072161989  1.0000
  S   S62       1.0  0.7996066668245012  0.20077271663272395  0.47685810350925245  1.0000
  S   S63       1.0  0.6741482859312711  0.13536429571862132  0.45533990913075567  1.0000
  S   S64       1.0  0.7277462200370864  0.19364152426918504  0.4846903799408231  1.0000
  Fe  Fe33      1.0  0.8878336440310778  0.5131855810433676  0.38900771459488787  1.0000
  S   S65       1.0  0.9095455261486541  0.558914988032167  0.3853483930173205  1.0000
  S   S66       1.0  0.8594137692350109  0.48429084917303816  0.3320356708817746  1.0000
  Fe  Fe34      1.0  0.9076748063358003  0.5132163966234081  0.49111324824715863  1.0000
  S   S67       1.0  0.9313537364557039  0.558747316736789  0.49552726474730113  1.0000
  S   S68       1.0  0.9064031289528315  0.4901779951374532  0.5582815018600992  1.0000
  Fe  Fe35      1.0  0.8937360951486033  0.5562155490169571  0.4618743097192659  1.0000
  S   S69       1.0  0.8767404190015122  0.581032143409729  0.4970967384175871  1.0000
  Fe  Fe36      1.0  0.9450944547592713  0.5572236708269773  0.41956531657857565  1.0000
  S   S70       1.0  0.9882993395037875  0.5777682804127353  0.3875118249413304  1.0000
  S   S71       1.0  0.8694615236070468  0.5107081846106342  0.46271611667394463  1.0000
  S   S72       1.0  0.9239984710923178  0.5114872369105474  0.4177915563789098  1.0000
  Fe  Fe37      1.0  0.6695801066137533  0.5163932873838375  0.6482075334184404  1.0000
  S   S73       1.0  0.6916122180231469  0.5440591916179074  0.5856799064771148  1.0000
  S   S74       1.0  0.6260261080625087  0.4821741248674248  0.6483268953328711  1.0000
  Fe  Fe38      1.0  0.7164881995212632  0.5471125511858217  0.7174302422109459  1.0000
  S   S75       1.0  0.7430753039027868  0.577759603447817  0.6607109465239469  1.0000
  S   S76       1.0  0.7292602305490395  0.5470463670347668  0.7949100814971235  1.0000
  Fe  Fe39      1.0  0.704166880421912  0.5776916252623784  0.6404675096559864  1.0000
  S   S77       1.0  0.7024804650098335  0.6161110003619961  0.6235697638855497  1.0000
  Fe  Fe40      1.0  0.7284522053163455  0.5416464479803539  0.6108300563250803  1.0000
  S   S78       1.0  0.7509762638002868  0.5281649712221025  0.5586685946280896  1.0000
  S   S79       1.0  0.6792474405144151  0.5499283708234834  0.7009429976670892  1.0000
  S   S80       1.0  0.7048317140384049  0.5111445468514337  0.6696745665257161  1.0000
  Fe  Fe41      1.0  0.5492429975401266  0.6730681452402234  0.7202152817988172  1.0000
  S   S81       1.0  0.5944506348089458  0.7024589995345499  0.7271778604172376  1.0000
  S   S82       1.0  0.5149839546574853  0.6675937923640825  0.770555199004101  1.0000
  Fe  Fe42      1.0  0.5558506305805122  0.6530930542804226  0.6216546994431275  1.0000
  S   S83       1.0  0.601307349936847  0.6808446958120268  0.6200626404847287  1.0000
  S   S84       1.0  0.5352830856727668  0.6262054700019578  0.5574111183729396  1.0000
  Fe  Fe43      1.0  0.5998052965136602  0.6681427969250344  0.697577030704047  1.0000
  S   S85       1.0  0.6236904427907993  0.649702385871311  0.7311371212058937  1.0000
  Fe  Fe44      1.0  0.5919568815578959  0.7126852164312134  0.6486324895425164  1.0000
  S   S86       1.0  0.6140501101074133  0.7551167431595901  0.6146375131401336  1.0000
  S   S87       1.0  0.5545902025316143  0.638189050826527  0.6970945407732717  1.0000
  S   S88       1.0  0.5464871502747054  0.6854974694275268  0.6438495631064517  1.0000
  Fe  Fe45      1.0  0.5788767523179634  0.8787156506017418  0.4089206961227088  1.0000
  S   S89       1.0  0.6105206158176486  0.8830368148684334  0.4637313682142922  1.0000
  S   S90       1.0  0.5742735970090612  0.8567258154282159  0.33792470225207927  1.0000
  Fe  Fe46      1.0  0.5526343798766403  0.9002935819038785  0.47822967372238256  1.0000
  S   S91       1.0  0.5810496052790417  0.9051499699194987  0.5383843123713344  1.0000
  S   S92       1.0  0.523955094742654  0.9159478104002722  0.49376940899477423  1.0000
  Fe  Fe47      1.0  0.6136845972493264  0.923567746861095  0.4809619108475263  1.0000
  S   S93       1.0  0.6504744532794363  0.9631713042342384  0.5055686827638968  1.0000
  Fe  Fe48      1.0  0.5752134452508518  0.8644613046682584  0.5162748080280519  1.0000
  S   S94       1.0  0.5607169501971222  0.8289652046056498  0.5694563496215482  1.0000
  S   S95       1.0  0.5852995151920614  0.9207403813497305  0.42158124444127926  1.0000
  S   S96       1.0  0.5435417970561134  0.8580959187125798  0.4606290690550959  1.0000
  Fe  Fe49      1.0  0.1867002383134584  0.683844994016324  0.3889539262383767  1.0000
  S   S97       1.0  0.17389250359227887  0.6976871387944285  0.4557737358339327  1.0000
  S   S98       1.0  0.1943862767904824  0.7037046166979061  0.31530850444436215  1.0000
  Fe  Fe50      1.0  0.1902397744123226  0.6394369814014799  0.44164030463378673  1.0000
  S   S99       1.0  0.1767903836498064  0.6484570516121744  0.5122114421232569  1.0000
  S   S100      1.0  0.20613735401083721  0.6105871765548937  0.4318566964255437  1.0000
  Fe  Fe51      1.0  0.14561763807141087  0.6526549940158728  0.4679499632671727  1.0000
  S   S101      1.0  0.1026747163694598  0.6374235752072918  0.4981104299453874  1.0000
  Fe  Fe52      1.0  0.20611639770662002  0.6925393417086536  0.49470980215248955  1.0000
  S   S102      1.0  0.23604495543315238  0.7148635232944824  0.556164850857899  1.0000
  S   S103      1.0  0.15654195917574656  0.6393150572698028  0.3987147544094236  1.0000
  S   S104      1.0  0.2213034017961698  0.6828536543035655  0.42653015091106555  1.0000
  Fe  Fe53      1.0  0.37916541380153446  0.8642955209458146  0.7409919592895496  1.0000
  S   S105      1.0  0.3635137715452146  0.8893855522603189  0.7038101270964107  1.0000
  S   S106      1.0  0.3714917230956792  0.852717979253819  0.8206512350064293  1.0000
  Fe  Fe54      1.0  0.40070435430225476  0.8540329077999644  0.6478723556432762  1.0000
  S   S107      1.0  0.38777776476099407  0.8786121514195633  0.6040193468232126  1.0000
  S   S108      1.0  0.4189422728655718  0.8318393193563031  0.6098927506619616  1.0000
  Fe  Fe55      1.0  0.4041435964116421  0.9089470072444061  0.6647352522117466  1.0000
  S   S109      1.0  0.4330864673005559  0.9520505843697924  0.6384334560120922  1.0000
  Fe  Fe56      1.0  0.3485359996005729  0.8569263382353968  0.6457983613216962  1.0000
  S   S110      1.0  0.31133440732942025  0.8421191242066548  0.5971178329063279  1.0000
  S   S111      1.0  0.4206455445692221  0.8858485162161799  0.7053286952659998  1.0000
  S   S112      1.0  0.36053885820777154  0.8303311176238424  0.6863006987230721  1.0000
  Fe  Fe57      1.0  0.5324200365826574  0.118095830830669  0.6087377616767636  1.0000
  S   S113      1.0  0.4925829770878877  0.11203426905027705  0.5807823070443958  1.0000
  S   S114      1.0  0.5528066650722695  0.09833820976216148  0.5690344943117295  1.0000
  Fe  Fe58      1.0  0.5322300999596041  0.15093466630337055  0.6961756340409709  1.0000
  S   S115      1.0  0.49198881697755303  0.14731784233338735  0.6753055133568645  1.0000
  S   S116      1.0  0.5604732725827275  0.17765086956881965  0.755785913593978  1.0000
  Fe  Fe59      1.0  0.4793884689886879  0.10334020428979425  0.6588483019520669  1.0000
  S   S117      1.0  0.4401181776815066  0.06553848710975181  0.6823850069633576  1.0000
  Fe  Fe60      1.0  0.5089489607437458  0.15636809544911193  0.5988550905688699  1.0000
  S   S118      1.0  0.5142908526474773  0.18730945375220015  0.540415608125813  1.0000
  S   S119      1.0  0.5184836067023447  0.1067445581251911  0.6856374078485329  1.0000
  S   S120      1.0  0.5499617603002671  0.16264794384715178  0.6211766681682206  1.0000
  Fe  Fe61      1.0  0.5058088275359078  0.3681108518415684  0.4393584459397869  1.0000
  S   S121      1.0  0.5457750795379303  0.38174306881275216  0.4002204307485183  1.0000
  S   S122      1.0  0.49514042478999887  0.40194122265517623  0.4383685196916996  1.0000
  Fe  Fe62      1.0  0.5034984558141818  0.31556249120373453  0.4743482806025009  1.0000
  S   S123      1.0  0.5430838884163326  0.32581117942290455  0.4379611718326182  1.0000
  S   S124      1.0  0.47839149739793657  0.27642454597871235  0.5175449184361186  1.0000
  Fe  Fe63      1.0  0.5581727367549687  0.36792172336185536  0.4663739205172836  1.0000
  S   S125      1.0  0.602141642149444  0.39254652765939757  0.4901321792111743  1.0000
  Fe  Fe64      1.0  0.5274102540194315  0.3387983261613282  0.3747514453985422  1.0000
  S   S126      1.0  0.5351232097558815  0.3261017761772458  0.3011337594615114  1.0000
  S   S127      1.0  0.5197669767273274  0.3570800926926439  0.5078986743385748  1.0000
  S   S128      1.0  0.48617895230705893  0.32552279388049243  0.4085338149289494  1.0000
  Fe  Fe65      1.0  0.19392930912215134  0.5229807009476894  0.6893199274366525  1.0000
  S   S129      1.0  0.19143313353890937  0.4848684673933302  0.7174795400106294  1.0000
  S   S130      1.0  0.21622672772313134  0.5641642162171701  0.7257848187948793  1.0000
  Fe  Fe66      1.0  0.16071798892666617  0.49452432411943736  0.6002686323395134  1.0000
  S   S131      1.0  0.15585634124092743  0.45400098584697446  0.619865082449805  1.0000
  S   S132      1.0  0.13602796895851024  0.49897243732881397  0.5411164649166882  1.0000
  Fe  Fe67      1.0  0.14740547192885176  0.46364043336160105  0.6943991373511071  1.0000
  S   S133      1.0  0.11346300812428063  0.4328154182679084  0.742226030729926  1.0000
  Fe  Fe68      1.0  0.20047907330831097  0.47802245154951334  0.6407158421280921  1.0000
  S   S134      1.0  0.22887528470763593  0.46031691973658045  0.6386474415621332  1.0000
  S   S135      1.0  0.14905715544949474  0.5025132096867105  0.6735263668821136  1.0000
  S   S136      1.0  0.20616858138875424  0.518081217430027  0.6137785469430967  1.0000
  Fe  Fe69      1.0  0.40848268875440064  0.5077967049001646  0.41817197732865  1.0000
  S   S137      1.0  0.3696488236507777  0.4684698182544218  0.4049058682688346  1.0000
  S   S138      1.0  0.4365410399757351  0.5376164949071589  0.36170891953511886  1.0000
  Fe  Fe70      1.0  0.40732786517472436  0.4962992575680053  0.5261045588358313  1.0000
  S   S139      1.0  0.36815088589831235  0.4561762620333527  0.5215736635242747  1.0000
  S   S140      1.0  0.43149072635728253  0.5105946498058309  0.5951638533515832  1.0000
  Fe  Fe71      1.0  0.3874479531171705  0.44990082039730056  0.45467835166493803  1.0000
  S   S141      1.0  0.38648147096720165  0.40996695328770194  0.4395284644850257  1.0000
  Fe  Fe72      1.0  0.3541336639429379  0.47874006075184  0.4729445299335482  1.0000
  S   S142      1.0  0.3134351191790387  0.4779465111859114  0.46863247095100147  1.0000
  S   S143      1.0  0.42732124133336874  0.4885771239522149  0.46283000055423773  1.0000
  S   S144      1.0  0.3922668879543405  0.5195383525592144  0.482623683218217  1.0000
  C   C1        1.0  0.25336166681758054  0.4670909717872956  0.5920868632670072  1.0000
  C   C2        1.0  0.25196027074947885  0.4776888031675685  0.5470755154381719  1.0000
  C   C3        1.0  0.27069727678054273  0.4811325390147381  0.5099337458781924  1.0000
  C   C4        1.0  0.2913662853359081  0.4745716721801839  0.5176045676333869  1.0000
  C   C5        1.0  0.29316181137060326  0.46455604752977503  0.5630106861512454  1.0000
  C   C6        1.0  0.2740676556475721  0.460585680519558  0.5998638901142147  1.0000
  H   H1        1.0  0.23607799756508632  0.48264918930585593  0.5404561216152953  1.0000
  H   H2        1.0  0.26906996195490374  0.48877345016007173  0.474889428407209  1.0000
  H   H3        1.0  0.3088449431693728  0.45928114828703637  0.5693230528215038  1.0000
  H   H4        1.0  0.27530120512499284  0.45232641681379765  0.6344964089506353  1.0000
  C   C7        1.0  0.4643078532002276  0.40291953063516966  0.43722956744984276  1.0000
  C   C8        1.0  0.43838608172506743  0.3794979911771698  0.4384562594569096  1.0000
  C   C9        1.0  0.4146380644450522  0.3818701949665844  0.4384488373153947  1.0000
  C   C10       1.0  0.4166563391669761  0.4076012507736959  0.43759565172979187  1.0000
  C   C11       1.0  0.442593937032743  0.4308897823796392  0.43564261754315103  1.0000
  C   C12       1.0  0.4662088338199145  0.42853947551041904  0.43561757438719784  1.0000
  H   H5        1.0  0.4366727470611079  0.35963567164994914  0.43958250016896966  1.0000
  H   H6        1.0  0.3946535342825242  0.36367448901226834  0.439653793979055  1.0000
  H   H7        1.0  0.44468270781224994  0.4508269623366175  0.43456421794805433  1.0000
  H   H8        1.0  0.4862003464090476  0.4467444571338608  0.4344885919780941  1.0000
  C   C13       1.0  0.5059717650945024  0.21355480796345652  0.5435160171297685  1.0000
  C   C14       1.0  0.480392666169448  0.208626305892527  0.5600198946945903  1.0000
  C   C15       1.0  0.4725431898528736  0.22843162531989233  0.5533305418404562  1.0000
  C   C16       1.0  0.4902324655966593  0.2533992542604662  0.53051493907429  1.0000
  C   C17       1.0  0.5162369348293029  0.2587465625991876  0.5159470704019112  1.0000
  C   C18       1.0  0.5239166224401043  0.23882605618973043  0.521965846355181  1.0000
  H   H9        1.0  0.4662002087400934  0.1891112825169115  0.5760032338870489  1.0000
  H   H10       1.0  0.45239810910921924  0.2240961045177283  0.5648682609718743  1.0000
  H   H11       1.0  0.5302568818506681  0.27798741351115824  0.4991113373497019  1.0000
  H   H12       1.0  0.5437051182503306  0.2427971557580444  0.5089845890964665  1.0000
  C   C19       1.0  0.43573653785875344  0.9833902169452157  0.6556063301919084  1.0000
  C   C20       1.0  0.4565820780261692  0.007399319259832282  0.6343745282676354  1.0000
  C   C21       1.0  0.4583535967361982  0.03263497500777916  0.6432412675746376  1.0000
  C   C22       1.0  0.43900416728398994  0.03411655081842049  0.6729409580316444  1.0000
  C   C23       1.0  0.41814596547064226  0.010121315861499669  0.6944418028457119  1.0000
  C   C24       1.0  0.41664856608906353  0.984853570951744  0.6862367391435735  1.0000
  H   H13       1.0  0.4713600471169231  0.006496132109109931  0.6104539603360156  1.0000
  H   H14       1.0  0.4744623628478716  0.050915691920594267  0.6263511525213311  1.0000
  H   H15       1.0  0.4032398647841721  0.011172600749355777  0.717770164339454  1.0000
  H   H16       1.0  0.4006818097475842  0.9666128737560706  0.7033496091382169  1.0000
  C   C25       1.0  0.1552755857759705  0.5296363409401125  0.5097260880295803  1.0000
  C   C26       1.0  0.1437432147604874  0.5459038638411725  0.4992476953240038  1.0000
  C   C27       1.0  0.15937762795099997  0.5709973245029392  0.47560760659767565  1.0000
  C   C28       1.0  0.1862660728308819  0.5793960415735308  0.4613303040449881  1.0000
  C   C29       1.0  0.1976382561150444  0.5629423792511637  0.4711687441893539  1.0000
  C   C30       1.0  0.18225281712358515  0.5381979524851833  0.4958877658518644  1.0000
  H   H17       1.0  0.12288315601489976  0.5393016685786318  0.5100464784689205  1.0000
  H   H18       1.0  0.15054364070309484  0.5836769274957475  0.4679166789913109  1.0000
  H   H19       1.0  0.2184680135939862  0.5694543955172088  0.460202069813116  1.0000
  H   H20       1.0  0.19116366765690004  0.5256041577741157  0.5037820624798958  1.0000
  C   C31       1.0  0.25625253143535337  0.7503921166624249  0.5665956342510164  1.0000
  C   C32       1.0  0.25503418957429125  0.7697434299517041  0.5368414735249412  1.0000
  C   C33       1.0  0.2718397254475071  0.7977926722180465  0.5466985652800406  1.0000
  C   C34       1.0  0.29021034844947513  0.8067212172226212  0.5859097901157853  1.0000
  C   C35       1.0  0.2915446143654982  0.7873363563956457  0.6152731031483797  1.0000
  C   C36       1.0  0.2745197336981934  0.7593754019731801  0.6058784138936647  1.0000
  H   H21       1.0  0.24101145851424255  0.7631073719103016  0.5065522534033786  1.0000
  H   H22       1.0  0.27056877648793726  0.8126125433369259  0.5238423280741706  1.0000
  H   H23       1.0  0.3052823922693039  0.7938280114394303  0.6458797943869488  1.0000
  H   H24       1.0  0.27550706679182435  0.7445758545953018  0.6292461456299435  1.0000
  C   C37       1.0  0.49369152460472404  0.8921920440513827  0.5229491841220436  1.0000
  C   C38       1.0  0.47919109831549966  0.9013960033731525  0.5508587426258859  1.0000
  C   C39       1.0  0.45595925148908395  0.8828282421671956  0.5771470495242507  1.0000
  C   C40       1.0  0.4469254316259154  0.8549740638782575  0.5748718141100136  1.0000
  C   C41       1.0  0.46086207682107283  0.8456561103828896  0.5456738595347814  1.0000
  C   C42       1.0  0.48444008082276413  0.8642944022967194  0.5201559318617357  1.0000
  H   H25       1.0  0.4862809481026454  0.9229703101401484  0.5531446986646342  1.0000
  H   H26       1.0  0.4454362299858893  0.8902440043050998  0.5998403474625553  1.0000
  H   H27       1.0  0.4537229312745596  0.8240868563938049  0.5433873490297972  1.0000
  H   H28       1.0  0.49529295294239656  0.8570663977247879  0.49801225200766375  1.0000
  C   C43       1.0  0.5073507067162557  0.5935825234894744  0.5685828315773308  1.0000
  C   C44       1.0  0.5025780757079102  0.5814385547882499  0.6144890101621674  1.0000
  C   C45       1.0  0.4795354185981439  0.555615538141751  0.6224302533024789  1.0000
  C   C46       1.0  0.4611285569985129  0.5420814809965077  0.5846265013087923  1.0000
  C   C47       1.0  0.4661972076285284  0.5540737803470331  0.5386478010242425  1.0000
  C   C48       1.0  0.4893535971427195  0.579656771518257  0.5305861320957731  1.0000
  H   H29       1.0  0.5164630406837123  0.5918493426067599  0.643916339651433  1.0000
  H   H30       1.0  0.47576800197141517  0.5462812953694931  0.6579680125175179  1.0000
  H   H31       1.0  0.45217442037653555  0.5438210474050604  0.5091870526101056  1.0000
  H   H32       1.0  0.4929961885634555  0.5888831114962088  0.4949364011850281  1.0000
  C   C49       1.0  0.5987971171018304  0.7752746177225123  0.6021189582198655  1.0000
  C   C50       1.0  0.6145298236244627  0.800736533873236  0.5793264087206631  1.0000
  C   C51       1.0  0.6031688345351746  0.8173295805889654  0.5685834100747342  1.0000
  C   C52       1.0  0.5759430266258226  0.8086760542204322  0.5809475436290414  1.0000
  C   C53       1.0  0.5602510631048891  0.783294463055214  0.6039209748294834  1.0000
  C   C54       1.0  0.5715323948483136  0.7666002158671542  0.6142166756649475  1.0000
  H   H33       1.0  0.6357271339356089  0.8077457717706916  0.5703205290825473  1.0000
  H   H34       1.0  0.6156591189790845  0.8370161116711015  0.5516910750949112  1.0000
  H   H35       1.0  0.5392287665772059  0.7764613760822929  0.6139045701659395  1.0000
  H   H36       1.0  0.5592435604639713  0.7471589759793861  0.6320048801079683  1.0000
  C   C55       1.0  0.6195202302750544  0.4580504031232023  0.602982786756468  1.0000
  C   C56       1.0  0.6410170199988289  0.4588012133734521  0.5762732869672604  1.0000
  C   C57       1.0  0.635537433352658  0.4384958629482493  0.5418037674154427  1.0000
  C   C58       1.0  0.6085437909917534  0.4177782599047595  0.5333156472234785  1.0000
  C   C59       1.0  0.5870892391964234  0.4172654936068205  0.5597034579841982  1.0000
  C   C60       1.0  0.5925995224047166  0.4372252868080633  0.5948373992332673  1.0000
  H   H37       1.0  0.6618763144140819  0.4748897626267605  0.5823537222953998  1.0000
  H   H38       1.0  0.6522150629413107  0.43899254089345985  0.5214581124609694  1.0000
  H   H39       1.0  0.566271170183482  0.40133382000111084  0.5535285506659757  1.0000
  H   H40       1.0  0.575943844655328  0.4365856325324362  0.6154910531730399  1.0000
  C   C61       1.0  0.6794549031780291  0.6244350527255033  0.6521896124593902  1.0000
  C   C62       1.0  0.6785105750668711  0.6475787074779878  0.6368379560730438  1.0000
  C   C63       1.0  0.6608362533118715  0.6550868477888601  0.6595516160591024  1.0000
  C   C64       1.0  0.6443880649290524  0.6398107665829849  0.6985698394226093  1.0000
  C   C65       1.0  0.6452190112369706  0.6165963663364189  0.7137179932403811  1.0000
  C   C66       1.0  0.6622965197894884  0.6086791452108146  0.6901273203399416  1.0000
  H   H41       1.0  0.6917203292367374  0.6599219428028088  0.6075194111101604  1.0000
  H   H42       1.0  0.6606699212089236  0.6732349017372915  0.6480104681262493  1.0000
  H   H43       1.0  0.6324707686805875  0.6046190358800582  0.7437656971187541  1.0000
  H   H44       1.0  0.6622794127900166  0.5904982371342755  0.701478444996747  1.0000
  C   C67       1.0  0.019809691091815518  0.5943286143970063  0.4190510111160327  1.0000
  C   C68       1.0  0.021681659030690525  0.6034465952332491  0.46678763283896724  1.0000
  C   C69       1.0  0.047187461663136046  0.6163827452613265  0.4905187458707567  1.0000
  C   C70       1.0  0.07102339452506101  0.6202267473600852  0.46697326996855226  1.0000
  C   C71       1.0  0.06904939333256868  0.6106158539537934  0.4195690447808524  1.0000
  C   C72       1.0  0.04363691830341265  0.5981002888771703  0.39552043885424903  1.0000
  H   H45       1.0  0.003565499239355674  0.6009163590264445  0.485181517999154  1.0000
  H   H46       1.0  0.04850638637952454  0.6237357707192505  0.5272275178287632  1.0000
  H   H47       1.0  0.08701706076750418  0.6126052891305939  0.4015613675627476  1.0000
  H   H48       1.0  0.04230601283421365  0.5908495386756427  0.35873354378882416  1.0000
  C   C73       1.0  0.8416235161193774  0.5666238509163811  0.5129725954302212  1.0000
  C   C74       1.0  0.8216397854310127  0.5416607425335217  0.4939884264951761  1.0000
  C   C75       1.0  0.7940208860133107  0.530467500623307  0.5080572097255102  1.0000
  C   C76       1.0  0.7860000865420048  0.5439800978160636  0.5413613861240603  1.0000
  C   C77       1.0  0.8059694073083765  0.5690026789908704  0.5603332371632566  1.0000
  C   C78       1.0  0.833627141760568  0.5803004901887762  0.5459958396824051  1.0000
  H   H49       1.0  0.8273909962626816  0.5310479287311719  0.4681412254902652  1.0000
  H   H50       1.0  0.7787218044517857  0.5111773760398245  0.4929957448650988  1.0000
  H   H51       1.0  0.8000865847964364  0.5796862586725756  0.5858142772993512  1.0000
  H   H52       1.0  0.8489035362257272  0.5997282452877327  0.5606260388189547  1.0000
  C   C79       1.0  0.6451264897556167  0.14024527347171598  0.5875792932332522  1.0000
  C   C80       1.0  0.6304897866023301  0.15142508436478483  0.6090008736734503  1.0000
  C   C81       1.0  0.6020315135933786  0.13860755024201604  0.6034396475036286  1.0000
  C   C82       1.0  0.5882166105073838  0.1144398769481756  0.5769590479204014  1.0000
  C   C83       1.0  0.6028669242457508  0.10324664372993918  0.5555464870586289  1.0000
  C   C84       1.0  0.6313497315800821  0.11617915786373266  0.5607793711318539  1.0000
  H   H53       1.0  0.6412984364505777  0.17037566511618082  0.6288322460923575  1.0000
  H   H54       1.0  0.5908491075127554  0.14743744989821186  0.6196325940450732  1.0000
  H   H55       1.0  0.5921968732585186  0.08463949029796887  0.5347622968350424  1.0000
  H   H56       1.0  0.6426686716680444  0.10745464352902927  0.5444280029898522  1.0000
  C   C85       1.0  0.6751743463305643  0.046084713007564594  0.43571017611871343  1.0000
  C   C86       1.0  0.6830081990632936  0.044625109395224925  0.4832152653888532  1.0000
  C   C87       1.0  0.6756168953393963  0.019115810690920165  0.5039568968967811  1.0000
  C   C88       1.0  0.6599266101288437  0.994874060139491  0.4777994697318069  1.0000
  C   C89       1.0  0.6519347482435414  0.9963623379634997  0.4304696228262726  1.0000
  C   C90       1.0  0.6598184226189199  0.021855158173228743  0.4093938184880956  1.0000
  H   H57       1.0  0.6949518210734462  0.06313676776880094  0.5037617713856083  1.0000
  H   H58       1.0  0.6820408324683912  0.01816670108416396  0.5404982890229427  1.0000
  H   H59       1.0  0.6401536959267244  0.9779155305594238  0.4097207027717462  1.0000
  H   H60       1.0  0.6538217712869837  0.022818574542334737  0.37252400101545075  1.0000
  C   C91       1.0  0.9223895727240679  0.41994840685625173  0.5324935777389017  1.0000
  C   C92       1.0  0.9173514337495475  0.43233200099726893  0.4930425938205316  1.0000
  C   C93       1.0  0.9115610479846064  0.4533825285140364  0.5007933214310086  1.0000
  C   C94       1.0  0.9112019089300731  0.46234314026521595  0.5479421697012852  1.0000
  C   C95       1.0  0.9159739094300137  0.4497557383228953  0.5873751909778613  1.0000
  C   C96       1.0  0.9215214673699746  0.4285564434298708  0.5796880213222925  1.0000
  H   H61       1.0  0.9177064077057351  0.42551460105947125  0.456503411553561  1.0000
  H   H62       1.0  0.9071698959216407  0.4624721715675263  0.47029754460435946  1.0000
  H   H63       1.0  0.9156818877335668  0.45657268548164326  0.6239584980838713  1.0000
  H   H64       1.0  0.9253973060873777  0.4191174263612819  0.6103903579243568  1.0000
  C   C97       1.0  0.02955156706124895  0.37500577523648804  0.6756533446997597  1.0000
  C   C98       1.0  0.05349974592061657  0.37736153837139963  0.655394810005558  1.0000
  C   C99       1.0  0.07935233244178336  0.3960997482836026  0.6740541861783499  1.0000
  C   C100      1.0  0.08141991290226994  0.41187770913958827  0.7145502894009361  1.0000
  C   C101      1.0  0.05746729075207567  0.40949769048660173  0.7350159325138567  1.0000
  C   C102      1.0  0.03160603419197083  0.39153280675650726  0.7149609612621973  1.0000
  H   H65       1.0  0.05199516257025638  0.3645126207689125  0.6251495903546155  1.0000
  H   H66       1.0  0.09755559016559515  0.3975863108795441  0.6580775161325582  1.0000
  H   H67       1.0  0.058892991359236986  0.4214626096006975  0.7666200840065379  1.0000
  H   H68       1.0  0.013238589444889648  0.3897580892148037  0.730984920592818  1.0000
  C   C103      1.0  0.839804174401949  0.25959818534087015  0.6047639239128318  1.0000
  C   C104      1.0  0.8112301548616969  0.2425070299044429  0.6033500198778081  1.0000
  C   C105      1.0  0.7986587623084638  0.2243396160088504  0.5644870885742546  1.0000
  C   C106      1.0  0.8146155903362001  0.22284285866975906  0.5269597794014779  1.0000
  C   C107      1.0  0.843235525424381  0.23968470049043225  0.5287350814519985  1.0000
  C   C108      1.0  0.8557982498984075  0.25796829235534974  0.5674675886861882  1.0000
  H   H69       1.0  0.7986649316163651  0.24340064226052202  0.6322152715995598  1.0000
  H   H70       1.0  0.7766210664286193  0.21134308908975882  0.5637014079476832  1.0000
  H   H71       1.0  0.8557280087031927  0.23841663311468222  0.5001072801065206  1.0000
  H   H72       1.0  0.8778626152383578  0.2705514731204263  0.5686923645484331  1.0000
  C   C109      1.0  0.44289171704688  0.8644937532813235  0.9170236349627099  1.0000
  C   C110      1.0  0.44800251354650766  0.8750872542130386  0.8697583112046112  1.0000
  C   C111      1.0  0.4262947875581325  0.8715280164403133  0.8398845423249837  1.0000
  C   C112      1.0  0.39937962057496607  0.8579146532756925  0.8574516032469806  1.0000
  C   C113      1.0  0.39443304472728313  0.8480081883787259  0.9053167908401705  1.0000
  C   C114      1.0  0.4160161384444436  0.8508389157472137  0.9347168409598169  1.0000
  H   H73       1.0  0.46878191201225655  0.885871012573108  0.8560295731320028  1.0000
  H   H74       1.0  0.4305203379421429  0.879625729482764  0.8035405046619235  1.0000
  H   H75       1.0  0.3739370948020048  0.8382084744730001  0.9199770983354747  1.0000
  H   H76       1.0  0.4119396448090111  0.8429389945127397  0.9713919715232702  1.0000
  C   C115      1.0  0.5181847627605538  0.8621836506131236  0.2235769174001692  1.0000
  C   C116      1.0  0.5262492731257359  0.8790915402586091  0.2645898195023605  1.0000
  C   C117      1.0  0.5429291886470309  0.8771170543341342  0.3002290256261679  1.0000
  C   C118      1.0  0.5521869380652065  0.8585760152720652  0.29465401487070425  1.0000
  C   C119      1.0  0.5440901834245047  0.8415611019409567  0.25368162201697575  1.0000
  C   C120      1.0  0.5269207122612558  0.8431757425301387  0.21839305528300487  1.0000
  H   H77       1.0  0.5196071752283828  0.893854643725991  0.268837145301813  1.0000
  H   H78       1.0  0.5490206209493658  0.8903176458048458  0.33157012657674034  1.0000
  H   H79       1.0  0.5512267006880038  0.8272161924074581  0.24906425469243862  1.0000
  H   H80       1.0  0.5209565836279626  0.8301794313232398  0.18676685472694624  1.0000
  C   C121      1.0  0.4584282055124009  0.6889249610699338  0.11951896334879526  1.0000
  C   C122      1.0  0.44230793576617206  0.6818076800494145  0.07780905625856138  1.0000
  C   C123      1.0  0.4431244290608969  0.7020673384872559  0.047845235638245054  1.0000
  C   C124      1.0  0.45888185095054623  0.7294515620670393  0.060931629802600806  1.0000
  C   C125      1.0  0.47300088284269987  0.736537775659284  0.10500094329578857  1.0000
  C   C126      1.0  0.473049289821819  0.7162239528008117  0.13409127787968428  1.0000
  H   H81       1.0  0.4295566957882092  0.6606914627724372  0.0680499170184179  1.0000
  H   H82       1.0  0.43181835066456853  0.6965051177809677  0.014128761529937028  1.0000
  H   H83       1.0  0.4852019932820855  0.7577550820689918  0.11517353834237795  1.0000
  H   H84       1.0  0.48536357173317457  0.7218133386432926  0.1666339988329531  1.0000
  C   C127      1.0  0.41097356287448045  0.5276495895869454  0.20280001809924428  1.0000
  C   C128      1.0  0.4385081399077163  0.5435584482795054  0.215647774444469  1.0000
  C   C129      1.0  0.44621595595212576  0.5457837409160254  0.2645336050908421  1.0000
  C   C130      1.0  0.4264864567958058  0.531982528802297  0.30064976213097894  1.0000
  C   C131      1.0  0.3991072616853899  0.5150511647276143  0.2876338500404819  1.0000
  C   C132      1.0  0.39139911198511373  0.5127806634160692  0.23867377483560756  1.0000
  H   H85       1.0  0.4537729418362373  0.5546380565405402  0.18796671703958817  1.0000
  H   H86       1.0  0.46747798249536965  0.5586831041811628  0.27447832958359497  1.0000
  H   H87       1.0  0.38372616749951877  0.504525814993211  0.31535431208693343  1.0000
  H   H88       1.0  0.370074678224271  0.5002952166908011  0.22875242338046015  1.0000
  C   C133      1.0  0.5007938562869565  0.6217808532259322  0.9142898324689233  1.0000
  C   C134      1.0  0.4816788263666598  0.6286661614920928  0.8973779559283851  1.0000
  C   C135      1.0  0.486198055129649  0.6426084752588229  0.8530809927827662  1.0000
  C   C136      1.0  0.5096382614031946  0.6494265208082858  0.8251562719916811  1.0000
  C   C137      1.0  0.5284464669987856  0.6420529075695034  0.8415050026308077  1.0000
  C   C138      1.0  0.524062541484736  0.6283577307652929  0.8860532264607323  1.0000
  H   H89       1.0  0.4635145513589758  0.6233923009368785  0.91855709374958  1.0000
  H   H90       1.0  0.47150303746164834  0.6481518208590937  0.8404951875354195  1.0000
  H   H91       1.0  0.5465851711130314  0.6472386405039816  0.8202238957651263  1.0000
  H   H92       1.0  0.538899377165129  0.6230539397748833  0.8989000911837932  1.0000
  C   C139      1.0  0.19964519076437984  0.5650818469811794  0.8884821131944565  1.0000
  C   C140      1.0  0.218402636256454  0.5891117831707349  0.8647129694198947  1.0000
  C   C141      1.0  0.2233668399226914  0.5886996389975855  0.8147017826203494  1.0000
  C   C142      1.0  0.20962533086916432  0.5643060003439893  0.7883370430054941  1.0000
  C   C143      1.0  0.1908254603362412  0.5403547823281453  0.8121281489974547  1.0000
  C   C144      1.0  0.18585873114294071  0.5407716535663344  0.8620059303810923  1.0000
  H   H93       1.0  0.22907623409309752  0.607964364780995  0.8848355866224819  1.0000
  H   H94       1.0  0.23791019807853672  0.6073022717729072  0.7964508006349784  1.0000
  H   H95       1.0  0.17999016394910614  0.521499081113403  0.7920776522283661  1.0000
  H   H96       1.0  0.1712453511472886  0.5221418497120484  0.8801482334251463  1.0000
  C   C145      1.0  0.31487159335902887  0.611451554780252  0.07863730465169355  1.0000
  C   C146      1.0  0.3267587254999109  0.596676989781511  0.09621439813042428  1.0000
  C   C147      1.0  0.3446889820321049  0.5925654551074538  0.06683161955297658  1.0000
  C   C148      1.0  0.35141444681507156  0.6038461438217094  0.02026656043328079  1.0000
  C   C149      1.0  0.3395263547229464  0.6186542264016446  0.0026531857961411554  1.0000
  C   C150      1.0  0.3212330933793516  0.6223916513783452  0.0317670557137395  1.0000
  H   H97       1.0  0.3216072073682434  0.5878241308821124  0.13218213625308115  1.0000
  H   H98       1.0  0.35252658251875346  0.5798531080087528  0.07966746082978175  1.0000
  H   H99       1.0  0.34454907117317063  0.6272784299103031  0.9665007917162873  1.0000
  H   H100      1.0  0.31242758227518397  0.6340651080705209  0.018071748747162886  1.0000
  C   C151      1.0  0.3031478761593817  0.7253012514342659  0.013100870743967485  1.0000
  C   C152      1.0  0.298045871073313  0.7271228400021381  0.062194227813156144  1.0000
  C   C153      1.0  0.31940150205595197  0.7448653579482025  0.09268789279429948  1.0000
  C   C154      1.0  0.34591783998141434  0.7609503961127823  0.07417023999727362  1.0000
  C   C155      1.0  0.35084779779178327  0.7598237347693194  0.024646400703792093  1.0000
  C   C156      1.0  0.32948112013532  0.7419100162116544  0.9941678850954003  1.0000
  H   H101      1.0  0.2775532737222718  0.715063325357472  0.07664989545068678  1.0000
  H   H102      1.0  0.3154004311792297  0.7459294290588057  0.13083520072245736  1.0000
  H   H103      1.0  0.3710979097970942  0.7724766847181624  0.00989425867336613  1.0000
  H   H104      1.0  0.33352398573608333  0.7403174203621816  0.9562892020656046  1.0000
  C   C157      1.0  0.18336621347824358  0.6444170375038493  0.1928585050291186  1.0000
  C   C158      1.0  0.1642933345969474  0.6363701936458492  0.23087171765248926  1.0000
  C   C159      1.0  0.1676472164645323  0.6545192200557222  0.2682709926926208  1.0000
  C   C160      1.0  0.18980730665313286  0.6811438571129569  0.2675068029601376  1.0000
  C   C161      1.0  0.20846652977021948  0.6895912536247607  0.22861474400419463  1.0000
  C   C162      1.0  0.205471007310528  0.6711389928349101  0.1915996583766896  1.0000
  H   H105      1.0  0.1470041893713952  0.6158220290970539  0.23173224140834606  1.0000
  H   H106      1.0  0.15275715663845285  0.6479446078242844  0.2972144483873695  1.0000
  H   H107      1.0  0.2255452135113502  0.7102492095900172  0.22759892772364718  1.0000
  H   H108      1.0  0.22018275124088646  0.6775830366363572  0.16219501450022655  1.0000
  C   C163      1.0  0.6386944063733717  0.15720791185269067  0.2353651469639155  1.0000
  C   C164      1.0  0.6488404397294447  0.18478267096950374  0.24534857045990335  1.0000
  C   C165      1.0  0.6657136668277657  0.19686011938337436  0.28582986287758644  1.0000
  C   C166      1.0  0.67267434801348  0.18150477364528497  0.3163930734910427  1.0000
  C   C167      1.0  0.6624063791009235  0.15389393085917377  0.3066791715106235  1.0000
  C   C168      1.0  0.6453215467682795  0.14176211121190524  0.26639711872390703  1.0000
  H   H109      1.0  0.6434769909873674  0.196733667532836  0.2221414544534102  1.0000
  H   H110      1.0  0.6734872574556513  0.2182096718190371  0.2933816842681177  1.0000
  H   H111      1.0  0.6676870141920592  0.14188968115212147  0.33005208846210105  1.0000
  H   H112      1.0  0.6374809973256013  0.12038867119423353  0.25890197321988984  1.0000
  C   C169      1.0  0.5662483695745878  0.14448672548972308  0.9038641128129544  1.0000
  C   C170      1.0  0.5869198881383555  0.169898046523812  0.8876296225261829  1.0000
  C   C171      1.0  0.5846944890916671  0.17984762795109402  0.8422815888529341  1.0000
  C   C172      1.0  0.5620031546685309  0.1643049314435754  0.812491347283018  1.0000
  C   C173      1.0  0.5413334580979632  0.13878818616667976  0.8284636042627896  1.0000
  C   C174      1.0  0.5434569761820872  0.12892708713219728  0.8741596395373133  1.0000
  H   H113      1.0  0.604819817318242  0.18177350059872338  0.9097362140982493  1.0000
  H   H114      1.0  0.6008052212280774  0.19955921288132603  0.8299376244867419  1.0000
  H   H115      1.0  0.5236624463581514  0.12675586339775421  0.8057951487398952  1.0000
  H   H116      1.0  0.5273636747017413  0.10922995321848047  0.8865834865651366  1.0000
  C   C175      1.0  0.6336474634673596  0.3193506274487486  0.023684877245043312  1.0000
  C   C176      1.0  0.6133245944272326  0.31443225242180906  0.05797709760377399  1.0000
  C   C177      1.0  0.5990112087261892  0.28885763592727937  0.08092160098153367  1.0000
  C   C178      1.0  0.6057334361317265  0.26866638044175684  0.07082070278805154  1.0000
  C   C179      1.0  0.6268915624575399  0.2742203007365541  0.038156867039612186  1.0000
  C   C180      1.0  0.6401616985827019  0.29910903929374144  0.013498437308827604  1.0000
  H   H117      1.0  0.6082164555372347  0.3300397274185935  0.06592751348560963  1.0000
  H   H118      1.0  0.5827746199994707  0.28473419207721873  0.10648243159062616  1.0000
  H   H119      1.0  0.6328384773305675  0.259236197862975  0.03118350287151972  1.0000
  H   H120      1.0  0.6558712268474456  0.3028342493543289  0.9870025322716949  1.0000
  C   C181      1.0  0.6641858573722557  0.48210637442529264  0.8950155974459463  1.0000
  C   C182      1.0  0.6920377921680416  0.49234930788742504  0.9040388945211255  1.0000
  C   C183      1.0  0.7119008992417506  0.5124001200437606  0.8733371086935221  1.0000
  C   C184      1.0  0.7040340410999976  0.5217729536619129  0.8327887703515743  1.0000
  C   C185      1.0  0.6761574868111547  0.511317277136802  0.8235705390899458  1.0000
  C   C186      1.0  0.6563460810242059  0.4919053293425122  0.8550520587008449  1.0000
  H   H121      1.0  0.6983165224870675  0.48502357866057777  0.9348990331757311  1.0000
  H   H122      1.0  0.7334278844263079  0.5204609340821236  0.8808074828750325  1.0000
  H   H123      1.0  0.6698273994458391  0.5185119507820063  0.7926973127553211  1.0000
  H   H124      1.0  0.6348594867056947  0.484416499195278  0.8483548756463779  1.0000
  C   C187      1.0  0.587829133313534  0.3936756333848676  0.19241190854928422  1.0000
  C   C188      1.0  0.5738882656898963  0.3985407181772525  0.22982137292878935  1.0000
  C   C189      1.0  0.5576333415817984  0.3779139539407043  0.2631372896208295  1.0000
  C   C190      1.0  0.5549163990318035  0.35212585458513074  0.25895209114137824  1.0000
  C   C191      1.0  0.5686034510245229  0.34712887699995043  0.2211770207256119  1.0000
  C   C192      1.0  0.5851933476658872  0.36790727425954745  0.18812899721296536  1.0000
  H   H125      1.0  0.5757956054582044  0.4184174180701041  0.2332826408690585  1.0000
  H   H126      1.0  0.5468801877381706  0.3818718753625815  0.29164913341862503  1.0000
  H   H127      1.0  0.5665933006514149  0.32720821718462534  0.21771728232491586  1.0000
  H   H128      1.0  0.5958757281292429  0.36396064868779676  0.15940787273544607  1.0000
  C   C193      1.0  0.892248935842988  0.4592616738528201  0.20162775422979992  1.0000
  C   C194      1.0  0.9100686072258992  0.4823609737449308  0.22876960636803795  1.0000
  C   C195      1.0  0.9005433929732147  0.48971272962326406  0.27015801991639454  1.0000
  C   C196      1.0  0.8731235304602138  0.47396238989053313  0.28445943480800717  1.0000
  C   C197      1.0  0.8555385573770732  0.4505282414598561  0.25799848618788734  1.0000
  C   C198      1.0  0.8650607071133373  0.4431672299482068  0.21682503525463423  1.0000
  H   H129      1.0  0.9311693386940852  0.49483654773588365  0.217345428946325  1.0000
  H   H130      1.0  0.9142390175553082  0.5078710479574461  0.29028907051293507  1.0000
  H   H131      1.0  0.8343963198872225  0.4380503591308864  0.26922159903392845  1.0000
  H   H132      1.0  0.8513296703342533  0.42498305989333846  0.1969533423964063  1.0000
  C   C199      1.0  0.7922774638351261  0.43974884979303974  0.004972439640176685  1.0000
  C   C200      1.0  0.7969340434700427  0.44599164347424597  0.05433503383511749  1.0000
  C   C201      1.0  0.7804786112432893  0.45365474056249583  0.08031098193457431  1.0000
  C   C202      1.0  0.7596774205409995  0.45571018714608086  0.056796903648721836  1.0000
  C   C203      1.0  0.7557712552088158  0.4506305408448807  0.006963956015732187  1.0000
  C   C204      1.0  0.7719725000130551  0.4425438768607512  0.9811143061076875  1.0000
  H   H133      1.0  0.8132655899039811  0.4450363922007551  0.07244922267851797  1.0000
  H   H134      1.0  0.783300630181753  0.457197608340177  0.11886348394857198  1.0000
  H   H135      1.0  0.7404706248517465  0.4531680457177102  0.9881627118804424  1.0000
  H   H136      1.0  0.7685434500939071  0.43815650394217065  0.942729409685518  1.0000
  C   C205      1.0  0.759273588470026  0.3048020713364249  0.10283957808274467  1.0000
  C   C206      1.0  0.7325703032292548  0.2887861384394381  0.12050922699393997  1.0000
  C   C207      1.0  0.7131797331231454  0.2665221388718942  0.09358803955600765  1.0000
  C   C208      1.0  0.720567542399139  0.25974341228933767  0.04949944732920297  1.0000
  C   C209      1.0  0.7473967319624387  0.2756257614312577  0.032116790490578584  1.0000
  C   C210      1.0  0.7667008463762877  0.2982154235211279  0.05861922087713989  1.0000
  H   H137      1.0  0.7267587491680758  0.29384761837600865  0.1547403401671603  1.0000
  H   H138      1.0  0.6926177568636169  0.25470919805197106  0.10713856098320644  1.0000
  H   H139      1.0  0.7533004396860116  0.2703744765611837  0.9981824235442325  1.0000
  H   H140      1.0  0.7874553979694875  0.3101394801093656  0.04530010481567426  1.0000
  C   C211      1.0  0.8953553642371291  0.37485189877195607  0.9155352074780415  1.0000
  C   C212      1.0  0.909314513513346  0.36472363255412493  0.888103365026062  1.0000
  C   C213      1.0  0.9161685055611837  0.37246941746113926  0.8392999015612758  1.0000
  C   C214      1.0  0.9093214036764384  0.390605261453561  0.8179736293035595  1.0000
  C   C215      1.0  0.8955871144766285  0.4008865176990165  0.8455838187021792  1.0000
  C   C216      1.0  0.8884336507446824  0.3928963838309785  0.8941425485511066  1.0000
  H   H141      1.0  0.9148642458598228  0.3508767056947453  0.9046531000147253  1.0000
  H   H142      1.0  0.9271673204232916  0.36482108997549056  0.8184501653607038  1.0000
  H   H143      1.0  0.8902954487103515  0.4149744125238665  0.8292252297169828  1.0000
  H   H144      1.0  0.8776235274736911  0.4007667722817276  0.9149704728178841  1.0000
  N   N1        1.0  0.3085536439185288  0.7835737287727017  0.8851771623220702  1.0000
  C   C217      1.0  0.30022059836159176  0.7828711255037683  0.8341519896953613  1.0000
  C   C218      1.0  0.3342666524142396  0.7826332785814082  0.8864995100997638  1.0000
  C   C219      1.0  0.2868747341771298  0.7598729126822198  0.9117139281780652  1.0000
  C   C220      1.0  0.312864126315769  0.8089237642744399  0.9083720984259339  1.0000
  H   H145      1.0  0.28088996880638806  0.7835447414460729  0.8316235462851957  1.0000
  H   H146      1.0  0.29693939885198123  0.7640717492741481  0.8155000945697631  1.0000
  H   H147      1.0  0.3162221953938958  0.8006420296336387  0.8133088388429154  1.0000
  H   H148      1.0  0.3423451519980948  0.7852017189467687  0.9240944445004141  1.0000
  H   H149      1.0  0.3312511469118723  0.7629459711109993  0.8723735082413339  1.0000
  H   H150      1.0  0.3505291123065934  0.7990922396564699  0.8639071982882701  1.0000
  H   H151      1.0  0.2924239718364185  0.7600342869413096  0.9505059788516819  1.0000
  H   H152      1.0  0.28333240359258055  0.7402749700170919  0.8960079746706514  1.0000
  H   H153      1.0  0.26701470481504497  0.759569337140787  0.9109805746490836  1.0000
  H   H154      1.0  0.3198017519656538  0.810447427738997  0.9466169030796869  1.0000
  H   H155      1.0  0.29374995129386783  0.810067696853476  0.9086478654601856  1.0000
  H   H156      1.0  0.32871279956560345  0.8272682651080524  0.8887879709265434  1.0000
  N   N2        1.0  0.2600538583671999  0.5511214246219394  0.9613989444650262  1.0000
  C   C221      1.0  0.25123664279728003  0.5546786694254365  0.010128556046161918  1.0000
  C   C222      1.0  0.26904155342164854  0.5761516155922238  0.9325153656005302  1.0000
  C   C223      1.0  0.23685346278338074  0.5279208655310095  0.9367676834306193  1.0000
  C   C224      1.0  0.28302747351745294  0.5457599684515393  0.9661324026499274  1.0000
  H   H157      1.0  0.24461709054313482  0.5363441644258071  0.033222446576937736  1.0000
  H   H158      1.0  0.2336954266313925  0.558427557833365  0.007867336075653375  1.0000
  H   H159      1.0  0.2680101288840525  0.5723145540537572  0.02948636845007835  1.0000
  H   H160      1.0  0.27500366441712043  0.5739630967402487  0.8949655399865741  1.0000
  H   H161      1.0  0.2524157368859908  0.5811682385488798  0.9295082126536384  1.0000
  H   H162      1.0  0.28691746376289534  0.5939751336771684  0.9493379656028543  1.0000
  H   H163      1.0  0.21904112583497898  0.5311851751591454  0.9334279994419691  1.0000
  H   H164      1.0  0.22967802381288166  0.508605339675927  0.9572078385318009  1.0000
  H   H165      1.0  0.24249953069598315  0.5250325851724966  0.8993911455002912  1.0000
  H   H166      1.0  0.30068489542188664  0.5626809656512027  0.9852615435759148  1.0000
  H   H167      1.0  0.2906104564248621  0.5435564609326748  0.9300218774295044  1.0000
  H   H168      1.0  0.2769502709582919  0.5268562079107351  0.9872582534898778  1.0000
  N   N3        1.0  0.5140562461852701  0.7083649742482296  0.9736658559099938  1.0000
  C   C225      1.0  0.48746173301281154  0.7010648247130841  0.9512786243600394  1.0000
  C   C226      1.0  0.512023183014282  0.7101572407120038  0.026889665790434725  1.0000
  C   C227      1.0  0.5353978679828342  0.7349909563884836  0.95447876808311  1.0000
  C   C228      1.0  0.5213608311787418  0.6873482243953262  0.9619808679326086  1.0000
  H   H169      1.0  0.48817046809103015  0.6992318821612588  0.9111314516074387  1.0000
  H   H170      1.0  0.4814344953288679  0.7166326637482446  0.9592688072667392  1.0000
  H   H171      1.0  0.4707628913380699  0.6812367465473681  0.9651686498378781  1.0000
  H   H172      1.0  0.49595298020362777  0.6904565852184489  0.04257251905417947  1.0000
  H   H173      1.0  0.5316445346894799  0.715484199947302  0.04510019304452051  1.0000
  H   H174      1.0  0.5066761157146443  0.7259305321699864  0.036992159008142345  1.0000
  H   H175      1.0  0.5557567289721761  0.7412625600649111  0.9706713282823457  1.0000
  H   H176      1.0  0.5304059509489055  0.751278912660686  0.9625645597106827  1.0000
  H   H177      1.0  0.537501487098636  0.7342910370186768  0.9143589329678711  1.0000
  H   H178      1.0  0.5229652408827298  0.6852903452882687  0.9220724247567119  1.0000
  H   H179      1.0  0.5057786763655475  0.6669933127427199  0.9761816239849118  1.0000
  H   H180      1.0  0.5413539361832981  0.6921988228774786  0.9780996617234602  1.0000
  N   N4        1.0  0.5916601176955576  0.5991967351938053  0.5742766841709601  1.0000
  C   C229      1.0  0.5699705752584305  0.5814439276760702  0.5398245497719955  1.0000
  C   C230      1.0  0.5790707419786209  0.5995491717554198  0.6211892994848137  1.0000
  C   C231      1.0  0.6069209390102024  0.6271741807296061  0.554506081854725  1.0000
  C   C232      1.0  0.6106464824491286  0.5886923298002116  0.5816529143651649  1.0000
  H   H181      1.0  0.5554333843132867  0.5889872020478983  0.5332015066098116  1.0000
  H   H182      1.0  0.5577797312342374  0.5602528199031707  0.5538637506416753  1.0000
  H   H183      1.0  0.5787535063168797  0.5806184653163994  0.5040703917904954  1.0000
  H   H184      1.0  0.5647432608408617  0.607456704589462  0.6168198528725705  1.0000
  H   H185      1.0  0.5673767138364524  0.578851809589328  0.6374240073108562  1.0000
  H   H186      1.0  0.5947871121311861  0.6129179045327529  0.6480030292271008  1.0000
  H   H187      1.0  0.5930614023041535  0.6355368791446233  0.5478576458563673  1.0000
  H   H188      1.0  0.617123635976004  0.6278548617967535  0.5194973954391311  1.0000
  H   H189      1.0  0.6230900393028874  0.6412532357240576  0.580065240466936  1.0000
  H   H190      1.0  0.6270946427283415  0.601565285179038  0.6076799512547705  1.0000
  H   H191      1.0  0.6208641328541468  0.5884452240138502  0.5471752397389087  1.0000
  H   H192      1.0  0.5998755150141558  0.5676073984679345  0.5965281405590491  1.0000
  N   N5        1.0  0.8491692993062883  0.5165334791234585  0.6219334542250756  1.0000
  C   C233      1.0  0.849805390102861  0.5234520676196404  0.6737929622130561  1.0000
  C   C234      1.0  0.8227069129610891  0.5105818876843472  0.6007636505603247  1.0000
  C   C235      1.0  0.8524087495516102  0.4923546100279769  0.6170109872765656  1.0000
  C   C236      1.0  0.87177818646173  0.5397866727712225  0.5960461410788623  1.0000
  H   H193      1.0  0.8472658029677014  0.5415703945255174  0.6785543781700322  1.0000
  H   H194      1.0  0.8695923121835882  0.5282152422960775  0.6907884895493558  1.0000
  H   H195      1.0  0.8330648624342425  0.5063180900633204  0.6945079511437263  1.0000
  H   H196      1.0  0.8214298851623885  0.504935402050089  0.5617711343121659  1.0000
  H   H197      1.0  0.8050699856502685  0.49344219217935287  0.6197701454066178  1.0000
  H   H198      1.0  0.8198033384213411  0.5285807780558829  0.6029357924045233  1.0000
  H   H199      1.0  0.8355803206621434  0.474264693362367  0.6355663276238238  1.0000
  H   H200      1.0  0.8721394884278277  0.4960466127875455  0.6327586648663716  1.0000
  H   H201      1.0  0.8524588791855694  0.4868958595963708  0.5781557832032224  1.0000
  H   H202      1.0  0.892155894773427  0.5444921247559193  0.6100806854198247  1.0000
  H   H203      1.0  0.8702234215840853  0.558545918020532  0.5992117721638852  1.0000
  H   H204      1.0  0.8715346049394022  0.5355053756723988  0.5566503159031106  1.0000
  N   N6        1.0  0.4569111212270323  0.6141134032795318  0.6742981792981485  1.0000
  C   C237      1.0  0.4626541598900483  0.6418853148642507  0.6862495367656904  1.0000
  C   C238      1.0  0.42785274254546024  0.5942656634476726  0.6847242349878534  1.0000
  C   C239      1.0  0.4745363157997019  0.6074762832533758  0.7040449718643841  1.0000
  C   C240      1.0  0.4626538696671385  0.612834138988239  0.6222636929044603  1.0000
  H   H205      1.0  0.4592037079309862  0.6437994589041474  0.7255453784725908  1.0000
  H   H206      1.0  0.44952419298800045  0.647578685731322  0.66509955807617  1.0000
  H   H207      1.0  0.4844213338376909  0.6573273202720632  0.6784050639838197  1.0000
  H   H208      1.0  0.42293322993360394  0.5730871748087011  0.6760880585719267  1.0000
  H   H209      1.0  0.42288243411255594  0.5947025765369769  0.7237548348820386  1.0000
  H   H210      1.0  0.413904811010569  0.5985800512483177  0.6628648297810805  1.0000
  H   H211      1.0  0.47120834043050003  0.6088533495792793  0.7435920020707  1.0000
  H   H212      1.0  0.4965815145644093  0.6219243440875183  0.6967669364674336  1.0000
  H   H213      1.0  0.4705960118553702  0.5865615303519995  0.6965853701488038  1.0000
  H   H214      1.0  0.4574578810673849  0.591886183074367  0.6114850123391459  1.0000
  H   H215      1.0  0.48472807756100184  0.6266870567721674  0.6134892931445516  1.0000
  H   H216      1.0  0.45051202436696897  0.6187608887834505  0.5987470837484345  1.0000
  N   N7        1.0  0.1659965213056833  0.395637208370287  0.725759434967563  1.0000
  C   C241      1.0  0.14233706129340465  0.37534802688578156  0.7544687756363672  1.0000
  C   C242      1.0  0.1806566548439437  0.42127223412865317  0.7535199611885167  1.0000
  C   C243      1.0  0.15609732695249542  0.4008207487768307  0.6797188697880268  1.0000
  C   C244      1.0  0.18488245220027352  0.385334058140527  0.7151046350461421  1.0000
  H   H217      1.0  0.1306927838508153  0.3557455482512481  0.7345757918968296  1.0000
  H   H218      1.0  0.12776141348623754  0.3827600051593053  0.7625923019232611  1.0000
  H   H219      1.0  0.14893861460117827  0.37103045452747024  0.789738461437584  1.0000
  H   H220      1.0  0.16697363923375239  0.42966828176349664  0.7619666260821198  1.0000
  H   H221      1.0  0.18847713628073223  0.41822459751285207  0.7885433499078223  1.0000
  H   H222      1.0  0.19858375681412993  0.4370814726256763  0.7326993697013623  1.0000
  H   H223      1.0  0.14221849946260312  0.4090959123555196  0.6866122475998937  1.0000
  H   H224      1.0  0.1445589639006395  0.3819088807281374  0.6579533806800912  1.0000
  H   H225      1.0  0.17343914351795864  0.41585467988280117  0.6568545783026476  1.0000
  H   H226      1.0  0.20286564871169852  0.40043715868588453  0.6933250321451647  1.0000
  H   H227      1.0  0.17457148453955268  0.3661015747161607  0.6938304989179964  1.0000
  H   H228      1.0  0.19291026239708498  0.3812847866597021  0.7489906680145191  1.0000
  N   N8        1.0  0.22538965886334147  0.6164393488131062  0.2789673813394856  1.0000
  C   C245      1.0  0.23713017176583379  0.6222345499499344  0.22938215747735016  1.0000
  C   C246      1.0  0.24002333296718853  0.606399354809335  0.3093621076978335  1.0000
  C   C247      1.0  0.19605687022957516  0.5954656988785352  0.27682211509628835  1.0000
  C   C248      1.0  0.2282663149205999  0.6416186484763018  0.30046735832481575  1.0000
  H   H229      1.0  0.23470206188904044  0.6035607531929613  0.21145113649662767  1.0000
  H   H230      1.0  0.25934966936065584  0.6376411301725232  0.2295576783882708  1.0000
  H   H231      1.0  0.226850823094812  0.6303323175348851  0.2058148773174924  1.0000
  H   H232      1.0  0.26214576650411847  0.6218427208052253  0.3124272661261517  1.0000
  H   H233      1.0  0.2314072115502224  0.6015847019429491  0.34687345896979516  1.0000
  H   H234      1.0  0.23843131485760333  0.5875074173813556  0.2940406915237825  1.0000
  H   H235      1.0  0.18638771659985517  0.5911986470866021  0.3135281730844813  1.0000
  H   H236      1.0  0.19309313797266117  0.5759816810104695  0.2617491974449954  1.0000
  H   H237      1.0  0.1845218361896548  0.6020243419785721  0.25305269230978766  1.0000
  H   H238      1.0  0.2500871688793361  0.6579786826973116  0.30268261668968677  1.0000
  H   H239      1.0  0.21951286142399465  0.6379901803474879  0.3378161997389816  1.0000
  H   H240      1.0  0.217362884910261  0.649648155991849  0.2786019058430102  1.0000
  N   N9        1.0  0.5939108896102745  0.11594103769683346  0.7474890658946993  1.0000
  C   C249      1.0  0.5985231500199849  0.14303457837849548  0.7332104940409652  1.0000
  C   C250      1.0  0.5859798637302593  0.09801751902587122  0.704462846087935  1.0000
  C   C251      1.0  0.5717956978776705  0.10386146801885991  0.784181615233795  1.0000
  C   C252      1.0  0.6193992317725482  0.11893045171889281  0.7682559603428267  1.0000
  H   H241      1.0  0.6038040669213909  0.1568497973168047  0.7650120038852002  1.0000
  H   H242      1.0  0.5799402823190515  0.14161733726599948  0.7163567396254316  1.0000
  H   H243      1.0  0.6155680747088781  0.1531567922530329  0.7066333617821985  1.0000
  H   H244      1.0  0.56772837586041  0.09657737195291875  0.6860625500332626  1.0000
  H   H245      1.0  0.6028484117780227  0.10570949448806137  0.6772376719554613  1.0000
  H   H246      1.0  0.5808605407492637  0.07698003236964489  0.7143308365377353  1.0000
  H   H247      1.0  0.5524635136944929  0.1020613703546457  0.7701367392561806  1.0000
  H   H248      1.0  0.5774645539501646  0.1165697484439765  0.8175760322984857  1.0000
  H   H249      1.0  0.567244286664948  0.08314843464272438  0.7952221570666561  1.0000
  H   H250      1.0  0.6166906304949774  0.09889540772015085  0.7795467943021268  1.0000
  H   H251      1.0  0.6259419759766077  0.13238767063634543  0.8007793662876175  1.0000
  H   H252      1.0  0.6365488749083763  0.1280834678070233  0.7414404849576689  1.0000
  N   N10       1.0  0.5727693202184775  0.43902094702700223  0.0357893080624192  1.0000
  C   C253      1.0  0.6016089574108008  0.4566813360507725  0.050231989089527605  1.0000
  C   C254      1.0  0.5717752615715778  0.43039093013515817  0.9848366813839615  1.0000
  C   C255      1.0  0.558040385516605  0.4543194476431112  0.04048045337519989  1.0000
  C   C256      1.0  0.5598259225246669  0.4147607458414312  0.06765412769311442  1.0000
  H   H253      1.0  0.6033918183382254  0.46340479289318  0.0886959807879434  1.0000
  H   H254      1.0  0.6123331441633021  0.4750592427769381  0.02667793039021693  1.0000
  H   H255      1.0  0.6130523715440649  0.4456007092836724  0.04709654120555004  1.0000
  H   H256      1.0  0.5503610578245738  0.4171067407971312  0.9723588432626408  1.0000
  H   H257      1.0  0.5818901372540345  0.4482455913812422  0.9599144033732379  1.0000
  H   H258      1.0  0.5828112949872852  0.41884968080673596  0.9801188880113252  1.0000
  H   H259      1.0  0.53616700038524  0.4416105126501551  0.029892215286564383  1.0000
  H   H260      1.0  0.5674133998067037  0.47278938218841543  0.016959308809005202  1.0000
  H   H261      1.0  0.5585760771800924  0.4611808000738233  0.07854768778265836  1.0000
  H   H262      1.0  0.560541408080335  0.42056209869196853  0.10649774087044063  1.0000
  H   H263      1.0  0.57066391769424  0.40290899101296607  0.06533937748782996  1.0000
  H   H264      1.0  0.5380375046848545  0.4008310145525353  0.05792745080688641  1.0000
  N   N11       1.0  0.645142380083609  0.43533649810042485  0.7441553838909073  1.0000
  C   C257      1.0  0.6716368434395594  0.4514148301580946  0.7693399025298086  1.0000
  C   C258      1.0  0.649905764624394  0.43534385080537824  0.691357835421037  1.0000
  C   C259      1.0  0.6277722338108002  0.4475423515659428  0.7535058702989309  1.0000
  C   C260      1.0  0.6311706693330196  0.4070299562289948  0.7624590911333579  1.0000
  H   H265      1.0  0.668749306412425  0.45174818467784034  0.8093063781122296  1.0000
  H   H266      1.0  0.6826453238679058  0.4729828041111482  0.7567620509258626  1.0000
  H   H267      1.0  0.6854188384153406  0.4429791339478471  0.7628774771940836  1.0000
  H   H268      1.0  0.6303498078974688  0.42311693322491367  0.6712580081379954  1.0000
  H   H269      1.0  0.6596478986157803  0.4562885624741175  0.6761422496013583  1.0000
  H   H270      1.0  0.6634616477002042  0.4269035411246902  0.682696191597095  1.0000
  H   H271      1.0  0.6084813222058161  0.43729410361178417  0.732083482012612  1.0000
  H   H272      1.0  0.6384907207580333  0.4694667513125999  0.7430502874467091  1.0000
  H   H273      1.0  0.6221843788234199  0.4462016394692754  0.7925511173633031  1.0000
  H   H274      1.0  0.6109589566566154  0.39444763730711435  0.7445727882563297  1.0000
  H   H275      1.0  0.6275039103092167  0.4063001106314673  0.8023413976548989  1.0000
  H   H276      1.0  0.6436048753925288  0.39711527919840217  0.7555217459741455  1.0000
  N   N12       1.0  0.6292270650122035  0.4047055505257483  0.35013144141522307  1.0000
  C   C261      1.0  0.6529136939344736  0.41405644767496574  0.3830100035823887  1.0000
  C   C262      1.0  0.609502555555806  0.37562210137101015  0.3595144901077583  1.0000
  C   C263      1.0  0.638677129549979  0.408159134541029  0.29915886280759263  1.0000
  C   C264      1.0  0.6157806508149152  0.42097553405010557  0.3588479023868498  1.0000
  H   H277      1.0  0.6634303593847884  0.40208089345858095  0.37785257916481274  1.0000
  H   H278      1.0  0.6464161426946662  0.41183130644473237  0.4217814981479532  1.0000
  H   H279      1.0  0.6682145773939154  0.43592959757292055  0.37697951456545825  1.0000
  H   H280      1.0  0.6022475767936397  0.37213592906588183  0.39779789377314495  1.0000
  H   H281      1.0  0.5910501655882187  0.36806290191383745  0.3362913658728037  1.0000
  H   H282      1.0  0.6187181401564711  0.36262299243674484  0.3524184452890867  1.0000
  H   H283      1.0  0.6491646061817934  0.39638546416800735  0.29132575049987136  1.0000
  H   H284      1.0  0.6531942060310956  0.4299112387633356  0.29033855751543314  1.0000
  H   H285      1.0  0.6212071967265063  0.40088898717822563  0.2735558462289186  1.0000
  H   H286      1.0  0.6300294777657002  0.44302151414283925  0.3520795378225815  1.0000
  H   H287      1.0  0.6084742349421606  0.4188949462503957  0.3970786801479537  1.0000
  H   H288      1.0  0.5976999791088429  0.4143800321907906  0.3348928254426259  1.0000
  N   N13       1.0  0.7185380080864349  0.6164856681896295  0.8007115286290936  1.0000
  C   C265      1.0  0.7134173789204804  0.6396196315476699  0.7999099678896737  1.0000
  C   C266      1.0  0.7298424964765526  0.6146658037419633  0.7533377990249539  1.0000
  C   C267      1.0  0.6925598843427356  0.5909342963464552  0.8101762943619732  1.0000
  C   C268      1.0  0.738381787921335  0.6205922418340735  0.839302832254229  1.0000
  H   H289      1.0  0.6987671632403084  0.6371872227044504  0.7706348734799916  1.0000
  H   H290      1.0  0.7326191359415996  0.659244054433225  0.7930227239896942  1.0000
  H   H291      1.0  0.704565921490576  0.6414956366101369  0.8348663724508365  1.0000
  H   H292      1.0  0.7343090740290011  0.5976649114237197  0.7530149193731507  1.0000
  H   H293      1.0  0.7153225477456936  0.6111479045233403  0.7232944314121541  1.0000
  H   H294      1.0  0.7492641208532929  0.6336958350811682  0.7445145450178042  1.0000
  H   H295      1.0  0.6956741744094428  0.5730296824675842  0.8102667515290248  1.0000
  H   H296      1.0  0.6769955745804497  0.5872208410409638  0.7820314809783309  1.0000
  H   H297      1.0  0.6836512983995527  0.5914215693186554  0.8459826205372662  1.0000
  H   H298      1.0  0.7424441368509977  0.6032555542783186  0.8406740714293381  1.0000
  H   H299      1.0  0.7306432589735492  0.6221340978879959  0.8756757526791147  1.0000
  H   H300      1.0  0.7583760465181759  0.639502139433665  0.8330848104824711  1.0000
  N   N14       1.0  0.41053055734042837  0.44625966834874986  0.2971643092308401  1.0000
  C   C269      1.0  0.41509979799976243  0.42282277880803126  0.3004572282070729  1.0000
  C   C270      1.0  0.4246145645109187  0.46507198135469996  0.33778062004579923  1.0000
  C   C271      1.0  0.38083834839200853  0.4364283714696375  0.30011729054114816  1.0000
  C   C272      1.0  0.4215461791321713  0.46075847483484467  0.250684463789602  1.0000
  H   H301      1.0  0.40509112850726925  0.4082946639794443  0.2700396331969207  1.0000
  H   H302      1.0  0.40656171451859024  0.41129071702242387  0.3349275168903968  1.0000
  H   H303      1.0  0.4373269858335987  0.4295008643996339  0.2997526037705493  1.0000
  H   H304      1.0  0.4216447140034362  0.48298099533742306  0.33659638318546165  1.0000
  H   H305      1.0  0.4165113739454602  0.45484211446270845  0.3732201652103213  1.0000
  H   H306      1.0  0.447059462401563  0.4728484911175125  0.33723566539543776  1.0000
  H   H307      1.0  0.37664717306838036  0.4536105680807508  0.2979079852283583  1.0000
  H   H308      1.0  0.3719449052528064  0.4255244002767766  0.3350186827342796  1.0000
  H   H309      1.0  0.36946371331611483  0.4220788990564836  0.270125651484702  1.0000
  H   H310      1.0  0.4185252941970054  0.478663349441325  0.24741233816347097  1.0000
  H   H311      1.0  0.41125578408706465  0.44728194694541806  0.2190842081796415  1.0000
  H   H312      1.0  0.4439280743417562  0.4685110657248977  0.2473603588267595  1.0000
  N   N15       1.0  0.3623713721350711  0.9421425921172003  0.5678997978773656  1.0000
  C   C273      1.0  0.357524301308383  0.9329602731578988  0.6189676061690753  1.0000
  C   C274      1.0  0.3728922490374745  0.9267708315987002  0.5407957577964708  1.0000
  C   C275      1.0  0.38272098302982993  0.9715787381723328  0.5657261278807377  1.0000
  C   C276      1.0  0.3363165233867275  0.9371149507564212  0.5462653316374644  1.0000
  H   H313      1.0  0.35031992317952165  0.9445713131247161  0.6411351377193836  1.0000
  H   H314      1.0  0.37662531043679986  0.9358684621280181  0.6359591298017268  1.0000
  H   H315      1.0  0.3419468088812883  0.9109007797175183  0.6219531118536251  1.0000
  H   H316      1.0  0.3766568318492261  0.9329738694094635  0.5019824652861415  1.0000
  H   H317      1.0  0.3927045172418358  0.9303770106310648  0.5561877117483881  1.0000
  H   H318      1.0  0.3582389399771418  0.9044184933836545  0.5424032796317557  1.0000
  H   H319      1.0  0.3764631586538999  0.9837856902577031  0.5884920706292505  1.0000
  H   H320      1.0  0.38589762080426315  0.9795466941751546  0.5279732718738768  1.0000
  H   H321      1.0  0.4030438639039553  0.9758008823858971  0.5791767665434421  1.0000
  H   H322      1.0  0.3279087389124098  0.9484723535054939  0.5660056467924202  1.0000
  H   H323      1.0  0.3205370218781609  0.9150580665853286  0.5476278058641186  1.0000
  H   H324      1.0  0.33909980801979944  0.9436309224019035  0.5075853753481704  1.0000
  N   N16       1.0  0.20079479954005738  0.6064126989498214  0.6178977163330447  1.0000
  C   C277      1.0  0.20013837004431448  0.580215499065893  0.6119134428084838  1.0000
  C   C278      1.0  0.17299643635212078  0.6021844944112951  0.610453458917998  1.0000
  C   C279      1.0  0.21978171859995888  0.6262360087345462  0.5818017293501216  1.0000
  C   C280      1.0  0.21018819946674533  0.6168956735947163  0.6674265464928687  1.0000
  H   H325      1.0  0.19351457782285575  0.5718739328396059  0.5748754007988838  1.0000
  H   H326      1.0  0.1857062051295506  0.5646559770213826  0.6381139716761639  1.0000
  H   H327      1.0  0.22064669236423004  0.5824278212915789  0.6182278987491376  1.0000
  H   H328      1.0  0.17269762641557493  0.6215515593842548  0.6147772590875932  1.0000
  H   H329      1.0  0.16533982120611346  0.5942715296346653  0.5733805619963663  1.0000
  H   H330      1.0  0.15812766753613006  0.5872149686543829  0.6369323497761068  1.0000
  H   H331      1.0  0.24092224963271835  0.6297935587524934  0.5862144779050233  1.0000
  H   H332      1.0  0.22078857712302008  0.6463036439892543  0.5851831770383916  1.0000
  H   H333      1.0  0.21324081096383485  0.6189062488661387  0.5440001337200174  1.0000
  H   H334      1.0  0.19622107229739874  0.6023947135165927  0.6955077712149307  1.0000
  H   H335      1.0  0.21123290452151208  0.6368033347768542  0.6732588860542188  1.0000
  H   H336      1.0  0.23087716300940112  0.6197247269364163  0.6746200059998841  1.0000
  N   N17       1.0  0.8506303328186278  0.3197157656663333  0.49516384506182837  1.0000
  C   C281      1.0  0.8538179538702233  0.3254969403981556  0.44252070853853015  1.0000
  C   C282      1.0  0.8740522468165635  0.3173652543145259  0.5127712393085527  1.0000
  C   C283      1.0  0.8248866203212117  0.29386228422122157  0.5043771561382735  1.0000
  C   C284      1.0  0.84991587682464  0.3421748724233901  0.5210892261841853  1.0000
  H   H337      1.0  0.8544783737546117  0.3089063357885977  0.42201137746310036  1.0000
  H   H338      1.0  0.8731355046958599  0.3448637565080312  0.43446006874015786  1.0000
  H   H339      1.0  0.8365079985284946  0.3274458605142739  0.4279116100135718  1.0000
  H   H340      1.0  0.875014920291708  0.3002997706335427  0.49473661393527374  1.0000
  H   H341      1.0  0.8938773853551905  0.3363222598525286  0.5057185992161926  1.0000
  H   H342      1.0  0.8725501774163845  0.31354957427116287  0.5525799423286495  1.0000
  H   H343      1.0  0.8067114887989147  0.2946666509827235  0.4910838275136804  1.0000
  H   H344      1.0  0.8217923917353135  0.288999609209116  0.543831742555846  1.0000
  H   H345      1.0  0.8249108718563344  0.2763485503672212  0.486032394496086  1.0000
  H   H346      1.0  0.83257470511088  0.344698126017917  0.5086763840566255  1.0000
  H   H347      1.0  0.8691845266264054  0.3619422337787506  0.5151773211770143  1.0000
  H   H348      1.0  0.8476255072838913  0.3384358762788075  0.5609572748423478  1.0000
  N   N18       1.0  0.7201556967678946  0.20308318538525874  0.16289297670593542  1.0000
  C   C285      1.0  0.7430628257111465  0.23089147885733227  0.15309088683726935  1.0000
  C   C286      1.0  0.6940909628836941  0.2013756458136794  0.14899989015102416  1.0000
  C   C287      1.0  0.7194178619567505  0.19681715936238384  0.215147098381514  1.0000
  C   C288      1.0  0.7238896962745689  0.18318256557523224  0.1341311580618873  1.0000
  H   H349      1.0  0.7442971910227475  0.23615445678715716  0.11386275164285514  1.0000
  H   H350      1.0  0.7630915751058451  0.2330948390949654  0.16362153755252695  1.0000
  H   H351      1.0  0.7405825879431345  0.24646726849065584  0.17354949986601792  1.0000
  H   H352      1.0  0.6904262915710785  0.21596532738180754  0.1701463256065449  1.0000
  H   H353      1.0  0.6939587605929092  0.20605997565466666  0.10983892322832411  1.0000
  H   H354      1.0  0.6763315177928656  0.18058791210427544  0.15532960717870534  1.0000
  H   H355      1.0  0.7020328369220086  0.17614518373983887  0.22389105167133372  1.0000
  H   H356      1.0  0.7168463202697043  0.21159544309115905  0.23796763823061678  1.0000
  H   H357      1.0  0.7385822445816983  0.197485599136004  0.22697002571680028  1.0000
  H   H358      1.0  0.7068567070377554  0.16200660229482  0.14079556729416315  1.0000
  H   H359      1.0  0.7434161446698415  0.1838902869586635  0.14341072892581433  1.0000
  H   H360      1.0  0.7242275175471271  0.1872431349062677  0.09448223961161252  1.0000
  N   N19       1.0  0.6200377590408382  0.1695927272660177  0.4447980760066204  1.0000
  C   C289      1.0  0.5945568139072492  0.1614987226652335  0.4724177982437143  1.0000
  C   C290      1.0  0.624163004161287  0.1904501586548524  0.40839640246923803  1.0000
  C   C291      1.0  0.6179018721659668  0.1455039936072318  0.41998728269709545  1.0000
  C   C292      1.0  0.6435977934873202  0.18089658695970612  0.4783312496446738  1.0000
  H   H361      1.0  0.59053099653035  0.14538542277357255  0.49947897534928554  1.0000
  H   H362      1.0  0.5763915951568258  0.15320136986370017  0.4481999624134754  1.0000
  H   H363      1.0  0.59559001246664  0.17897557612367698  0.49265752413706637  1.0000
  H   H364      1.0  0.6434436534666615  0.19726708075516114  0.3874540805386603  1.0000
  H   H365      1.0  0.6070904231847006  0.18245069408952547  0.3817740467653902  1.0000
  H   H366      1.0  0.6255843496495181  0.20879312496893251  0.4258671485184969  1.0000
  H   H367      1.0  0.636919133740668  0.15090978973638466  0.3992006616649167  1.0000
  H   H368      1.0  0.6005755658192812  0.13654811088929916  0.393888026435135  1.0000
  H   H369      1.0  0.6146952204571099  0.12932196184754333  0.4464655313441747  1.0000
  H   H370      1.0  0.6456168275692569  0.19875518431982858  0.4986186617341523  1.0000
  H   H371      1.0  0.6632295519258068  0.18759679022771356  0.4585522816934991  1.0000
  H   H372      1.0  0.64150410514692  0.1654950913853567  0.5054597886197428  1.0000
  N   N20       1.0  0.5095496446823253  0.9267403710275359  0.07677719699078583  1.0000
  C   C293      1.0  0.48875532298752794  0.9224104673648359  0.039919028888847796  1.0000
  C   C294      1.0  0.4974004864468904  0.9227950324282634  0.12583524514682853  1.0000
  C   C295      1.0  0.5331126951857421  0.9546911906986799  0.07234883220437882  1.0000
  C   C296      1.0  0.5189610888328735  0.9069703425712256  0.06901963189518384  1.0000
  H   H373      1.0  0.497087517822237  0.9247835399867951  0.0023844153116774347  1.0000
  H   H374      1.0  0.48115751200875784  0.9369754221381084  0.04439744218143026  1.0000
  H   H375      1.0  0.4707170911903518  0.9014521284111995  0.042147364143777635  1.0000
  H   H376      1.0  0.5123325736691454  0.9251547075776883  0.1544913396639476  1.0000
  H   H377      1.0  0.49034566099241067  0.9375477361715736  0.1334369464691702  1.0000
  H   H378      1.0  0.4794510244451767  0.9019125193976657  0.1302925318796136  1.0000
  H   H379      1.0  0.5491350838467628  0.958553878584779  0.09974240808180929  1.0000
  H   H380      1.0  0.5267672605528657  0.970185807040473  0.07789544537852029  1.0000
  H   H381      1.0  0.5428007921350464  0.9582307301479751  0.035790830638889215  1.0000
  H   H382      1.0  0.5346881308520075  0.9095315671262607  0.09611728827790887  1.0000
  H   H383      1.0  0.5276290747342463  0.9087297870031016  0.03195899808403446  1.0000
  H   H384      1.0  0.5017333729456027  0.8858175462910624  0.07306012801363856  1.0000
  N   N21       1.0  0.7274881445750525  0.3576314402887297  0.0482150615121583  1.0000
  C   C297      1.0  0.7205500047817981  0.37743766960917324  0.06904140699067968  1.0000
  C   C298      1.0  0.7561789224052173  0.36597827953290135  0.05975698685793242  1.0000
  C   C299      1.0  0.7241048664740322  0.35676152570372055  0.9949619206500627  1.0000
  C   C300      1.0  0.7091899540806146  0.3303694628941622  0.06903351694756908  1.0000
  H   H385      1.0  0.7339613879195008  0.3981633765993535  0.0539710816598815  1.0000
  H   H386      1.0  0.7229218159900307  0.37877290610600683  0.10915795554709087  1.0000
  H   H387      1.0  0.6990268185880782  0.37177088535555947  0.06064868834941757  1.0000
  H   H388      1.0  0.7617640823644841  0.3510290594126494  0.04558882928594768  1.0000
  H   H389      1.0  0.7706698434738468  0.38611045228392044  0.043540234409232284  1.0000
  H   H390      1.0  0.759758267406654  0.367497620088448  0.09963109560492034  1.0000
  H   H391      1.0  0.7376797329627673  0.37712382880462186  0.9782970467355416  1.0000
  H   H392      1.0  0.7026483764925004  0.3504994369148352  0.9849010487153025  1.0000
  H   H393      1.0  0.7292584112555711  0.34209572272916156  0.9779293053198859  1.0000
  H   H394      1.0  0.6873087317693362  0.32417074811193225  0.0639700030985988  1.0000
  H   H395      1.0  0.712613316837809  0.32992138329481063  0.10869528210688202  1.0000
  H   H396      1.0  0.7126251213278978  0.31458329924288697  0.05172528835625123  1.0000
  N   N22       1.0  0.5469957678898214  0.20644527759086942  0.9578344426845163  1.0000
  C   C301      1.0  0.5464211674895388  0.18567074626492838  0.9909228756829328  1.0000
  C   C302      1.0  0.5756171830607691  0.2260757880787498  0.9441586127618519  1.0000
  C   C303      1.0  0.5349479145568744  0.22107561581016139  0.9827655782655995  1.0000
  C   C304      1.0  0.5311143623692997  0.19301302097039236  0.9136841191913234  1.0000
  H   H397      1.0  0.5251368130885168  0.1701064829140812  0.0011829963106604335  1.0000
  H   H398      1.0  0.5577545892382387  0.19498804479854068  0.025035114153101556  1.0000
  H   H399      1.0  0.5560286133495009  0.17472945160380318  0.9739511789912002  1.0000
  H   H400      1.0  0.5768897307632092  0.24218844385065924  0.9194806650991877  1.0000
  H   H401      1.0  0.5881459951602445  0.23638143309213536  0.9767028180159711  1.0000
  H   H402      1.0  0.5854410103043702  0.21583374549226284  0.9252475175767625  1.0000
  H   H403      1.0  0.5351155818216575  0.23701036818496948  0.9590065778670994  1.0000
  H   H404      1.0  0.5466777806922146  0.2314125512750561  0.016225182435444685  1.0000
  H   H405      1.0  0.5133974103185698  0.20690203778490052  0.9939593143427389  1.0000
  H   H406      1.0  0.5093463233012359  0.17816014139812886  0.9224730814362213  1.0000
  H   H407      1.0  0.5396118773995252  0.1815519364223749  0.8945700216122552  1.0000
  H   H408      1.0  0.5314627925640691  0.2080674354035828  0.8873820357829011  1.0000
  N   N23       1.0  0.4289207041639419  0.42951694780725247  0.5882522100799324  1.0000
  C   C305      1.0  0.4198118776588076  0.4024362428614736  0.5666792703071263  1.0000
  C   C306      1.0  0.405300019834017  0.4298508127846591  0.6109577452032832  1.0000
  C   C307      1.0  0.44047102168334235  0.4504389130168323  0.5498223311276179  1.0000
  C   C308      1.0  0.45012008369583406  0.4355004773824902  0.625186057111262  1.0000
  H   H409      1.0  0.4033239460752519  0.3970839529227633  0.5394347254934196  1.0000
  H   H410      1.0  0.4115843739973148  0.3861092210649336  0.5946974652893879  1.0000
  H   H411      1.0  0.43693746104297243  0.4018009226581055  0.5475274250582602  1.0000
  H   H412      1.0  0.41134431869279825  0.4502962791592075  0.6263093040331558  1.0000
  H   H413      1.0  0.3888396641941617  0.42507163900026224  0.5839650141436893  1.0000
  H   H414      1.0  0.39620983812977867  0.4146333790701204  0.6407602974770925  1.0000
  H   H415      1.0  0.45848795301998263  0.4510289131193397  0.5319461613475168  1.0000
  H   H416      1.0  0.4472296758762105  0.4711606463245692  0.5644100155943522  1.0000
  H   H417      1.0  0.4249293559840474  0.44619980231633743  0.5213890912053256  1.0000
  H   H418      1.0  0.442105364750545  0.4201633348619543  0.6549539598682599  1.0000
  H   H419      1.0  0.45751409641677115  0.4559288027870937  0.6417444103096078  1.0000
  H   H420      1.0  0.4681921084553339  0.4353754629852041  0.6090005644441671  1.0000
  N   N24       1.0  0.9549578625396854  0.4364750139604413  0.03339233883532322  1.0000
  C   C309      1.0  0.9538457500271807  0.4602133907378993  0.052813692577633825  1.0000
  C   C310      1.0  0.9830113416403489  0.4410424003351327  0.03852308947537275  1.0000
  C   C311      1.0  0.9472427332195773  0.4327211323226903  0.9815308637606729  1.0000
  C   C312      1.0  0.9356627018176876  0.41181125795370715  0.060805171177882006  1.0000
  H   H421      1.0  0.9682531567062308  0.47930185296998234  0.033342160713201396  1.0000
  H   H422      1.0  0.9589523860063672  0.46327168655001294  0.09218138931729897  1.0000
  H   H423      1.0  0.9329621310706161  0.45747573599202523  0.04945902494503583  1.0000
  H   H424      1.0  0.9844617282528615  0.42342639089703327  0.02428182818181179  1.0000
  H   H425      1.0  0.9981331623620985  0.45949802004200885  0.018203687413603342  1.0000
  H   H426      1.0  0.9894177920935026  0.44388511989620666  0.07725603191211738  1.0000
  H   H427      1.0  0.9475218750930242  0.4147344928072674  0.9659378020278628  1.0000
  H   H428      1.0  0.9612980849441418  0.450862246398365  0.9594692376564794  1.0000
  H   H429      1.0  0.9261019957905671  0.4290523425419811  0.9763210022570928  1.0000
  H   H430      1.0  0.9357658328552984  0.39337103211203805  0.0471930614974781  1.0000
  H   H431      1.0  0.914369866675496  0.40771837382733045  0.05706906310401068  1.0000
  H   H432      1.0  0.9404021146903846  0.41393975423428425  0.10028291479471692  1.0000
  N   N25       1.0  0.05543769443473301  0.437744565651683  0.5640027421485173  1.0000
  C   C313      1.0  0.06620646196574675  0.450418638490518  0.6117765561626534  1.0000
  C   C314      1.0  0.05758199358293714  0.4586834039908808  0.5295542786801026  1.0000
  C   C315      1.0  0.026390078005362527  0.4162616926093512  0.5690580815227873  1.0000
  C   C316      1.0  0.07161382394260518  0.4256425242275091  0.54558857604148  1.0000
  H   H433      1.0  0.06465869653977707  0.43512372934527394  0.6386919075155628  1.0000
  H   H434      1.0  0.054658418867991276  0.45990112889914747  0.6268961460084674  1.0000
  H   H435      1.0  0.08822181597995882  0.4664962968617583  0.6093735741851217  1.0000
  H   H436      1.0  0.04984840175874905  0.44983217864477726  0.49303466245454725  1.0000
  H   H437      1.0  0.0456343549772571  0.46821717433524707  0.5424169205552115  1.0000
  H   H438      1.0  0.07923813273184632  0.47523505257762455  0.5249525482563648  1.0000
  H   H439      1.0  0.017452670044045382  0.40633897575049027  0.5337103255047334  1.0000
  H   H440      1.0  0.013606011463930034  0.42448798627740036  0.583807863308843  1.0000
  H   H441      1.0  0.02403478902601841  0.39991834714981694  0.5941903216269651  1.0000
  H   H442      1.0  0.06409763091202159  0.41582850912273844  0.5096373970198367  1.0000
  H   H443      1.0  0.07051260011268368  0.4098322014207903  0.5708362384431812  1.0000
  H   H444      1.0  0.09366132066003918  0.441335211085402  0.5413904695494366  1.0000
  N   N26       1.0  0.9945890389317656  0.5187894374368139  0.4928579395261798  1.0000
  C   C317      1.0  0.9844553906516593  0.5059413794176226  0.444964472567105  1.0000
  C   C318      1.0  0.9795410813446933  0.532665275054967  0.50800034511072  1.0000
  C   C319      1.0  0.024157557890006398  0.538893077004999  0.4894055057551226  1.0000
  C   C320      1.0  0.9900981106792787  0.49769420560760563  0.529021576881934  1.0000
  H   H445      1.0  0.9956661839062338  0.49571812244652114  0.43168497673786066  1.0000
  H   H446      1.0  0.9868299324381107  0.52128265176819  0.41713695621257385  1.0000
  H   H447      1.0  0.9622996631622642  0.4902749505117168  0.4465706075298961  1.0000
  H   H448      1.0  0.9817877438566662  0.5481640142303723  0.4808916635072933  1.0000
  H   H449      1.0  0.9572787944899996  0.5179859934949783  0.5117179224146171  1.0000
  H   H450      1.0  0.9868327504219283  0.5431098268150651  0.5435384038415036  1.0000
  H   H451      1.0  0.03228051364499862  0.5499147808863836  0.5242842212665422  1.0000
  H   H452      1.0  0.028242599449898265  0.5545045841644879  0.46126497313858345  1.0000
  H   H453      1.0  0.036299731818891345  0.5290789887986376  0.4793863900971571  1.0000
  H   H454      1.0  0.9973351727074338  0.5066950529472475  0.5656354358068914  1.0000
  H   H455      1.0  0.0008446674993531911  0.4865213790519264  0.518596541459029  1.0000
  H   H456      1.0  0.9679721518195203  0.4823120729147266  0.5326398798316189  1.0000
  N   N27       1.0  0.5893023968904032  0.803083021936855  0.41505861201844163  1.0000
  C   C321      1.0  0.5944771881080301  0.7839777209884352  0.44332800319865856  1.0000
  C   C322      1.0  0.5706666080006249  0.809386498876867  0.4426700075194015  1.0000
  C   C323      1.0  0.5765490672278456  0.7905746480521192  0.36817093546529317  1.0000
  C   C324      1.0  0.6155040013205388  0.8284923323842852  0.4060773474670861  1.0000
  H   H457      1.0  0.6083016874933761  0.7785620109031887  0.4235089028363405  1.0000
  H   H458      1.0  0.5751225435658829  0.7647605956057414  0.45165461111898264  1.0000
  H   H459      1.0  0.604348435373116  0.7929841695285843  0.4786735172627706  1.0000
  H   H460      1.0  0.551080650661675  0.7906769168589775  0.45201235966128245  1.0000
  H   H461      1.0  0.580106402619032  0.8199463519614197  0.4772344647745129  1.0000
  H   H462      1.0  0.5655235922259659  0.8229430311791145  0.42163193024570517  1.0000
  H   H463      1.0  0.5900286181524734  0.7855688926898995  0.34623018293753327  1.0000
  H   H464      1.0  0.5725285220777336  0.804650111827735  0.34601410761118445  1.0000
  H   H465      1.0  0.5565940054642278  0.7715222879236817  0.3735643380531493  1.0000
  H   H466      1.0  0.6300574844283471  0.824597638041285  0.3850500723331999  1.0000
  H   H467      1.0  0.6256908822132768  0.8385228300530387  0.44071328949891136  1.0000
  H   H468      1.0  0.6123053458379892  0.8434428870766913  0.38502714457515247  1.0000
  N   N28       1.0  0.4901136877408265  0.23848483101649487  0.37216834580842506  1.0000
  C   C325      1.0  0.46669398709362747  0.21506150038039992  0.3485167752784413  1.0000
  C   C326      1.0  0.47991270090187116  0.2528001685182869  0.4030991244035708  1.0000
  C   C327      1.0  0.5088101352704476  0.25746919047599803  0.33483100787985937  1.0000
  C   C328      1.0  0.5050300993106328  0.22867565550331762  0.4023801042562697  1.0000
  H   H469      1.0  0.47363784149227806  0.2038354932809444  0.32466336398202966  1.0000
  H   H470      1.0  0.45488979542964003  0.22177531926221444  0.3257489316525553  1.0000
  H   H471      1.0  0.45233334670953623  0.20037179712516415  0.3759502451037016  1.0000
  H   H472      1.0  0.49701060148565424  0.27037455678919997  0.42195207729580436  1.0000
  H   H473      1.0  0.4688629481398693  0.26089281126700314  0.381670516159124  1.0000
  H   H474      1.0  0.46569030232249253  0.23919282760631355  0.43183496567143165  1.0000
  H   H475      1.0  0.5171044820167923  0.24753623962586477  0.3107891635734978  1.0000
  H   H476      1.0  0.5265810222454135  0.27552632355120454  0.3516231494040506  1.0000
  H   H477      1.0  0.49831718889769655  0.26544743231449613  0.31146450718352153  1.0000
  H   H478      1.0  0.5234230071863806  0.24595487626592166  0.4192737520685159  1.0000
  H   H479      1.0  0.5121580601791061  0.21684111826346097  0.380731055772202  1.0000
  H   H480      1.0  0.4919404349429493  0.21529575623018155  0.4325048457461405  1.0000
  N   N29       1.0  0.5198348998608832  0.858303612568518  0.6545907940578943  1.0000
  C   C329      1.0  0.5487272194959505  0.8657781554577408  0.6618414464968926  1.0000
  C   C330      1.0  0.5047093214992734  0.8486439381970449  0.7009670152137751  1.0000
  C   C331      1.0  0.5072396017327607  0.8363805447061937  0.6180473826259562  1.0000
  C   C332      1.0  0.5185825207754726  0.8823463207410202  0.6374644205952927  1.0000
  H   H481      1.0  0.5606497071500371  0.8730482974277519  0.6274832004298226  1.0000
  H   H482      1.0  0.5504697075618641  0.8479881479497782  0.6740419674348271  1.0000
  H   H483      1.0  0.5589836154064894  0.8822321012616516  0.6892258880443839  1.0000
  H   H484      1.0  0.48282388514098934  0.8429617927660071  0.6967232518134737  1.0000
  H   H485      1.0  0.5050777250541858  0.8303875566855259  0.7147444352463086  1.0000
  H   H486      1.0  0.5136849551942082  0.8646501102531674  0.7294732800767045  1.0000
  H   H487      1.0  0.48501817027859767  0.8290321794200978  0.6139029047225848  1.0000
  H   H488      1.0  0.5094521450015337  0.8185780228070545  0.6281410649957588  1.0000
  H   H489      1.0  0.5171031506618646  0.8434854591396369  0.5817871758710763  1.0000
  H   H490      1.0  0.5283382026078327  0.8995138038362556  0.663638859552136  1.0000
  H   H491      1.0  0.49702522673826915  0.8774792334014377  0.6325112269455744  1.0000
  H   H492      1.0  0.5291847959041323  0.8898134948727713  0.6018675950970311  1.0000
  N   N30       1.0  0.42395989144659074  0.6079866929766333  0.261262813037669  1.0000
  C   C333      1.0  0.41045817284997027  0.5854761041515727  0.2967230077812145  1.0000
  C   C334      1.0  0.439920995926853  0.6016588545698364  0.22644328598795269  1.0000
  C   C335      1.0  0.44256995443820585  0.6335843203831258  0.28681445296432007  1.0000
  C   C336      1.0  0.40298926146684805  0.6111736377614215  0.2347844664739292  1.0000
  H   H493      1.0  0.39670229110579885  0.5657815669087635  0.2783164004397238  1.0000
  H   H494      1.0  0.39789200487847876  0.589247680321196  0.323398024890551  1.0000
  H   H495      1.0  0.42572150346687493  0.5826028623087082  0.31760043386181164  1.0000
  H   H496      1.0  0.4515185608584557  0.6186075221709072  0.20059676702981102  1.0000
  H   H497      1.0  0.4551841831435508  0.5979869220535731  0.24522081868360335  1.0000
  H   H498      1.0  0.426334562260896  0.583399075171486  0.20443072898340087  1.0000
  H   H499      1.0  0.4530436695768802  0.6508991468065762  0.2607613222020259  1.0000
  H   H500      1.0  0.45878902010810174  0.6318707755724707  0.30672385369260596  1.0000
  H   H501      1.0  0.4312851898280714  0.6390061414276591  0.3135905995666617  1.0000
  H   H502      1.0  0.41256263214265115  0.6276913928884477  0.20708583674278902  1.0000
  H   H503      1.0  0.39071406672158643  0.6162877381703799  0.2597903613072464  1.0000
  H   H504      1.0  0.3885310791565205  0.5921045447355574  0.21532171665493927  1.0000
  N   N31       1.0  0.5857901671691245  0.0021957589819987526  0.4994668272996919  1.0000
  C   C337      1.0  0.5820923939389615  0.01247078989361561  0.5465265711739097  1.0000
  C   C338      1.0  0.559809286245603  0.9898378423000487  0.4721232636458508  1.0000
  C   C339      1.0  0.5938336041404286  0.981429515185229  0.508033254902668  1.0000
  C   C340      1.0  0.6074273086450936  0.025031663886548167  0.47119598724650963  1.0000
  H   H505      1.0  0.5660336999701477  0.9956919281474332  0.5689274978866706  1.0000
  H   H506      1.0  0.5758004670855181  0.028040315656228724  0.5414073561999613  1.0000
  H   H507      1.0  0.6014447964388112  0.0221144580462219  0.5678077676820098  1.0000
  H   H508      1.0  0.5427932943530768  0.9731798726526111  0.49322861805283613  1.0000
  H   H509      1.0  0.5535962904757077  0.00510864997359639  0.46332122056393726  1.0000
  H   H510      1.0  0.5615346335024642  0.9807086940373715  0.4374242573264826  1.0000
  H   H511      1.0  0.5973724326010895  0.9736510757082564  0.47327922846251946  1.0000
  H   H512      1.0  0.577684436463126  0.9635454948925304  0.5282024391977551  1.0000
  H   H513      1.0  0.6131592315550413  0.9898216040979696  0.5292263992338538  1.0000
  H   H514      1.0  0.6274671916233209  0.03448008597811873  0.4903181809670992  1.0000
  H   H515      1.0  0.6024083071480405  0.041390048207328056  0.46471073684608016  1.0000
  H   H516      1.0  0.6104822730351567  0.018116440347208274  0.43511038855836864  1.0000
  N   N32       1.0  0.36925926699742895  0.7009878260005268  0.09062224265625374  1.0000
  C   C341      1.0  0.39167639371214397  0.7247427171378087  0.06545404320974457  1.0000
  C   C342      1.0  0.3764537951783397  0.6793784410936086  0.09547608228289062  1.0000
  C   C343      1.0  0.34374566383748856  0.6905767424958574  0.06236271591039544  1.0000
  C   C344      1.0  0.36513025308208047  0.7093126849861291  0.13930657211105357  1.0000
  H   H517      1.0  0.4112294260673192  0.7331382185900815  0.08583617143267186  1.0000
  H   H518      1.0  0.3869652517225369  0.7414759196789509  0.061510382047016865  1.0000
  H   H519      1.0  0.395507200539843  0.7193889696432512  0.028504860895977036  1.0000
  H   H520      1.0  0.3600334387503747  0.6612092490387554  0.11462626992486125  1.0000
  H   H521      1.0  0.37948677587374763  0.6724420804282951  0.059350367992350384  1.0000
  H   H522      1.0  0.3957577346730952  0.6866565797398361  0.11629462063075002  1.0000
  H   H523      1.0  0.32639019707200034  0.6726158148699561  0.0803014098225765  1.0000
  H   H524      1.0  0.3461618520565194  0.6844650280357747  0.025133527523141908  1.0000
  H   H525      1.0  0.33758021675838146  0.7062426188123386  0.05858525456036778  1.0000
  H   H526      1.0  0.3484110144982319  0.6918472141601346  0.15941492010577307  1.0000
  H   H527      1.0  0.3594426677033656  0.7254581956811733  0.1368427790494411  1.0000
  H   H528      1.0  0.384125844215109  0.7177394387781425  0.16140875673082045  1.0000
  N   N33       1.0  0.10801749309777042  0.6886584712845776  0.3598128644528828  1.0000
  C   C345      1.0  0.07989013007243662  0.6757949688484639  0.37983194150865285  1.0000
  C   C346      1.0  0.12638844850413666  0.7127896473069009  0.38916142080752747  1.0000
  C   C347      1.0  0.10814422376498567  0.6970080453971668  0.3089684139926939  1.0000
  C   C348      1.0  0.1178380072777907  0.6689731556653058  0.36137846698353304  1.0000
  H   H529      1.0  0.07163930316405964  0.6899537708701368  0.37889819841030786  1.0000
  H   H530      1.0  0.0792536342203296  0.6694431019849079  0.4183263149748802  1.0000
  H   H531      1.0  0.06554730320748758  0.6571711120836572  0.3591576395300862  1.0000
  H   H532      1.0  0.11994902451111433  0.7283828699218494  0.3882673837102788  1.0000
  H   H533      1.0  0.12646925546890975  0.7071562961333588  0.42788959495553924  1.0000
  H   H534      1.0  0.14794157909663297  0.7225560411166768  0.3756891822923279  1.0000
  H   H535      1.0  0.1291395383008478  0.7065375206132082  0.292912298343694  1.0000
  H   H536      1.0  0.10102775708711009  0.712044178152205  0.3062391204278526  1.0000
  H   H537      1.0  0.09451027095275633  0.6792214262584895  0.2858630324381912  1.0000
  H   H538      1.0  0.11831929165156518  0.6625232690493039  0.3992954182516062  1.0000
  H   H539      1.0  0.13893937163261305  0.6779572135845215  0.3463625563042144  1.0000
  H   H540      1.0  0.10448417346793004  0.6503838555760084  0.3398491272997882  1.0000
  N   N34       1.0  0.8343358737984389  0.5070446067679821  0.1980513234177234  1.0000
  C   C349      1.0  0.8134929696344413  0.48440065560827855  0.22781167555364923  1.0000
  C   C350      1.0  0.8550802745780226  0.5280797508752516  0.23023961472257687  1.0000
  C   C351      1.0  0.8209580545196605  0.5190253573182728  0.16908566559923294  1.0000
  C   C352      1.0  0.8478423414938473  0.4966894839782281  0.16522134423128954  1.0000
  H   H541      1.0  0.7976055665688435  0.4679825228956095  0.2048648217221475  1.0000
  H   H542      1.0  0.8029339737976194  0.49149318321599106  0.253077524326782  1.0000
  H   H543      1.0  0.8228979569544351  0.4750828550771051  0.25051289011902894  1.0000
  H   H544      1.0  0.8658905808428584  0.5197992884925514  0.251963004241595  1.0000
  H   H545      1.0  0.8709402994981688  0.5457127109745281  0.20920471261649687  1.0000
  H   H546      1.0  0.845599687946741  0.5358496912383462  0.2565550382725757  1.0000
  H   H547      1.0  0.8360064448540465  0.5360468646740951  0.14585297051237664  1.0000
  H   H548      1.0  0.810684082214949  0.5271454104369707  0.19279050715419785  1.0000
  H   H549      1.0  0.8049898173070733  0.5036764604465156  0.14463748026831022  1.0000
  H   H550      1.0  0.8328219290380071  0.48030301993736263  0.14115266748417948  1.0000
  H   H551      1.0  0.8586143962079257  0.4880464456812764  0.1859690077065099  1.0000
  H   H552      1.0  0.8633879390950444  0.513118301951358  0.1416372938848691  1.0000
  N   N35       1.0  0.35298779458307533  0.7930127968381783  0.512385343587134  1.0000
  C   C353      1.0  0.3576840510066842  0.8163489428755063  0.5429282305770058  1.0000
  C   C354      1.0  0.32508360506287753  0.7699610969912046  0.5213946291565021  1.0000
  C   C355      1.0  0.3733780928848091  0.7848734645067185  0.5246266559672259  1.0000
  C   C356      1.0  0.355877260377393  0.801014238023966  0.46072102133583287  1.0000
  H   H553      1.0  0.3787550836910495  0.8339321606224768  0.5376202112507026  1.0000
  H   H554      1.0  0.35543462669100256  0.8109900154496231  0.5821721446884243  1.0000
  H   H555      1.0  0.342883111496129  0.8233350120442059  0.5346109976882699  1.0000
  H   H556      1.0  0.322232953533352  0.7634371852115842  0.5600954094642936  1.0000
  H   H557      1.0  0.30923413692841184  0.7755579265117137  0.5129606183816494  1.0000
  H   H558      1.0  0.320616393772012  0.7519491217203899  0.49882355786707067  1.0000
  H   H559      1.0  0.3702918905940137  0.7670257991056606  0.5029474246134124  1.0000
  H   H560      1.0  0.3722466735417693  0.7794792245764838  0.5637864549214558  1.0000
  H   H561      1.0  0.39466916741188124  0.8018125149251806  0.5178414250927026  1.0000
  H   H562      1.0  0.3525487442942439  0.7839162014161393  0.43652503717968094  1.0000
  H   H563      1.0  0.3767057207582746  0.818496076412275  0.4528499120039292  1.0000
  H   H564      1.0  0.34075380923803367  0.807287691105102  0.4504290512995235  1.0000
  N   N36       1.0  0.8412037442522802  0.30693047074739493  0.7881077301162407  1.0000
  C   C357      1.0  0.8370283843629192  0.31636410347858046  0.8357162447828678  1.0000
  C   C358      1.0  0.8158240460855538  0.28202005969256855  0.773461698205319  1.0000
  C   C359      1.0  0.8637550069054851  0.30087224330957585  0.7916409414256677  1.0000
  C   C360      1.0  0.848257938327572  0.3284795185241148  0.7514508866466362  1.0000
  H   H565      1.0  0.8556129060950509  0.3354959955865415  0.8471119357269761  1.0000
  H   H566      1.0  0.8323895582613146  0.3009689469735756  0.8646897472034225  1.0000
  H   H567      1.0  0.8198481448396714  0.32068170597661433  0.834645166767086  1.0000
  H   H568      1.0  0.8184670732935189  0.2743145450242875  0.7377616068221482  1.0000
  H   H569      1.0  0.8098287294180635  0.26533536072088837  0.800375685911626  1.0000
  H   H570      1.0  0.798403869656501  0.285851648983908  0.7698165995105116  1.0000
  H   H571      1.0  0.8592227863314545  0.2847672845165994  0.8190843075614808  1.0000
  H   H572      1.0  0.8832945228287286  0.3192412038615199  0.8021696839695605  1.0000
  H   H573      1.0  0.867373083803328  0.2936168801357333  0.7563028586958208  1.0000
  H   H574      1.0  0.8509102787932289  0.3217961940203756  0.7149034025415134  1.0000
  H   H575      1.0  0.8677552687349769  0.34732172344277396  0.7604997063418315  1.0000
  H   H576      1.0  0.8320692842605206  0.33412381939766933  0.7485984152946956  1.0000
