data_image0
_chemical_formula_structural       NH4FeS2CFeSCSFeSFeSHCHFeS2FeS2FeHFeS3HCH5NH5C6H4CH2CHC6H4SH2NCHCHNCHCH2CHCH5C2HCH4C3SH2SH2CHNSC4HCH5C2H3CH3CHCH3CHCH4CH3FeC2FeH2SH4CHSH2CFeCNHSHFeHS2HSFeS2HFeHFeSNFeS2FeS2FeSFeS3H2NHC2H2FeS3H2CH5CH2C7H5CHSH3CH3C6H5C9H6C2H2CNHCHCH3C2HS2HSNC4H9NCH8C2HCH2CH4CH2CH3C2H3SHCHFe2H2SH3CSFeS2HFeS2FeS2FeSFeS3FeS2FeS2FeSFeS3C2H2FeCH6C6H5CH4C2SHCH4SFeC6H4SC3SC3H4CHNCHCH4NH3CH2CHSHCSHCHNC4H13NFeCH4CHCHSCFeHC2HCH2CH3CHCH3FeCSFeS2CHCFeS2FeS2FeCFeS3CSH2SHFeHFeS2H6C8H4C2H5CHC6H5C2H5SH2CH4CSHNH3NC4H14CHCNSHFe3SHC2NH3CH2CHCNCHC2HCHCH2NHNHC2H3C4SH2CHCHCSC2HSH2C2FeS2CH3S2CS2FeS2FeS2FeSFeS3HFeSNFeS2H2CH3CH2C2HC6H5CNFeHCHC6H5C6H4C5H5CHCH3CHC3H4CH3SFeNC4H13CH4CNC3H6NHCHCH6FeCHC2HSCH8C2HSHSCHCHC2HSFeNHC2SFe2S2FeSHFeSFeS3FeS2FeS2FeSFeS3CHC2H4CHFeS2H2CHC3FeHSC8H7C2NH2C7H4CHSC3H5C2HC2H5CH2CNC2H2CH2SNHCNHC3H9CHSH3FeHCH2CHCSCH2CSHCH3CHCH5CH3NHCSH2CH7FeCH2C2HCH3SCHC2HCH2SCH2SCH2NFeSCH2FeH3CHNSHC2H2CHC2SH5CSCH2CFeCHCS2HNH3SH2SHC2HC2H4SHCFeS2HNCH2S3FeS2FeHFeSFeSH5SCH3CH2CHCH6C6H7CHSC2NC4H5C3SHCH3CFeCHSH2CHC2HC2FeSCFeS2FeSFeS3FeS2FeS2FeSFeS3C2HCH2C2H3C2HCH2C6H4C2H3CH3CHCH3C2HC3H3NHCHCHC2HNHCH3CH6CSH2C2H2NHCHCHNC4H7CSHCH3CH2C2H3C5FeS2HCSHFeCFeS2H4CH6CHC2HC2H3C3H5NC2HC2SH3C3H3C2H4CH2CH2CN2CNC4H3SH3SH3CH2CH2CH3C2HC2SCHSH2CFeH2C2HFeH3FeS2FeSFeSHCFeS2FeSFeHS2FeS2FeHSCH2CHCH4C6NHCHCHC6H4C6HCHCSH2C3H3C2H2SHCFe2HSHNC4H14SCHCH3NHCHCSH2C2H2CSC2HSNSH7CH3CH4CH2SH2FeS2FeS2FeSFeS3FeS2FeS2FeSFeS3H2SFeS2H2C8HCH3CH2C6H4C5H3CHC3H2C3H2C2H3NC4H14SHCNH2CH3CHCHCH2CH2CH3NHCNCHCH2CHNH2C3HCFeCH4C2H6CH4CH3CH5NCH4CFeHFeS2FeHS2FeSFeSFeSFeS2C7H3C6H7C3SC5NH3C2SH2C2SH2NHCH5SH7C2SCHCH2C2H6SHC2HFeHNC3HCH2CHFeSCSCH2C2HCH2CHC2SCH2CHCHC2SH2FeS2CS2FeSHCHCFeCSHCH2C3HSNCH3CHSH3C2HCHC7H4CSCHNC4H10SHCH4C3H2FeHCHCH4CNHC2HC4H4CHFeSH2NSH3NSHC2H2CH2C2H2FeHCNCHCH2C5H5C3FeHSHFeSNSCH2FeNFeSHSCSHC4H5CHSH2C2HSH6CFeH2CH2CH3C2H3C2H3FeHCHCH6C2HC3H4SH3SCHNCH4CH2CHC2SHCHSFeSFeSFeS2FeSFeSFeSFeS2H2C6H4C6H3NC6H4C6H5CH2CHCNHNC5H2CH6SH3C2H5CSH5SC2H2CSNC4H12CH5FeHNH3CHCH2CH5S2H4CHSH5CH2FeHSHSH3SH2C6H4C2FeNH2SCH2SH2CH6C2H2CHCFeC2H4NH2SHNH2CH2C4SH2CH4CH2SH2FeHSH2C2H3C2H5CHCHFeS2FeSHSFeHFeS2CH2FeS2FeS2FeSFeS3CHSCHFeH3C6H2CH3C7H4FeCFeH3NHC2H2NH2FeCHCH4CH4NC2HC3H2NCH2CHCHSCSH2CH2CHC2HCH4CH3C2H2CH2SC2H2C2HS2HFeH6CH3FeH2CHS2HCNHSFeHC2H2FeS2FeS2FeS2FeSFeS3FeS2HNH3FeS2H2CHCH2C7H5CSCH3NH2C7H4C2H2C6H4SC2HC3H4NH3NHCH2NC4H14CH6CHSC2HSH4CSH3CH7CHFe2HCNHFeCHFeS2H2SH2CHFeS2FeS2FeHFeS3FeSHFeS2FeSFeS4H3C3H2C6H8CSH2CHC2H4C7H4C2HCNHSHC3FeCH2CNCHCH3SN2C4H12NC3H6CH2C4SH6CHSH2CFeCHCHFeCH6CNC2HCH11FeS2H2CFeSCHC2Fe2SHS2CFeHFeS2FeS2FeS2FeHFeS3CH3CSC2H3C6H7NHC2H6FeHSC6H5FeCH4SCH3C2HC2HCNH2NSC2SH3CH4CH3NHCHCH2CH4C3HCH2SH2SH3SHC2H6CSCFeS2H2CFeNSFeS2FeS2FeSFeS3FeS2CH2CHSCHSH2SHNH3C7H4C2HCNHC6H4C6H4CH2C3FeNH2CFeCH2CHNC2H11CH2CSH2FeHSHC3SH5CHSCFeH2CH2FeCNC2HSH5CHC2H2CSH6CH2C2H2C2H8CHSH2FeS2FeS2FeSFeS3FeS2FeS2FeSFeS3HNH2C6H4FeSH2NH9C6H4C2H6C6H4CNHFeHC5H3C2H2CSCH2CH2CH2SH2CHCH2SH4CHCHCH2C3HCH2CH5C3H7CH4SH3NC2NCH4CH3CH3
_chemical_formula_sum              "N108 H1728 Fe216 S432 C1080"
_cell_length_a       47.9209
_cell_length_b       47.4817
_cell_length_c       110.132
_cell_angle_alpha    91.1416
_cell_angle_beta     90.8916
_cell_angle_gamma    114.228

_space_group_name_H-M_alt    "P 1"
_space_group_IT_number       1

loop_
  _space_group_symop_operation_xyz
  'x, y, z'

loop_
  _atom_site_type_symbol
  _atom_site_label
  _atom_site_symmetry_multiplicity
  _atom_site_fract_x
  _atom_site_fract_y
  _atom_site_fract_z
  _atom_site_occupancy
  N   N1        1.0  0.26652  0.28223  0.08861  1.0000
  H   H1        1.0  0.46127  0.04505  0.11329  1.0000
  H   H2        1.0  0.12926  0.26848  0.99590  1.0000
  H   H3        1.0  0.37108  0.09924  0.06516  1.0000
  H   H4        1.0  0.37260  0.07839  0.05159  1.0000
  Fe  Fe1       1.0  0.27224  0.25307  0.98399  1.0000
  S   S1        1.0  0.31053  0.27850  0.99796  1.0000
  S   S2        1.0  0.24219  0.20239  0.98523  1.0000
  C   C1        1.0  0.07639  0.29478  0.01909  1.0000
  Fe  Fe2       1.0  0.36430  0.00442  0.07411  1.0000
  S   S3        1.0  0.39821  0.05396  0.07312  1.0000
  C   C2        1.0  0.13116  0.20681  0.98015  1.0000
  S   S4        1.0  0.40686  0.05309  0.10290  1.0000
  Fe  Fe3       1.0  0.37522  0.06151  0.08973  1.0000
  S   S5        1.0  0.35557  0.09713  0.09210  1.0000
  Fe  Fe4       1.0  0.42717  0.04076  0.08637  1.0000
  S   S6        1.0  0.33977  0.01263  0.09015  1.0000
  H   H5        1.0  0.30658  0.30797  0.09979  1.0000
  C   C3        1.0  0.39365  0.20337  0.13083  1.0000
  H   H6        1.0  0.30202  0.26750  0.08450  1.0000
  Fe  Fe5       1.0  0.35611  0.29169  0.06880  1.0000
  S   S7        1.0  0.40707  0.30753  0.06655  1.0000
  S   S8        1.0  0.31429  0.27935  0.05605  1.0000
  Fe  Fe6       1.0  0.36040  0.28386  0.09664  1.0000
  S   S9        1.0  0.41145  0.29902  0.09650  1.0000
  S   S10       1.0  0.32580  0.25823  0.11102  1.0000
  Fe  Fe7       1.0  0.41242  0.33614  0.08380  1.0000
  H   H7        1.0  0.22432  0.28627  0.09215  1.0000
  Fe  Fe8       1.0  0.40290  0.26959  0.07944  1.0000
  S   S11       1.0  0.42584  0.23659  0.07713  1.0000
  S   S12       1.0  0.36148  0.32288  0.08518  1.0000
  S   S13       1.0  0.35223  0.25205  0.08035  1.0000
  H   H8        1.0  0.37314  0.02390  0.04327  1.0000
  C   C4        1.0  0.32420  0.26641  0.12676  1.0000
  H   H9        1.0  0.32250  0.08759  0.03722  1.0000
  H   H10       1.0  0.35672  0.21803  0.10683  1.0000
  H   H11       1.0  0.30973  0.15536  0.98569  1.0000
  H   H12       1.0  0.08089  0.35169  0.02528  1.0000
  H   H13       1.0  0.05625  0.19538  0.97630  1.0000
  N   N2        1.0  0.32385  0.19429  0.99827  1.0000
  H   H14       1.0  0.32822  0.22756  0.01253  1.0000
  H   H15       1.0  0.16533  0.24515  0.99019  1.0000
  H   H16       1.0  0.22573  0.25097  0.09703  1.0000
  H   H17       1.0  0.36218  0.18332  0.99450  1.0000
  H   H18       1.0  0.06760  0.26923  0.01989  1.0000
  C   C5        1.0  0.37572  0.13555  0.08775  1.0000
  C   C6        1.0  0.40585  0.14657  0.08381  1.0000
  C   C7        1.0  0.42096  0.17756  0.08043  1.0000
  C   C8        1.0  0.40603  0.19755  0.08096  1.0000
  C   C9        1.0  0.37583  0.18626  0.08480  1.0000
  C   C10       1.0  0.36076  0.15543  0.08818  1.0000
  H   H19       1.0  0.41760  0.13138  0.08346  1.0000
  H   H20       1.0  0.44439  0.18615  0.07749  1.0000
  H   H21       1.0  0.36405  0.20123  0.08522  1.0000
  H   H22       1.0  0.33737  0.14694  0.09115  1.0000
  C   C11       1.0  0.27684  0.25770  0.08548  1.0000
  H   H23       1.0  0.34794  0.24027  0.99171  1.0000
  H   H24       1.0  0.22118  0.25657  0.08114  1.0000
  C   C12       1.0  0.12119  0.24754  0.99030  1.0000
  H   H25       1.0  0.35611  0.18185  0.11155  1.0000
  C   C13       1.0  0.31385  0.27818  0.03989  1.0000
  C   C14       1.0  0.34065  0.29148  0.03331  1.0000
  C   C15       1.0  0.33910  0.29147  0.02050  1.0000
  C   C16       1.0  0.31085  0.27778  0.01411  1.0000
  C   C17       1.0  0.28409  0.26376  0.02066  1.0000
  C   C18       1.0  0.28560  0.26424  0.03349  1.0000
  H   H26       1.0  0.36253  0.30242  0.03809  1.0000
  H   H27       1.0  0.35996  0.30241  0.01553  1.0000
  H   H28       1.0  0.26219  0.25315  0.01588  1.0000
  H   H29       1.0  0.26470  0.25394  0.03848  1.0000
  S   S14       1.0  0.06516  0.25032  0.99093  1.0000
  H   H30       1.0  0.26773  0.32404  0.08088  1.0000
  H   H31       1.0  0.28888  0.08396  0.06114  1.0000
  N   N3        1.0  0.05127  0.30519  0.01963  1.0000
  C   C19       1.0  0.39274  0.25216  0.12570  1.0000
  H   H32       1.0  0.05285  0.30931  0.03917  1.0000
  C   C20       1.0  0.34222  0.00760  0.13438  1.0000
  H   H33       1.0  0.41163  0.23982  0.10394  1.0000
  N   N4        1.0  0.32789  0.07590  0.05563  1.0000
  C   C21       1.0  0.34287  0.29491  0.13225  1.0000
  H   H34       1.0  0.32694  0.05362  0.07251  1.0000
  C   C22       1.0  0.28117  0.29757  0.10028  1.0000
  H   H35       1.0  0.01725  0.30503  0.03218  1.0000
  H   H36       1.0  0.30034  0.31589  0.07772  1.0000
  C   C23       1.0  0.14167  0.23441  0.98706  1.0000
  H   H37       1.0  0.36982  0.21386  0.00568  1.0000
  C   C24       1.0  0.35213  0.19132  0.00217  1.0000
  H   H38       1.0  0.30500  0.18823  0.01616  1.0000
  H   H39       1.0  0.27119  0.24014  0.09265  1.0000
  H   H40       1.0  0.18323  0.99044  0.99351  1.0000
  H   H41       1.0  0.32252  0.10283  0.07059  1.0000
  H   H42       1.0  0.00920  0.29665  0.00977  1.0000
  C   C25       1.0  0.35304  0.00932  0.03795  1.0000
  C   C26       1.0  0.09030  0.23356  0.98643  1.0000
  H   H43       1.0  0.34765  0.17443  0.00955  1.0000
  C   C27       1.0  0.31949  0.04780  0.06283  1.0000
  H   H44       1.0  0.45144  0.00071  0.09968  1.0000
  H   H45       1.0  0.03925  0.29451  0.00076  1.0000
  H   H46       1.0  0.07475  0.34538  0.00910  1.0000
  H   H47       1.0  0.38881  0.26623  0.11847  1.0000
  C   C28       1.0  0.44538  0.98513  0.10753  1.0000
  C   C29       1.0  0.35957  0.20539  0.11484  1.0000
  C   C30       1.0  0.35003  0.01557  0.02563  1.0000
  S   S15       1.0  0.39491  0.99053  0.08612  1.0000
  H   H48       1.0  0.41291  0.20414  0.10804  1.0000
  H   H49       1.0  0.27532  0.28088  0.10779  1.0000
  S   S16       1.0  0.44368  0.38697  0.08794  1.0000
  H   H50       1.0  0.32586  0.05159  0.03874  1.0000
  H   H51       1.0  0.34082  0.20307  0.12113  1.0000
  C   C31       1.0  0.30105  0.16399  0.99362  1.0000
  H   H52       1.0  0.36788  0.03513  0.02157  1.0000
  N   N5        1.0  0.39003  0.22189  0.12079  1.0000
  S   S17       1.0  0.00539  0.27429  0.97857  1.0000
  C   C32       1.0  0.30305  0.24350  0.13389  1.0000
  C   C33       1.0  0.36158  0.09275  0.05572  1.0000
  C   C34       1.0  0.31427  0.09596  0.06102  1.0000
  C   C35       1.0  0.08003  0.20644  0.97925  1.0000
  H   H53       1.0  0.29091  0.05422  0.04258  1.0000
  C   C36       1.0  0.06360  0.33893  0.01804  1.0000
  H   H54       1.0  0.09384  0.30575  0.02647  1.0000
  H   H55       1.0  0.04506  0.34736  0.01838  1.0000
  H   H56       1.0  0.34830  0.02473  0.12742  1.0000
  H   H57       1.0  0.29436  0.03366  0.06261  1.0000
  H   H58       1.0  0.27412  0.31636  0.10295  1.0000
  C   C37       1.0  0.10034  0.19296  0.97624  1.0000
  C   C38       1.0  0.02855  0.28938  0.00980  1.0000
  H   H59       1.0  0.35921  0.31281  0.12690  1.0000
  H   H60       1.0  0.36887  0.11446  0.05059  1.0000
  H   H61       1.0  0.29497  0.14618  0.00069  1.0000
  C   C39       1.0  0.23291  0.26840  0.08978  1.0000
  H   H62       1.0  0.41580  0.26586  0.12987  1.0000
  H   H63       1.0  0.46529  0.04196  0.12938  1.0000
  H   H64       1.0  0.29051  0.20852  0.00598  1.0000
  C   C40       1.0  0.31626  0.06703  0.04299  1.0000
  H   H65       1.0  0.08817  0.30036  0.01024  1.0000
  C   C41       1.0  0.27513  0.30512  0.07890  1.0000
  H   H66       1.0  0.00812  0.27007  0.13692  1.0000
  H   H67       1.0  0.33049  0.03282  0.05935  1.0000
  H   H68       1.0  0.01872  0.26381  0.01063  1.0000
  C   C42       1.0  0.41405  0.22655  0.11180  1.0000
  H   H69       1.0  0.32045  0.11762  0.05593  1.0000
  C   C43       1.0  0.33096  0.21700  0.98854  1.0000
  H   H70       1.0  0.26487  0.29416  0.06993  1.0000
  H   H71       1.0  0.02693  0.27236  0.03302  1.0000
  H   H72       1.0  0.37546  0.24943  0.13275  1.0000
  H   H73       1.0  0.31015  0.21994  0.98551  1.0000
  C   C44       1.0  0.03648  0.29765  0.03152  1.0000
  H   H74       1.0  0.39185  0.18041  0.12744  1.0000
  H   H75       1.0  0.26658  0.24576  0.07666  1.0000
  H   H76       1.0  0.43741  0.23954  0.11584  1.0000
  Fe  Fe9       1.0  0.01774  0.23449  0.98215  1.0000
  C   C45       1.0  0.15932  0.98860  0.99358  1.0000
  C   C46       1.0  0.31132  0.20499  0.00870  1.0000
  Fe  Fe10      1.0  0.37325  0.00355  0.10214  1.0000
  H   H77       1.0  0.34004  0.20962  0.98041  1.0000
  H   H78       1.0  0.27951  0.16547  0.99048  1.0000
  S   S18       1.0  0.32154  0.00572  0.00305  1.0000
  H   H79       1.0  0.98065  0.45413  0.09015  1.0000
  H   H80       1.0  0.41634  0.21528  0.13555  1.0000
  H   H81       1.0  0.46252  0.99275  0.13776  1.0000
  H   H82       1.0  0.28845  0.22137  0.12975  1.0000
  C   C47       1.0  0.32430  0.99653  0.01849  1.0000
  H   H83       1.0  0.15908  0.00807  0.98815  1.0000
  S   S19       1.0  0.15560  0.18865  0.97631  1.0000
  H   H84       1.0  0.42870  0.02146  0.12188  1.0000
  H   H85       1.0  0.47088  0.99883  0.07913  1.0000
  C   C48       1.0  0.45383  0.02878  0.12094  1.0000
  Fe  Fe11      1.0  0.20709  0.21371  0.97496  1.0000
  C   C49       1.0  0.33034  0.98379  0.04325  1.0000
  N   N6        1.0  0.46130  0.00186  0.11877  1.0000
  H   H86       1.0  0.15413  0.99241  0.00312  1.0000
  S   S20       1.0  0.23564  0.26499  0.97505  1.0000
  H   H87       1.0  0.97280  0.23759  0.03920  1.0000
  Fe  Fe12      1.0  0.23571  0.98937  0.97339  1.0000
  H   H88       1.0  0.37571  0.19927  0.13772  1.0000
  S   S21       1.0  0.97345  0.20656  0.99122  1.0000
  S   S22       1.0  0.97260  0.27864  0.11743  1.0000
  H   H89       1.0  0.22035  0.06357  0.16253  1.0000
  S   S23       1.0  0.22197  0.01798  0.20664  1.0000
  Fe  Fe13      1.0  0.02583  0.22969  0.19877  1.0000
  S   S24       1.0  0.00082  0.25941  0.20398  1.0000
  S   S25       1.0  0.07740  0.25248  0.20261  1.0000
  H   H90       1.0  0.20357  0.20241  0.22567  1.0000
  Fe  Fe14      1.0  0.37120  0.00800  0.29892  1.0000
  H   H91       1.0  0.31320  0.07561  0.21443  1.0000
  Fe  Fe15      1.0  0.24572  0.98606  0.20354  1.0000
  S   S26       1.0  0.00193  0.21584  0.18037  1.0000
  N   N7        1.0  0.42734  0.35261  0.26184  1.0000
  Fe  Fe16      1.0  0.28012  0.19555  0.19530  1.0000
  S   S27       1.0  0.31600  0.24437  0.19699  1.0000
  S   S28       1.0  0.29779  0.15817  0.19391  1.0000
  Fe  Fe17      1.0  0.22748  0.21609  0.19449  1.0000
  S   S29       1.0  0.25988  0.26631  0.19565  1.0000
  S   S30       1.0  0.17509  0.19442  0.19507  1.0000
  Fe  Fe18      1.0  0.28841  0.25390  0.18216  1.0000
  S   S31       1.0  0.31483  0.28672  0.16733  1.0000
  Fe  Fe19      1.0  0.28480  0.25233  0.21034  1.0000
  S   S32       1.0  0.29699  0.28154  0.22809  1.0000
  S   S33       1.0  0.25404  0.20457  0.17983  1.0000
  S   S34       1.0  0.25107  0.20264  0.20977  1.0000
  H   H92       1.0  0.35104  0.07535  0.23690  1.0000
  H   H93       1.0  0.97952  0.17487  0.14299  1.0000
  N   N8        1.0  0.04509  0.25337  0.24302  1.0000
  H   H94       1.0  0.20791  0.24376  0.21184  1.0000
  C   C50       1.0  0.44368  0.15295  0.29282  1.0000
  C   C51       1.0  0.32975  0.01248  0.14533  1.0000
  H   H95       1.0  0.44136  0.15894  0.28326  1.0000
  H   H96       1.0  0.26784  0.02591  0.23905  1.0000
  Fe  Fe20      1.0  0.38268  0.28797  0.29375  1.0000
  S   S35       1.0  0.43359  0.30205  0.29487  1.0000
  S   S36       1.0  0.36030  0.25988  0.27641  1.0000
  S   S37       1.0  0.38516  0.33247  0.30227  1.0000
  H   H97       1.0  0.99809  0.22157  0.24508  1.0000
  H   H98       1.0  0.28460  0.07516  0.15367  1.0000
  C   C52       1.0  0.36235  0.99804  0.26330  1.0000
  H   H99       1.0  0.45570  0.40021  0.26639  1.0000
  H   H100      1.0  0.00652  0.23932  0.23060  1.0000
  H   H101      1.0  0.00103  0.26513  0.15920  1.0000
  H   H102      1.0  0.25556  0.04968  0.22976  1.0000
  H   H103      1.0  0.01859  0.20934  0.23416  1.0000
  C   C53       1.0  0.04014  0.27999  0.24809  1.0000
  H   H104      1.0  0.32312  0.04051  0.24298  1.0000
  H   H105      1.0  0.08992  0.28171  0.23655  1.0000
  C   C54       1.0  0.27516  0.06104  0.16177  1.0000
  C   C55       1.0  0.31470  0.27521  0.24142  1.0000
  C   C56       1.0  0.32325  0.25047  0.24224  1.0000
  C   C57       1.0  0.33699  0.24616  0.25305  1.0000
  C   C58       1.0  0.34243  0.26648  0.26315  1.0000
  C   C59       1.0  0.33375  0.29117  0.26237  1.0000
  C   C60       1.0  0.32004  0.29552  0.25154  1.0000
  H   H106      1.0  0.31929  0.23466  0.23454  1.0000
  H   H107      1.0  0.34353  0.22693  0.25356  1.0000
  H   H108      1.0  0.33712  0.30659  0.27014  1.0000
  H   H109      1.0  0.31332  0.31462  0.25103  1.0000
  H   H110      1.0  0.04022  0.23163  0.26025  1.0000
  C   C61       1.0  0.31854  0.27778  0.15182  1.0000
  H   H111      1.0  0.27435  0.02779  0.22306  1.0000
  S   S38       1.0  0.30636  0.99847  0.16814  1.0000
  H   H112      1.0  0.28379  0.23133  0.15171  1.0000
  H   H113      1.0  0.32510  0.10596  0.24627  1.0000
  H   H114      1.0  0.33368  0.10869  0.22417  1.0000
  C   C62       1.0  0.06751  0.26381  0.23321  1.0000
  H   H115      1.0  0.29741  0.07129  0.25256  1.0000
  H   H116      1.0  0.15617  0.21866  0.23814  1.0000
  H   H117      1.0  0.35400  0.32292  0.14882  1.0000
  C   C63       1.0  0.10393  0.23602  0.19953  1.0000
  C   C64       1.0  0.13522  0.25557  0.19881  1.0000
  C   C65       1.0  0.15721  0.24337  0.19695  1.0000
  C   C66       1.0  0.14825  0.21136  0.19620  1.0000
  C   C67       1.0  0.11695  0.19185  0.19693  1.0000
  C   C68       1.0  0.09487  0.20406  0.19848  1.0000
  H   H118      1.0  0.14244  0.28034  0.19947  1.0000
  H   H119      1.0  0.18102  0.25874  0.19600  1.0000
  H   H120      1.0  0.10972  0.16706  0.19630  1.0000
  H   H121      1.0  0.07091  0.18870  0.19903  1.0000
  H   H122      1.0  0.02275  0.27280  0.25533  1.0000
  C   C69       1.0  0.30287  0.08585  0.24439  1.0000
  C   C70       1.0  0.27420  0.04173  0.23127  1.0000
  C   C71       1.0  0.30036  0.24904  0.14636  1.0000
  C   C72       1.0  0.24187  0.05680  0.20251  1.0000
  C   C73       1.0  0.26887  0.06592  0.19605  1.0000
  C   C74       1.0  0.28560  0.09708  0.19349  1.0000
  C   C75       1.0  0.27501  0.11937  0.19701  1.0000
  C   C76       1.0  0.24745  0.11031  0.20314  1.0000
  C   C77       1.0  0.23099  0.07904  0.20595  1.0000
  H   H123      1.0  0.27695  0.04907  0.19292  1.0000
  H   H124      1.0  0.30686  0.10398  0.18871  1.0000
  H   H125      1.0  0.23908  0.12742  0.20585  1.0000
  H   H126      1.0  0.20990  0.07214  0.21084  1.0000
  H   H127      1.0  0.29222  0.05219  0.16491  1.0000
  H   H128      1.0  0.05924  0.27398  0.22567  1.0000
  C   C78       1.0  0.98418  0.26861  0.15351  1.0000
  C   C79       1.0  0.33987  0.30059  0.14469  1.0000
  H   H129      1.0  0.03181  0.29114  0.24095  1.0000
  H   H130      1.0  0.43940  0.31696  0.26872  1.0000
  C   C80       1.0  0.44287  0.38529  0.25844  1.0000
  N   N9        1.0  0.30418  0.06803  0.23342  1.0000
  H   H131      1.0  0.38362  0.00972  0.26843  1.0000
  C   C81       1.0  0.01584  0.22987  0.23802  1.0000
  H   H132      1.0  0.38297  0.01239  0.24592  1.0000
  C   C82       1.0  0.32808  0.05624  0.23517  1.0000
  H   H133      1.0  0.29355  0.09698  0.22102  1.0000
  H   H134      1.0  0.32977  0.04288  0.22699  1.0000
  H   H135      1.0  0.41710  0.36493  0.27957  1.0000
  C   C83       1.0  0.31150  0.08822  0.22282  1.0000
  C   C84       1.0  0.41066  0.33339  0.25114  1.0000
  H   H136      1.0  0.25108  0.00869  0.17343  1.0000
  S   S39       1.0  0.99289  0.18774  0.20817  1.0000
  S   S40       1.0  0.40208  0.05773  0.29617  1.0000
  H   H137      1.0  0.27355  0.07679  0.16907  1.0000
  S   S41       1.0  0.29622  0.00640  0.20108  1.0000
  N   N10       1.0  0.20058  0.24487  0.23093  1.0000
  C   C85       1.0  0.21064  0.26767  0.24118  1.0000
  C   C86       1.0  0.21164  0.22051  0.23308  1.0000
  C   C87       1.0  0.21341  0.26060  0.21960  1.0000
  C   C88       1.0  0.16680  0.23071  0.22975  1.0000
  H   H138      1.0  0.23615  0.27840  0.24221  1.0000
  H   H139      1.0  0.20136  0.25673  0.24992  1.0000
  H   H140      1.0  0.20316  0.28668  0.23974  1.0000
  H   H141      1.0  0.23716  0.23022  0.23346  1.0000
  H   H142      1.0  0.20335  0.20883  0.24178  1.0000
  H   H143      1.0  0.23874  0.27291  0.22031  1.0000
  H   H144      1.0  0.20434  0.27800  0.21727  1.0000
  H   H145      1.0  0.15887  0.21331  0.22207  1.0000
  H   H146      1.0  0.15764  0.24828  0.22781  1.0000
  N   N11       1.0  0.24503  0.03546  0.15897  1.0000
  C   C89       1.0  0.45034  0.34178  0.26635  1.0000
  H   H147      1.0  0.39428  0.32584  0.27464  1.0000
  H   H148      1.0  0.22946  0.03053  0.17736  1.0000
  H   H149      1.0  0.42613  0.39428  0.25510  1.0000
  H   H150      1.0  0.25705  0.02890  0.14069  1.0000
  H   H151      1.0  0.21226  0.99620  0.16798  1.0000
  H   H152      1.0  0.39258  0.34039  0.24764  1.0000
  H   H153      1.0  0.46267  0.35518  0.27467  1.0000
  H   H154      1.0  0.42633  0.33507  0.24357  1.0000
  C   C90       1.0  0.40547  0.34996  0.27151  1.0000
  C   C91       1.0  0.22295  0.04829  0.15522  1.0000
  H   H155      1.0  0.28499  0.09501  0.24331  1.0000
  C   C92       1.0  0.24808  0.01560  0.14902  1.0000
  H   H156      1.0  0.07885  0.25681  0.25673  1.0000
  H   H157      1.0  0.22576  0.99619  0.14658  1.0000
  C   C93       1.0  0.33465  0.98396  0.24365  1.0000
  H   H158      1.0  0.45958  0.38825  0.25115  1.0000
  H   H159      1.0  0.06161  0.29799  0.25215  1.0000
  H   H160      1.0  0.44048  0.17057  0.29875  1.0000
  H   H161      1.0  0.06057  0.21947  0.24922  1.0000
  C   C94       1.0  0.23394  0.01692  0.16990  1.0000
  H   H162      1.0  0.38710  0.35687  0.26833  1.0000
  H   H163      1.0  0.26417  0.00513  0.15165  1.0000
  C   C95       1.0  0.05676  0.23972  0.25274  1.0000
  H   H164      1.0  0.07167  0.24428  0.22911  1.0000
  H   H165      1.0  0.46777  0.34421  0.25942  1.0000
  H   H166      1.0  0.42436  0.13030  0.29449  1.0000
  C   C96       1.0  0.32175  0.99054  0.15453  1.0000
  C   C97       1.0  0.36191  0.99949  0.25052  1.0000
  H   H167      1.0  0.39903  0.30854  0.25343  1.0000
  H   H168      1.0  0.19987  0.02960  0.15319  1.0000
  H   H169      1.0  0.32645  0.03351  0.14670  1.0000
  S   S42       1.0  0.33615  0.98453  0.22753  1.0000
  H   H170      1.0  0.23052  0.06230  0.14696  1.0000
  C   C98       1.0  0.98822  0.27156  0.14088  1.0000
  H   H171      1.0  0.98095  0.20709  0.15215  1.0000
  Fe  Fe21      1.0  0.97442  0.24198  0.18624  1.0000
  Fe  Fe22      1.0  0.43606  0.34554  0.30423  1.0000
  H   H172      1.0  0.97287  0.17058  0.15900  1.0000
  H   H173      1.0  0.36013  0.15699  0.30389  1.0000
  S   S43       1.0  0.46518  0.39355  0.29740  1.0000
  H   H174      1.0  0.98548  0.31242  0.25122  1.0000
  H   H175      1.0  0.45980  0.10613  0.28753  1.0000
  H   H176      1.0  0.97714  0.27738  0.23310  1.0000
  C   C99       1.0  0.34232  0.98248  0.35813  1.0000
  S   S44       1.0  0.42097  0.06252  0.32547  1.0000
  Fe  Fe23      1.0  0.38243  0.31066  0.32052  1.0000
  S   S45       1.0  0.43325  0.32657  0.32300  1.0000
  S   S46       1.0  0.35091  0.30906  0.33611  1.0000
  H   H177      1.0  0.37402  0.21835  0.33095  1.0000
  Fe  Fe24      1.0  0.30814  0.37734  0.41585  1.0000
  S   S47       1.0  0.32218  0.33787  0.41233  1.0000
  S   S48       1.0  0.26539  0.38046  0.40757  1.0000
  Fe  Fe25      1.0  0.37166  0.41978  0.42614  1.0000
  S   S49       1.0  0.38994  0.38382  0.42322  1.0000
  S   S50       1.0  0.40364  0.46482  0.43529  1.0000
  Fe  Fe26      1.0  0.36544  0.37384  0.40503  1.0000
  S   S51       1.0  0.39391  0.37388  0.38854  1.0000
  Fe  Fe27      1.0  0.34578  0.35119  0.43094  1.0000
  S   S52       1.0  0.35138  0.31761  0.44434  1.0000
  S   S53       1.0  0.35057  0.41259  0.40748  1.0000
  S   S54       1.0  0.32845  0.38785  0.43492  1.0000
  Fe  Fe28      1.0  0.02861  0.33792  0.40698  1.0000
  S   S55       1.0  0.07712  0.36653  0.40182  1.0000
  S   S56       1.0  0.38766  0.98205  0.34250  1.0000
  Fe  Fe29      1.0  0.04060  0.36241  0.43386  1.0000
  S   S57       1.0  0.08940  0.39423  0.43003  1.0000
  S   S58       1.0  0.02580  0.36727  0.45327  1.0000
  Fe  Fe30      1.0  0.07129  0.40459  0.41258  1.0000
  S   S59       1.0  0.08198  0.44935  0.40291  1.0000
  Fe  Fe31      1.0  0.09120  0.35355  0.41981  1.0000
  S   S60       1.0  0.12836  0.33781  0.42582  1.0000
  S   S61       1.0  0.02243  0.37652  0.41714  1.0000
  S   S62       1.0  0.04265  0.32119  0.42419  1.0000
  C   C100      1.0  0.01186  0.43238  0.37723  1.0000
  C   C101      1.0  0.01027  0.34116  0.46524  1.0000
  H   H178      1.0  0.44692  0.00811  0.41324  1.0000
  H   H179      1.0  0.39707  0.28520  0.35284  1.0000
  Fe  Fe32      1.0  0.38924  0.01205  0.32627  1.0000
  C   C102      1.0  0.07451  0.31600  0.45286  1.0000
  H   H180      1.0  0.45588  0.11893  0.30935  1.0000
  H   H181      1.0  0.32418  0.21469  0.34879  1.0000
  H   H182      1.0  0.99590  0.37466  0.38631  1.0000
  H   H183      1.0  0.03783  0.31510  0.35409  1.0000
  H   H184      1.0  0.42108  0.26685  0.34742  1.0000
  H   H185      1.0  0.35813  0.18938  0.34211  1.0000
  C   C103      1.0  0.22793  0.36956  0.41325  1.0000
  C   C104      1.0  0.21776  0.35103  0.42337  1.0000
  C   C105      1.0  0.18730  0.34172  0.42712  1.0000
  C   C106      1.0  0.16678  0.35112  0.42092  1.0000
  C   C107      1.0  0.17709  0.37006  0.41093  1.0000
  C   C108      1.0  0.20742  0.37901  0.40708  1.0000
  H   H186      1.0  0.23319  0.34345  0.42817  1.0000
  H   H187      1.0  0.17956  0.32696  0.43482  1.0000
  H   H188      1.0  0.16160  0.37744  0.40606  1.0000
  H   H189      1.0  0.21499  0.39334  0.39925  1.0000
  H   H190      1.0  0.05800  0.43908  0.36230  1.0000
  C   C109      1.0  0.35832  0.32673  0.46013  1.0000
  H   H191      1.0  0.39560  0.27404  0.33719  1.0000
  H   H192      1.0  0.34006  0.36123  0.46045  1.0000
  H   H193      1.0  0.37811  0.29394  0.46290  1.0000
  H   H194      1.0  0.42351  0.14015  0.32744  1.0000
  C   C110      1.0  0.01710  0.31251  0.35866  1.0000
  C   C111      1.0  0.01718  0.31418  0.37146  1.0000
  S   S63       1.0  0.44548  0.24929  0.32088  1.0000
  H   H195      1.0  0.06995  0.43807  0.37776  1.0000
  C   C112      1.0  0.02019  0.38842  0.38397  1.0000
  H   H196      1.0  0.33937  0.99910  0.35226  1.0000
  H   H197      1.0  0.03781  0.31790  0.37665  1.0000
  H   H198      1.0  0.44143  0.44583  0.41947  1.0000
  H   H199      1.0  0.06362  0.29199  0.45615  1.0000
  S   S64       1.0  0.35109  0.01783  0.31599  1.0000
  Fe  Fe33      1.0  0.38437  0.06728  0.31380  1.0000
  C   C113      1.0  0.36343  0.32665  0.35072  1.0000
  C   C114      1.0  0.34234  0.31957  0.36016  1.0000
  C   C115      1.0  0.35140  0.33326  0.37187  1.0000
  C   C116      1.0  0.38153  0.35464  0.37419  1.0000
  C   C117      1.0  0.40267  0.36140  0.36480  1.0000
  C   C118      1.0  0.39374  0.34743  0.35314  1.0000
  H   H200      1.0  0.31890  0.30332  0.35841  1.0000
  H   H201      1.0  0.33515  0.32731  0.37911  1.0000
  H   H202      1.0  0.42607  0.37779  0.36651  1.0000
  H   H203      1.0  0.41021  0.35314  0.34598  1.0000
  S   S65       1.0  0.37471  0.26470  0.31177  1.0000
  C   C119      1.0  0.99044  0.30725  0.35172  1.0000
  C   C120      1.0  0.37126  0.31063  0.46726  1.0000
  C   C121      1.0  0.41662  0.15610  0.32271  1.0000
  S   S66       1.0  0.40725  0.99848  0.30929  1.0000
  C   C122      1.0  0.43385  0.18824  0.32417  1.0000
  C   C123      1.0  0.42458  0.20912  0.31830  1.0000
  C   C124      1.0  0.11147  0.36831  0.45688  1.0000
  H   H204      1.0  0.13377  0.32584  0.45257  1.0000
  H   H205      1.0  0.03199  0.40205  0.39225  1.0000
  H   H206      1.0  0.45951  0.42641  0.42823  1.0000
  H   H207      1.0  0.45412  0.19696  0.33003  1.0000
  C   C125      1.0  0.34327  0.23729  0.34698  1.0000
  H   H208      1.0  0.97958  0.37740  0.36559  1.0000
  N   N12       1.0  0.09920  0.33637  0.46126  1.0000
  C   C126      1.0  0.05516  0.42370  0.37011  1.0000
  H   H209      1.0  0.08336  0.31479  0.44368  1.0000
  C   C127      1.0  0.35006  0.34869  0.46580  1.0000
  H   H210      1.0  0.34021  0.24316  0.33744  1.0000
  H   H211      1.0  0.14310  0.34031  0.46795  1.0000
  H   H212      1.0  0.37444  0.24559  0.36817  1.0000
  H   H213      1.0  0.44787  0.42158  0.40052  1.0000
  N   N13       1.0  0.37345  0.23633  0.34896  1.0000
  H   H214      1.0  0.06425  0.40637  0.36747  1.0000
  H   H215      1.0  0.35846  0.20527  0.36378  1.0000
  H   H216      1.0  0.00511  0.40418  0.35525  1.0000
  C   C128      1.0  0.99041  0.31017  0.37750  1.0000
  H   H217      1.0  0.39913  0.22760  0.36344  1.0000
  H   H218      1.0  0.09329  0.37719  0.45627  1.0000
  C   C129      1.0  0.39793  0.26694  0.34655  1.0000
  H   H219      1.0  0.12117  0.36959  0.44767  1.0000
  S   S67       1.0  0.98899  0.31060  0.39364  1.0000
  H   H220      1.0  0.05627  0.32457  0.45174  1.0000
  C   C130      1.0  0.99846  0.30904  0.46351  1.0000
  S   S68       1.0  0.99161  0.30466  0.33562  1.0000
  H   H221      1.0  0.01211  0.37186  0.36022  1.0000
  C   C131      1.0  0.38079  0.16562  0.30953  1.0000
  H   H222      1.0  0.01336  0.44805  0.36965  1.0000
  N   N14       1.0  0.30101  0.38996  0.37362  1.0000
  C   C132      1.0  0.29024  0.36123  0.38055  1.0000
  C   C133      1.0  0.29595  0.41420  0.38068  1.0000
  C   C134      1.0  0.28371  0.38397  0.36193  1.0000
  C   C135      1.0  0.33402  0.40036  0.37130  1.0000
  H   H223      1.0  0.30324  0.36470  0.38932  1.0000
  H   H224      1.0  0.29283  0.34215  0.37537  1.0000
  H   H225      1.0  0.26566  0.35330  0.38285  1.0000
  H   H226      1.0  0.27133  0.40684  0.38281  1.0000
  H   H227      1.0  0.30868  0.41936  0.38956  1.0000
  H   H228      1.0  0.30351  0.43618  0.37573  1.0000
  H   H229      1.0  0.29123  0.40515  0.35645  1.0000
  H   H230      1.0  0.25871  0.37605  0.36339  1.0000
  H   H231      1.0  0.28696  0.36573  0.35637  1.0000
  H   H232      1.0  0.34330  0.42274  0.36659  1.0000
  H   H233      1.0  0.33849  0.38326  0.36551  1.0000
  H   H234      1.0  0.34764  0.40355  0.37991  1.0000
  H   H235      1.0  0.03078  0.37200  0.38203  1.0000
  N   N15       1.0  0.02279  0.40857  0.37361  1.0000
  Fe  Fe34      1.0  0.42554  0.28144  0.31335  1.0000
  C   C136      1.0  0.37649  0.22832  0.36166  1.0000
  H   H236      1.0  0.99873  0.29917  0.45460  1.0000
  H   H237      1.0  0.09647  0.46965  0.42823  1.0000
  H   H238      1.0  0.11548  0.30130  0.46488  1.0000
  H   H239      1.0  0.02578  0.44698  0.38505  1.0000
  C   C137      1.0  0.12397  0.32545  0.46173  1.0000
  H   H240      1.0  0.13009  0.38442  0.46300  1.0000
  C   C138      1.0  0.39821  0.19763  0.31084  1.0000
  H   H241      1.0  0.34066  0.25523  0.35295  1.0000
  S   S69       1.0  0.36674  0.10484  0.31366  1.0000
  C   C139      1.0  0.37617  0.21287  0.34061  1.0000
  Fe  Fe35      1.0  0.43658  0.04924  0.30796  1.0000
  H   H242      1.0  0.39881  0.21172  0.34175  1.0000
  C   C140      1.0  0.00406  0.38975  0.36321  1.0000
  C   C141      1.0  0.38994  0.14473  0.31540  1.0000
  H   H243      1.0  0.40107  0.47857  0.40975  1.0000
  C   C142      1.0  0.46401  0.44738  0.42287  1.0000
  H   H244      1.0  0.98762  0.42172  0.38008  1.0000
  H   H245      1.0  0.46475  0.40074  0.40909  1.0000
  C   C143      1.0  0.46453  0.99850  0.41397  1.0000
  H   H246      1.0  0.97656  0.26472  0.47192  1.0000
  H   H247      1.0  0.46858  0.47812  0.40217  1.0000
  H   H248      1.0  0.39102  0.21335  0.30612  1.0000
  C   C144      1.0  0.47001  0.42279  0.40437  1.0000
  H   H249      1.0  0.45245  0.42102  0.52050  1.0000
  C   C145      1.0  0.37494  0.23105  0.49468  1.0000
  H   H250      1.0  0.39872  0.00780  0.59233  1.0000
  H   H251      1.0  0.47115  0.37830  0.49561  1.0000
  H   H252      1.0  0.99693  0.40596  0.56130  1.0000
  Fe  Fe36      1.0  0.03031  0.32791  0.62423  1.0000
  C   C146      1.0  0.43269  0.41369  0.60209  1.0000
  S   S70       1.0  0.05994  0.37877  0.62451  1.0000
  Fe  Fe37      1.0  0.34237  0.34702  0.63165  1.0000
  S   S71       1.0  0.32020  0.37919  0.62725  1.0000
  S   S72       1.0  0.36821  0.32973  0.61822  1.0000
  C   C147      1.0  0.01568  0.23392  0.62350  1.0000
  H   H253      1.0  0.38178  0.21544  0.48897  1.0000
  C   C148      1.0  0.35366  0.35367  0.47849  1.0000
  Fe  Fe38      1.0  0.38655  0.32313  0.51683  1.0000
  S   S73       1.0  0.41729  0.29826  0.51529  1.0000
  S   S74       1.0  0.36873  0.34369  0.50164  1.0000
  Fe  Fe39      1.0  0.38704  0.32154  0.54511  1.0000
  S   S75       1.0  0.41855  0.29709  0.54555  1.0000
  S   S76       1.0  0.36140  0.33305  0.56037  1.0000
  Fe  Fe40      1.0  0.44384  0.32992  0.53091  1.0000
  C   C149      1.0  0.37982  0.99117  0.57434  1.0000
  Fe  Fe41      1.0  0.38938  0.26767  0.52998  1.0000
  S   S77       1.0  0.36428  0.21520  0.52945  1.0000
  S   S78       1.0  0.41453  0.35648  0.53162  1.0000
  S   S79       1.0  0.35640  0.29039  0.53032  1.0000
  C   C150      1.0  0.98165  0.32513  0.57129  1.0000
  S   S80       1.0  0.42958  0.04375  0.53873  1.0000
  H   H254      1.0  0.07804  0.44979  0.62560  1.0000
  H   H255      1.0  0.39515  0.01170  0.56991  1.0000
  S   S81       1.0  0.41965  0.05036  0.50914  1.0000
  H   H256      1.0  0.33899  0.24196  0.51104  1.0000
  Fe  Fe42      1.0  0.43696  0.02310  0.52118  1.0000
  H   H257      1.0  0.99513  0.36981  0.58021  1.0000
  Fe  Fe43      1.0  0.40945  0.06924  0.52662  1.0000
  S   S82       1.0  0.42969  0.12201  0.52829  1.0000
  S   S83       1.0  0.36143  0.03216  0.52720  1.0000
  H   H258      1.0  0.41894  0.38832  0.60102  1.0000
  H   H259      1.0  0.46212  0.41332  0.62305  1.0000
  H   H260      1.0  0.41856  0.39794  0.48946  1.0000
  H   H261      1.0  0.98537  0.26276  0.58492  1.0000
  H   H262      1.0  0.10479  0.35068  0.48013  1.0000
  H   H263      1.0  0.01897  0.37821  0.47841  1.0000
  C   C151      1.0  0.13659  0.45589  0.62220  1.0000
  C   C152      1.0  0.39583  0.41938  0.61545  1.0000
  C   C153      1.0  0.38278  0.18958  0.52897  1.0000
  C   C154      1.0  0.36494  0.15752  0.52816  1.0000
  C   C155      1.0  0.37883  0.13643  0.52787  1.0000
  C   C156      1.0  0.41075  0.14728  0.52842  1.0000
  C   C157      1.0  0.42853  0.17936  0.52915  1.0000
  C   C158      1.0  0.41467  0.20042  0.52940  1.0000
  H   H264      1.0  0.34025  0.14886  0.52784  1.0000
  H   H265      1.0  0.36488  0.11182  0.52731  1.0000
  H   H266      1.0  0.13110  0.33234  0.63590  1.0000
  H   H267      1.0  0.42870  0.22501  0.53005  1.0000
  C   C159      1.0  0.36596  0.33714  0.48565  1.0000
  C   C160      1.0  0.15531  0.34635  0.63719  1.0000
  H   H268      1.0  0.03321  0.25822  0.62384  1.0000
  H   H269      1.0  0.34642  0.37017  0.48279  1.0000
  H   H270      1.0  0.38582  0.30395  0.48529  1.0000
  H   H271      1.0  0.98164  0.39026  0.53989  1.0000
  H   H272      1.0  0.44099  0.47180  0.60819  1.0000
  C   C161      1.0  0.32469  0.19066  0.49737  1.0000
  H   H273      1.0  0.99579  0.34378  0.49554  1.0000
  C   C162      1.0  0.36515  0.33356  0.57645  1.0000
  C   C163      1.0  0.38611  0.32460  0.58239  1.0000
  C   C164      1.0  0.38652  0.32325  0.59518  1.0000
  C   C165      1.0  0.36641  0.33133  0.60216  1.0000
  C   C166      1.0  0.34592  0.34086  0.59624  1.0000
  C   C167      1.0  0.34520  0.34178  0.58346  1.0000
  H   H274      1.0  0.40192  0.31862  0.57717  1.0000
  H   H275      1.0  0.40264  0.31608  0.59970  1.0000
  H   H276      1.0  0.33026  0.34708  0.60148  1.0000
  H   H277      1.0  0.32883  0.34866  0.57896  1.0000
  H   H278      1.0  0.45441  0.40989  0.48196  1.0000
  C   C168      1.0  0.43766  0.40938  0.62374  1.0000
  C   C169      1.0  0.98408  0.30185  0.48491  1.0000
  H   H279      1.0  0.43457  0.41751  0.63296  1.0000
  H   H280      1.0  0.15840  0.45541  0.62562  1.0000
  H   H281      1.0  0.16797  0.30789  0.63492  1.0000
  H   H282      1.0  0.01009  0.35433  0.59979  1.0000
  H   H283      1.0  0.38190  0.22930  0.50424  1.0000
  S   S84       1.0  0.23314  0.33161  0.63716  1.0000
  H   H284      1.0  0.44258  0.43830  0.48833  1.0000
  H   H285      1.0  0.45322  0.18800  0.52961  1.0000
  C   C170      1.0  0.44283  0.41528  0.48979  1.0000
  H   H286      1.0  0.42371  0.38395  0.62315  1.0000
  H   H287      1.0  0.38798  0.43132  0.60847  1.0000
  H   H288      1.0  0.02778  0.21874  0.62168  1.0000
  H   H289      1.0  0.38857  0.25514  0.49186  1.0000
  C   C171      1.0  0.99879  0.30747  0.59378  1.0000
  S   S85       1.0  0.00926  0.29548  0.60772  1.0000
  H   H290      1.0  0.33935  0.20995  0.47454  1.0000
  N   N16       1.0  0.97660  0.42792  0.54931  1.0000
  H   H291      1.0  0.00031  0.23191  0.61553  1.0000
  H   H292      1.0  0.30849  0.21926  0.47951  1.0000
  H   H293      1.0  0.29951  0.18365  0.49674  1.0000
  N   N17       1.0  0.32840  0.23482  0.56566  1.0000
  C   C172      1.0  0.31891  0.24678  0.57662  1.0000
  C   C173      1.0  0.31898  0.20113  0.56647  1.0000
  C   C174      1.0  0.36201  0.25018  0.56472  1.0000
  C   C175      1.0  0.31388  0.24130  0.55475  1.0000
  H   H294      1.0  0.32488  0.27198  0.57606  1.0000
  H   H295      1.0  0.33037  0.24349  0.58501  1.0000
  H   H296      1.0  0.29374  0.23515  0.57781  1.0000
  H   H297      1.0  0.32600  0.19157  0.55831  1.0000
  H   H298      1.0  0.32966  0.19551  0.57459  1.0000
  H   H299      1.0  0.29371  0.18868  0.56714  1.0000
  H   H300      1.0  0.37392  0.24664  0.57292  1.0000
  H   H301      1.0  0.36975  0.27552  0.56375  1.0000
  H   H302      1.0  0.37000  0.24121  0.55667  1.0000
  H   H303      1.0  0.32087  0.23290  0.54630  1.0000
  H   H304      1.0  0.32054  0.26661  0.55391  1.0000
  H   H305      1.0  0.28848  0.23003  0.55509  1.0000
  H   H306      1.0  0.46910  0.38233  0.51174  1.0000
  H   H307      1.0  0.98620  0.17731  0.63246  1.0000
  C   C176      1.0  0.45825  0.38382  0.50291  1.0000
  H   H308      1.0  0.46739  0.98905  0.60752  1.0000
  C   C177      1.0  0.33344  0.22541  0.48072  1.0000
  N   N18       1.0  0.45818  0.41468  0.50147  1.0000
  S   S86       1.0  0.99971  0.33125  0.63890  1.0000
  H   H309      1.0  0.99989  0.27128  0.63777  1.0000
  Fe  Fe44      1.0  0.37358  0.01123  0.51060  1.0000
  Fe  Fe45      1.0  0.38211  0.00515  0.53802  1.0000
  Fe  Fe46      1.0  0.08850  0.36949  0.63904  1.0000
  S   S87       1.0  0.01080  0.41683  0.63817  1.0000
  H   H310      1.0  0.33014  0.17402  0.49168  1.0000
  C   C178      1.0  0.97534  0.19375  0.63397  1.0000
  C   C179      1.0  0.02334  0.47842  0.63741  1.0000
  N   N19       1.0  0.42841  0.42539  0.61414  1.0000
  H   H311      1.0  0.42534  0.42478  0.59461  1.0000
  H   H312      1.0  0.00483  0.46053  0.53658  1.0000
  H   H313      1.0  0.34658  0.26854  0.49888  1.0000
  C   C180      1.0  0.98732  0.28611  0.58393  1.0000
  H   H314      1.0  0.01558  0.47120  0.55227  1.0000
  H   H315      1.0  0.00585  0.47171  0.63027  1.0000
  C   C181      1.0  0.99623  0.33395  0.48664  1.0000
  H   H316      1.0  0.06826  0.34423  0.47338  1.0000
  C   C182      1.0  0.44736  0.45900  0.61530  1.0000
  N   N20       1.0  0.34169  0.22278  0.49351  1.0000
  C   C183      1.0  0.00938  0.35341  0.47689  1.0000
  H   H317      1.0  0.43459  0.36537  0.50264  1.0000
  C   C184      1.0  0.37545  0.31609  0.47995  1.0000
  C   C185      1.0  0.33370  0.24395  0.50131  1.0000
  H   H318      1.0  0.45706  0.41804  0.60070  1.0000
  C   C186      1.0  0.00142  0.33765  0.59232  1.0000
  H   H319      1.0  0.41733  0.40368  0.51170  1.0000
  C   C187      1.0  0.44148  0.42121  0.51154  1.0000
  H   H320      1.0  0.39164  0.42747  0.62451  1.0000
  H   H321      1.0  0.30890  0.23882  0.50049  1.0000
  N   N21       1.0  0.12591  0.47408  0.63048  1.0000
  H   H322      1.0  0.02387  0.44126  0.54505  1.0000
  N   N22       1.0  0.99850  0.22601  0.63488  1.0000
  H   H323      1.0  0.44089  0.44428  0.51074  1.0000
  C   C188      1.0  0.17628  0.33254  0.63663  1.0000
  C   C189      1.0  0.99289  0.34637  0.58116  1.0000
  H   H324      1.0  0.33060  0.18786  0.50697  1.0000
  H   H325      1.0  0.38088  0.39426  0.61450  1.0000
  H   H326      1.0  0.11968  0.43138  0.62136  1.0000
  C   C190      1.0  0.38180  0.98886  0.58706  1.0000
  C   C191      1.0  0.97887  0.29486  0.57274  1.0000
  C   C192      1.0  0.00658  0.45128  0.54565  1.0000
  C   C193      1.0  0.20792  0.35035  0.63820  1.0000
  S   S88       1.0  0.39159  0.98258  0.52136  1.0000
  H   H327      1.0  0.14042  0.46535  0.61292  1.0000
  H   H328      1.0  0.34565  0.24942  0.47755  1.0000
  C   C194      1.0  0.09667  0.47356  0.62571  1.0000
  H   H329      1.0  0.98739  0.43511  0.56849  1.0000
  C   C195      1.0  0.08676  0.33576  0.47350  1.0000
  H   H330      1.0  0.39555  0.99488  0.48466  1.0000
  C   C196      1.0  0.98302  0.24691  0.63687  1.0000
  S   S89       1.0  0.06157  0.31828  0.63749  1.0000
  C   C197      1.0  0.98572  0.28954  0.47334  1.0000
  C   C198      1.0  0.97985  0.41633  0.56138  1.0000
  H   H331      1.0  0.07674  0.31192  0.47703  1.0000
  S   S90       1.0  0.33781  0.98777  0.49557  1.0000
  H   H332      1.0  0.44448  0.46857  0.62427  1.0000
  H   H333      1.0  0.97750  0.39467  0.47282  1.0000
  C   C199      1.0  0.37700  0.98174  0.47836  1.0000
  C   C200      1.0  0.16581  0.37824  0.63924  1.0000
  Fe  Fe47      1.0  0.03289  0.23260  0.74909  1.0000
  S   S91       1.0  0.02012  0.27274  0.75143  1.0000
  S   S92       1.0  0.08357  0.24973  0.74609  1.0000
  C   C201      1.0  0.37985  0.42668  0.67422  1.0000
  H   H334      1.0  0.32591  0.42706  0.68004  1.0000
  H   H335      1.0  0.23063  0.00352  0.79526  1.0000
  H   H336      1.0  0.23962  0.18547  0.71347  1.0000
  S   S93       1.0  0.99985  0.20463  0.76307  1.0000
  S   S94       1.0  0.00065  0.21145  0.73317  1.0000
  C   C202      1.0  0.00034  0.25948  0.68822  1.0000
  S   S95       1.0  0.06166  0.37602  0.65469  1.0000
  S   S96       1.0  0.21833  0.01287  0.74580  1.0000
  Fe  Fe48      1.0  0.21816  0.20750  0.75789  1.0000
  S   S97       1.0  0.24239  0.25733  0.75345  1.0000
  S   S98       1.0  0.17011  0.18781  0.76508  1.0000
  Fe  Fe49      1.0  0.27392  0.19425  0.75251  1.0000
  S   S99       1.0  0.30285  0.24420  0.74822  1.0000
  S   S100      1.0  0.29478  0.15915  0.75011  1.0000
  Fe  Fe50      1.0  0.28142  0.25590  0.76469  1.0000
  S   S101      1.0  0.30063  0.29694  0.77820  1.0000
  Fe  Fe51      1.0  0.26133  0.24133  0.73748  1.0000
  S   S102      1.0  0.25549  0.25316  0.71781  1.0000
  S   S103      1.0  0.25627  0.20640  0.76979  1.0000
  S   S104      1.0  0.23351  0.19099  0.74113  1.0000
  H   H337      1.0  0.00569  0.33423  0.70474  1.0000
  Fe  Fe52      1.0  0.03256  0.32489  0.65231  1.0000
  S   S105      1.0  0.01720  0.28582  0.66596  1.0000
  N   N23       1.0  0.37498  0.45108  0.68119  1.0000
  Fe  Fe53      1.0  0.33172  0.35062  0.65937  1.0000
  S   S106      1.0  0.30940  0.38362  0.65671  1.0000
  S   S107      1.0  0.34456  0.34022  0.67837  1.0000
  H   H338      1.0  0.22333  0.98860  0.77991  1.0000
  H   H339      1.0  0.39955  0.44669  0.69701  1.0000
  C   C203      1.0  0.25352  0.18255  0.70593  1.0000
  H   H340      1.0  0.03409  0.27538  0.78751  1.0000
  H   H341      1.0  0.97997  0.34012  0.73940  1.0000
  H   H342      1.0  0.32102  0.20594  0.72184  1.0000
  C   C204      1.0  0.43053  0.46526  0.64962  1.0000
  H   H343      1.0  0.30814  0.22859  0.71207  1.0000
  H   H344      1.0  0.28745  0.21190  0.72528  1.0000
  C   C205      1.0  0.31071  0.32291  0.80126  1.0000
  C   C206      1.0  0.02408  0.28244  0.79508  1.0000
  H   H345      1.0  0.25889  0.15473  0.72637  1.0000
  C   C207      1.0  0.28086  0.27785  0.70712  1.0000
  C   C208      1.0  0.31218  0.29444  0.70965  1.0000
  C   C209      1.0  0.33132  0.31332  0.70074  1.0000
  C   C210      1.0  0.31943  0.31594  0.68924  1.0000
  C   C211      1.0  0.28813  0.29930  0.68673  1.0000
  C   C212      1.0  0.26904  0.28033  0.69561  1.0000
  H   H346      1.0  0.32164  0.29281  0.71845  1.0000
  H   H347      1.0  0.35550  0.32604  0.70277  1.0000
  H   H348      1.0  0.27862  0.30100  0.67794  1.0000
  H   H349      1.0  0.24487  0.26759  0.69354  1.0000
  H   H350      1.0  0.22138  0.22063  0.80198  1.0000
  C   C213      1.0  0.30784  0.29697  0.79407  1.0000
  N   N24       1.0  0.20735  0.25331  0.79347  1.0000
  Fe  Fe54      1.0  0.98641  0.25051  0.73607  1.0000
  H   H351      1.0  0.30942  0.25235  0.79422  1.0000
  C   C214      1.0  0.27890  0.02605  0.77161  1.0000
  H   H352      1.0  0.19972  0.28505  0.78158  1.0000
  C   C215      1.0  0.24016  0.05349  0.74671  1.0000
  C   C216      1.0  0.22487  0.07297  0.74834  1.0000
  C   C217      1.0  0.24123  0.10531  0.74942  1.0000
  C   C218      1.0  0.27316  0.11854  0.74890  1.0000
  C   C219      1.0  0.28849  0.09908  0.74725  1.0000
  C   C220      1.0  0.27211  0.06673  0.74615  1.0000
  H   H353      1.0  0.20015  0.06298  0.74878  1.0000
  H   H354      1.0  0.22909  0.11995  0.75068  1.0000
  H   H355      1.0  0.31319  0.10912  0.74676  1.0000
  H   H356      1.0  0.28417  0.05209  0.74474  1.0000
  H   H357      1.0  0.37778  0.42934  0.66431  1.0000
  C   C221      1.0  0.10646  0.23124  0.75134  1.0000
  C   C222      1.0  0.09573  0.20695  0.75943  1.0000
  C   C223      1.0  0.11533  0.19353  0.76358  1.0000
  C   C224      1.0  0.14549  0.20409  0.75952  1.0000
  C   C225      1.0  0.15592  0.22808  0.75132  1.0000
  C   C226      1.0  0.13660  0.24178  0.74735  1.0000
  H   H358      1.0  0.07249  0.19866  0.76254  1.0000
  H   H359      1.0  0.10707  0.17484  0.76988  1.0000
  H   H360      1.0  0.17883  0.23604  0.74796  1.0000
  H   H361      1.0  0.14511  0.26056  0.74111  1.0000
  C   C227      1.0  0.99595  0.28604  0.70677  1.0000
  C   C228      1.0  0.31131  0.27234  0.79964  1.0000
  C   C229      1.0  0.00438  0.31331  0.70019  1.0000
  C   C230      1.0  0.00892  0.28678  0.68164  1.0000
  C   C231      1.0  0.01105  0.31377  0.68773  1.0000
  H   H362      1.0  0.11459  0.47438  0.64929  1.0000
  H   H363      1.0  0.24712  0.24397  0.79089  1.0000
  H   H364      1.0  0.21151  0.21304  0.78611  1.0000
  H   H365      1.0  0.01752  0.33493  0.68280  1.0000
  H   H366      1.0  0.29549  0.04830  0.76805  1.0000
  C   C232      1.0  0.99334  0.27785  0.79438  1.0000
  H   H367      1.0  0.29978  0.03341  0.79468  1.0000
  C   C233      1.0  0.28668  0.04720  0.79208  1.0000
  H   H368      1.0  0.30809  0.34210  0.79704  1.0000
  H   H369      1.0  0.29163  0.01160  0.77366  1.0000
  H   H370      1.0  0.35925  0.42272  0.69676  1.0000
  C   C234      1.0  0.01988  0.22951  0.64521  1.0000
  H   H371      1.0  0.26201  0.01412  0.76416  1.0000
  C   C235      1.0  0.03044  0.45576  0.64300  1.0000
  C   C236      1.0  0.12138  0.46056  0.64265  1.0000
  C   C237      1.0  0.21845  0.38224  0.64037  1.0000
  H   H372      1.0  0.16313  0.21796  0.78844  1.0000
  H   H373      1.0  0.01332  0.36611  0.74792  1.0000
  H   H374      1.0  0.26205  0.07250  0.77543  1.0000
  H   H375      1.0  0.24274  0.39619  0.64155  1.0000
  C   C238      1.0  0.05285  0.46453  0.65227  1.0000
  H   H376      1.0  0.05802  0.44712  0.65677  1.0000
  H   H377      1.0  0.33990  0.46807  0.68298  1.0000
  H   H378      1.0  0.01697  0.35998  0.77038  1.0000
  S   S108      1.0  0.98755  0.28661  0.72246  1.0000
  Fe  Fe55      1.0  0.98446  0.24335  0.76405  1.0000
  N   N25       1.0  0.08845  0.28174  0.71048  1.0000
  C   C239      1.0  0.06796  0.28675  0.71935  1.0000
  C   C240      1.0  0.11563  0.31099  0.70896  1.0000
  C   C241      1.0  0.07195  0.27129  0.69867  1.0000
  C   C242      1.0  0.09826  0.25796  0.71493  1.0000
  H   H379      1.0  0.04704  0.26523  0.72062  1.0000
  H   H380      1.0  0.06018  0.30466  0.71635  1.0000
  H   H381      1.0  0.07946  0.29411  0.72845  1.0000
  H   H382      1.0  0.12844  0.31963  0.71775  1.0000
  H   H383      1.0  0.13174  0.30795  0.70241  1.0000
  H   H384      1.0  0.10905  0.32935  0.70550  1.0000
  H   H385      1.0  0.06404  0.28864  0.69509  1.0000
  H   H386      1.0  0.05138  0.24917  0.69950  1.0000
  H   H387      1.0  0.08673  0.26752  0.69170  1.0000
  H   H388      1.0  0.11241  0.25229  0.70820  1.0000
  H   H389      1.0  0.07828  0.23615  0.71698  1.0000
  H   H390      1.0  0.11228  0.26585  0.72349  1.0000
  H   H391      1.0  0.99845  0.23841  0.68362  1.0000
  C   C243      1.0  0.37672  0.44586  0.69431  1.0000
  H   H392      1.0  0.98743  0.23790  0.70561  1.0000
  H   H393      1.0  0.25361  0.98537  0.78879  1.0000
  H   H394      1.0  0.25959  0.20329  0.70023  1.0000
  H   H395      1.0  0.23505  0.05467  0.78713  1.0000
  C   C244      1.0  0.99418  0.25914  0.70072  1.0000
  N   N26       1.0  0.28119  0.17947  0.71062  1.0000
  C   C245      1.0  0.27214  0.15240  0.71849  1.0000
  C   C246      1.0  0.29877  0.17540  0.70034  1.0000
  C   C247      1.0  0.30043  0.20770  0.71774  1.0000
  H   H396      1.0  0.29246  0.14962  0.72235  1.0000
  H   H397      1.0  0.25762  0.13058  0.71346  1.0000
  H   H398      1.0  0.30586  0.19546  0.69424  1.0000
  H   H399      1.0  0.31991  0.17324  0.70360  1.0000
  H   H400      1.0  0.28499  0.15424  0.69478  1.0000
  H   H401      1.0  0.23856  0.16191  0.70036  1.0000
  N   N27       1.0  0.26349  0.03102  0.78243  1.0000
  H   H402      1.0  0.03191  0.21400  0.64410  1.0000
  C   C248      1.0  0.99511  0.34219  0.74746  1.0000
  H   H403      1.0  0.20582  0.42080  0.64242  1.0000
  C   C249      1.0  0.21087  0.26864  0.78169  1.0000
  H   H404      1.0  0.20034  0.25147  0.77410  1.0000
  H   H405      1.0  0.23545  0.28183  0.77960  1.0000
  H   H406      1.0  0.14263  0.45926  0.64629  1.0000
  H   H407      1.0  0.03769  0.25362  0.64615  1.0000
  H   H408      1.0  0.16218  0.25132  0.79602  1.0000
  H   H409      1.0  0.00637  0.32624  0.74561  1.0000
  Fe  Fe56      1.0  0.34701  0.40728  0.64356  1.0000
  C   C250      1.0  0.22251  0.23179  0.79311  1.0000
  H   H410      1.0  0.34236  0.45343  0.66805  1.0000
  C   C251      1.0  0.34444  0.44989  0.67796  1.0000
  C   C252      1.0  0.17443  0.23587  0.79575  1.0000
  H   H411      1.0  0.37276  0.46358  0.69991  1.0000
  S   S109      1.0  0.37108  0.37671  0.64723  1.0000
  C   C253      1.0  0.24184  0.00082  0.78681  1.0000
  H   H412      1.0  0.42025  0.44091  0.65143  1.0000
  H   H413      1.0  0.36255  0.40334  0.67640  1.0000
  H   H414      1.0  0.30343  0.07004  0.78904  1.0000
  H   H415      1.0  0.40285  0.42701  0.67616  1.0000
  H   H416      1.0  0.00775  0.22434  0.65398  1.0000
  H   H417      1.0  0.10324  0.43657  0.64239  1.0000
  H   H418      1.0  0.22856  0.03796  0.77202  1.0000
  H   H419      1.0  0.27591  0.05135  0.80041  1.0000
  C   C254      1.0  0.19746  0.39611  0.64084  1.0000
  C   C255      1.0  0.24659  0.04991  0.77916  1.0000
  H   H420      1.0  0.17089  0.22378  0.80452  1.0000
  S   S110      1.0  0.30517  0.31800  0.64410  1.0000
  H   H421      1.0  0.21089  0.29358  0.80384  1.0000
  S   S111      1.0  0.37251  0.45955  0.64264  1.0000
  C   C256      1.0  0.98081  0.28720  0.80435  1.0000
  H   H422      1.0  0.00944  0.31998  0.76786  1.0000
  C   C257      1.0  0.22167  0.27687  0.80327  1.0000
  H   H423      1.0  0.24651  0.29032  0.80172  1.0000
  C   C258      1.0  0.41263  0.47975  0.64496  1.0000
  C   C259      1.0  0.99842  0.33639  0.76914  1.0000
  H   H424      1.0  0.98585  0.33024  0.77781  1.0000
  S   S112      1.0  0.28508  0.98227  0.74613  1.0000
  Fe  Fe57      1.0  0.28469  0.35256  0.64075  1.0000
  N   N28       1.0  0.97762  0.33444  0.75878  1.0000
  H   H425      1.0  0.98087  0.38055  0.76188  1.0000
  C   C260      1.0  0.39880  0.48164  0.67821  1.0000
  C   C261      1.0  0.04196  0.29607  0.80565  1.0000
  S   S113      1.0  0.14021  0.39665  0.63968  1.0000
  Fe  Fe58      1.0  0.03130  0.38180  0.64000  1.0000
  Fe  Fe59      1.0  0.04629  0.34043  0.84741  1.0000
  S   S114      1.0  0.07534  0.39098  0.85151  1.0000
  S   S115      1.0  0.05343  0.32235  0.82869  1.0000
  Fe  Fe60      1.0  0.02503  0.32967  0.87416  1.0000
  S   S116      1.0  0.05337  0.37904  0.87979  1.0000
  H   H426      1.0  0.02088  0.41358  0.88993  1.0000
  Fe  Fe61      1.0  0.03622  0.39114  0.86243  1.0000
  S   S117      1.0  0.01355  0.42506  0.86276  1.0000
  Fe  Fe62      1.0  0.08998  0.37455  0.86846  1.0000
  S   S118      1.0  0.13944  0.39779  0.87494  1.0000
  S   S119      1.0  0.00577  0.34167  0.85711  1.0000
  S   S120      1.0  0.06314  0.32407  0.86401  1.0000
  Fe  Fe63      1.0  0.28000  0.35641  0.86002  1.0000
  S   S121      1.0  0.29055  0.31533  0.86370  1.0000
  S   S122      1.0  0.22967  0.34220  0.85542  1.0000
  Fe  Fe64      1.0  0.34858  0.40059  0.85938  1.0000
  S   S123      1.0  0.36275  0.36191  0.86302  1.0000
  S   S124      1.0  0.38233  0.44863  0.85349  1.0000
  Fe  Fe65      1.0  0.32575  0.33392  0.84934  1.0000
  S   S125      1.0  0.33246  0.30215  0.83495  1.0000
  Fe  Fe66      1.0  0.32583  0.34698  0.87707  1.0000
  S   S126      1.0  0.33710  0.33150  0.89538  1.0000
  S   S127      1.0  0.31331  0.37307  0.84492  1.0000
  S   S128      1.0  0.31356  0.38762  0.87425  1.0000
  C   C262      1.0  0.17060  0.37032  0.82358  1.0000
  H   H427      1.0  0.18632  0.32453  0.95415  1.0000
  C   C263      1.0  0.41407  0.98767  0.89555  1.0000
  C   C264      1.0  0.97417  0.16398  0.93745  1.0000
  H   H428      1.0  0.25909  0.23409  0.91768  1.0000
  H   H429      1.0  0.39373  0.42192  0.82876  1.0000
  H   H430      1.0  0.16008  0.35289  0.81608  1.0000
  H   H431      1.0  0.21133  0.30511  0.95259  1.0000
  C   C265      1.0  0.27471  0.22322  0.91483  1.0000
  H   H432      1.0  0.37427  0.39026  0.83828  1.0000
  Fe  Fe67      1.0  0.25278  0.25547  0.95710  1.0000
  S   S129      1.0  0.24746  0.27859  0.93972  1.0000
  S   S130      1.0  0.22254  0.20476  0.95670  1.0000
  H   H433      1.0  0.17192  0.24649  0.96423  1.0000
  H   H434      1.0  0.29004  0.17483  0.91245  1.0000
  C   C266      1.0  0.43537  0.40165  0.82083  1.0000
  H   H435      1.0  0.13508  0.27184  0.96665  1.0000
  C   C267      1.0  0.16198  0.39597  0.84132  1.0000
  C   C268      1.0  0.36833  0.98902  0.90408  1.0000
  C   C269      1.0  0.42108  0.47190  0.85797  1.0000
  Fe  Fe68      1.0  0.25996  0.19816  0.96689  1.0000
  H   H436      1.0  0.30441  0.17670  0.92777  1.0000
  S   S131      1.0  0.00093  0.21250  0.96378  1.0000
  C   C270      1.0  0.30016  0.19056  0.92049  1.0000
  C   C271      1.0  0.99990  0.41316  0.89426  1.0000
  C   C272      1.0  0.31194  0.31747  0.90768  1.0000
  C   C273      1.0  0.32332  0.31112  0.91868  1.0000
  C   C274      1.0  0.30410  0.29965  0.92864  1.0000
  C   C275      1.0  0.27312  0.29409  0.92766  1.0000
  C   C276      1.0  0.26176  0.30050  0.91669  1.0000
  C   C277      1.0  0.28101  0.31209  0.90675  1.0000
  H   H437      1.0  0.34729  0.31552  0.91953  1.0000
  H   H438      1.0  0.31339  0.29566  0.93711  1.0000
  H   H439      1.0  0.23789  0.29647  0.91583  1.0000
  H   H440      1.0  0.27194  0.31692  0.89837  1.0000
  H   H441      1.0  0.13894  0.40527  0.82010  1.0000
  H   H442      1.0  0.29824  0.21248  0.94297  1.0000
  H   H443      1.0  0.11447  0.25222  0.95315  1.0000
  C   C278      1.0  0.32130  0.30004  0.81938  1.0000
  C   C279      1.0  0.27741  0.10591  0.96411  1.0000
  N   N29       1.0  0.27978  0.20496  0.92468  1.0000
  H   H444      1.0  0.31892  0.34429  0.81926  1.0000
  H   H445      1.0  0.32195  0.25531  0.81635  1.0000
  C   C280      1.0  0.23132  0.06108  0.96896  1.0000
  C   C281      1.0  0.16472  0.38048  0.87151  1.0000
  C   C282      1.0  0.15368  0.35012  0.86692  1.0000
  C   C283      1.0  0.17421  0.33806  0.86276  1.0000
  C   C284      1.0  0.20583  0.35622  0.86312  1.0000
  C   C285      1.0  0.21705  0.38607  0.86829  1.0000
  C   C286      1.0  0.19647  0.39815  0.87249  1.0000
  H   H446      1.0  0.12933  0.33614  0.86634  1.0000
  H   H447      1.0  0.16550  0.31477  0.85894  1.0000
  H   H448      1.0  0.24142  0.40025  0.86858  1.0000
  H   H449      1.0  0.20513  0.42164  0.87610  1.0000
  C   C287      1.0  0.99548  0.29147  0.90272  1.0000
  H   H450      1.0  0.19166  0.07058  0.97207  1.0000
  S   S132      1.0  0.29174  0.24830  0.96591  1.0000
  C   C288      1.0  0.00111  0.28387  0.92808  1.0000
  C   C289      1.0  0.02545  0.30551  0.92168  1.0000
  C   C290      1.0  0.02274  0.30925  0.90910  1.0000
  H   H451      1.0  0.14833  0.22577  0.95148  1.0000
  H   H452      1.0  0.99772  0.37690  0.91306  1.0000
  H   H453      1.0  0.04666  0.31950  0.92650  1.0000
  H   H454      1.0  0.04177  0.32594  0.90435  1.0000
  H   H455      1.0  0.14502  0.39750  0.84782  1.0000
  C   C291      1.0  0.43658  0.46315  0.86698  1.0000
  C   C292      1.0  0.21569  0.08039  0.96994  1.0000
  H   H456      1.0  0.17477  0.41943  0.83776  1.0000
  C   C293      1.0  0.99063  0.36502  0.90401  1.0000
  C   C294      1.0  0.25013  0.18063  0.92814  1.0000
  H   H457      1.0  0.30127  0.11559  0.96172  1.0000
  H   H458      1.0  0.27937  0.23674  0.93871  1.0000
  H   H459      1.0  0.23399  0.19076  0.93107  1.0000
  H   H460      1.0  0.26430  0.20866  0.90654  1.0000
  H   H461      1.0  0.18339  0.27921  0.93372  1.0000
  C   C295      1.0  0.99870  0.30080  0.81494  1.0000
  H   H462      1.0  0.23892  0.16413  0.92043  1.0000
  H   H463      1.0  0.29652  0.24235  0.91218  1.0000
  C   C296      1.0  0.02942  0.30526  0.81567  1.0000
  N   N30       1.0  0.41674  0.39197  0.83178  1.0000
  C   C297      1.0  0.38856  0.39710  0.83012  1.0000
  C   C298      1.0  0.29416  0.22549  0.93533  1.0000
  H   H464      1.0  0.10822  0.38438  0.82997  1.0000
  H   H465      1.0  0.25305  0.16709  0.93586  1.0000
  C   C299      1.0  0.40848  0.35878  0.83369  1.0000
  H   H466      1.0  0.32277  0.20835  0.91784  1.0000
  H   H467      1.0  0.31660  0.24419  0.93309  1.0000
  S   S133      1.0  0.99037  0.29618  0.88695  1.0000
  N   N31       1.0  0.14698  0.37282  0.83145  1.0000
  H   H468      1.0  0.19110  0.30222  0.96639  1.0000
  C   C300      1.0  0.16167  0.27731  0.93793  1.0000
  N   N32       1.0  0.16332  0.27526  0.95128  1.0000
  H   H469      1.0  0.42259  0.38813  0.81262  1.0000
  C   C301      1.0  0.13439  0.27321  0.95658  1.0000
  C   C302      1.0  0.18911  0.30303  0.95633  1.0000
  C   C303      1.0  0.16826  0.24745  0.95431  1.0000
  H   H470      1.0  0.12969  0.29367  0.95441  1.0000
  H   H471      1.0  0.37431  0.38332  0.82225  1.0000
  H   H472      1.0  0.27463  0.05943  0.96534  1.0000
  H   H473      1.0  0.11574  0.32489  0.82958  1.0000
  H   H474      1.0  0.21979  0.26614  0.81229  1.0000
  H   H475      1.0  0.42909  0.35384  0.83490  1.0000
  H   H476      1.0  0.11225  0.34387  0.84332  1.0000
  H   H477      1.0  0.45689  0.39816  0.82178  1.0000
  H   H478      1.0  0.15777  0.29795  0.93529  1.0000
  C   C304      1.0  0.37200  0.98403  0.88237  1.0000
  H   H479      1.0  0.39444  0.35066  0.84190  1.0000
  S   S134      1.0  0.00621  0.28067  0.94398  1.0000
  H   H480      1.0  0.17865  0.39002  0.84664  1.0000
  H   H481      1.0  0.38190  0.00948  0.88131  1.0000
  H   H482      1.0  0.07880  0.46614  0.86285  1.0000
  Fe  Fe69      1.0  0.98607  0.25094  0.96051  1.0000
  H   H483      1.0  0.98872  0.30776  0.82255  1.0000
  C   C305      1.0  0.12632  0.38247  0.82423  1.0000
  H   H484      1.0  0.11422  0.36527  0.81681  1.0000
  H   H485      1.0  0.99264  0.47374  0.86421  1.0000
  C   C306      1.0  0.43440  0.41036  0.84248  1.0000
  H   H486      1.0  0.01121  0.36370  0.89997  1.0000
  C   C307      1.0  0.26171  0.12515  0.96501  1.0000
  S   S135      1.0  0.28126  0.16492  0.96205  1.0000
  C   C308      1.0  0.12902  0.34245  0.83670  1.0000
  H   H487      1.0  0.18878  0.24716  0.94985  1.0000
  H   H488      1.0  0.14399  0.33343  0.84153  1.0000
  C   C309      1.0  0.23087  0.11235  0.96809  1.0000
  S   S136      1.0  0.21102  0.02085  0.97092  1.0000
  H   H489      1.0  0.14274  0.25651  0.93380  1.0000
  C   C310      1.0  0.06581  0.48014  0.86332  1.0000
  H   H490      1.0  0.44105  0.43553  0.84131  1.0000
  H   H491      1.0  0.37812  0.01466  0.90382  1.0000
  H   H492      1.0  0.44181  0.42655  0.81911  1.0000
  C   C311      1.0  0.31843  0.27409  0.81219  1.0000
  H   H493      1.0  0.42071  0.40404  0.85086  1.0000
  C   C312      1.0  0.31691  0.32425  0.81387  1.0000
  H   H494      1.0  0.42499  0.01326  0.89488  1.0000
  H   H495      1.0  0.39454  0.34415  0.82589  1.0000
  H   H496      1.0  0.42477  0.44175  0.87163  1.0000
  H   H497      1.0  0.18657  0.36316  0.82886  1.0000
  H   H498      1.0  0.21851  0.12692  0.96881  1.0000
  C   C313      1.0  0.26236  0.07404  0.96617  1.0000
  H   H499      1.0  0.97963  0.14741  0.93174  1.0000
  H   H500      1.0  0.18464  0.39283  0.81947  1.0000
  H   H501      1.0  0.97413  0.34078  0.90548  1.0000
  N   N33       1.0  0.97723  0.38117  0.89602  1.0000
  H   H502      1.0  0.45567  0.40684  0.84418  1.0000
  C   C314      1.0  0.03384  0.46590  0.86344  1.0000
  S   S137      1.0  0.28541  0.00007  0.97063  1.0000
  H   H503      1.0  0.99517  0.18595  0.93828  1.0000
  H   H504      1.0  0.98866  0.36357  0.87964  1.0000
  C   C315      1.0  0.97377  0.26610  0.92170  1.0000
  H   H505      1.0  0.00714  0.42648  0.90303  1.0000
  H   H506      1.0  0.09204  0.17153  0.97094  1.0000
  H   H507      1.0  0.99063  0.42590  0.88816  1.0000
  H   H508      1.0  0.97645  0.20482  0.92055  1.0000
  H   H509      1.0  0.42121  0.98167  0.90444  1.0000
  H   H510      1.0  0.37349  0.98251  0.91323  1.0000
  H   H511      1.0  0.06565  0.29933  0.80610  1.0000
  Fe  Fe70      1.0  0.01093  0.69075  0.99437  1.0000
  C   C316      1.0  0.00175  0.54276  0.11585  1.0000
  H   H512      1.0  0.28707  0.94484  0.04008  1.0000
  H   H513      1.0  0.98483  0.54739  0.11018  1.0000
  C   C317      1.0  0.01115  0.65180  0.03532  1.0000
  C   C318      1.0  0.34714  0.98078  0.13252  1.0000
  H   H514      1.0  0.99453  0.51724  0.11544  1.0000
  C   C319      1.0  0.01848  0.66900  0.13650  1.0000
  H   H515      1.0  0.07763  0.73698  0.02137  1.0000
  H   H516      1.0  0.08894  0.93447  0.98500  1.0000
  H   H517      1.0  0.07350  0.80832  0.00935  1.0000
  S   S138      1.0  0.18967  0.87797  0.98953  1.0000
  C   C320      1.0  0.13935  0.93328  0.99571  1.0000
  H   H518      1.0  0.07827  0.77242  0.03858  1.0000
  C   C321      1.0  0.04091  0.59296  0.11161  1.0000
  C   C322      1.0  0.13642  0.82543  0.98939  1.0000
  H   H519      1.0  0.14925  0.81604  0.99493  1.0000
  C   C323      1.0  0.10605  0.95692  0.98885  1.0000
  H   H520      1.0  0.45601  0.96019  0.12768  1.0000
  H   H521      1.0  0.05779  0.56029  0.09509  1.0000
  S   S139      1.0  0.02437  0.67735  0.01270  1.0000
  C   C324      1.0  0.99193  0.63707  0.04497  1.0000
  H   H522      1.0  0.09947  0.95948  0.99832  1.0000
  H   H523      1.0  0.00147  0.63184  0.05314  1.0000
  S   S140      1.0  0.04866  0.71710  0.98158  1.0000
  C   C325      1.0  0.30155  0.97112  0.02381  1.0000
  H   H524      1.0  0.16848  0.95549  0.97515  1.0000
  H   H525      1.0  0.01300  0.75669  0.02949  1.0000
  N   N34       1.0  0.03302  0.55940  0.11135  1.0000
  Fe  Fe71      1.0  0.28318  0.97941  0.98914  1.0000
  S   S141      1.0  0.27061  0.93194  0.98102  1.0000
  C   C326      1.0  0.08814  0.81970  0.97993  1.0000
  H   H526      1.0  0.07876  0.56514  0.11607  1.0000
  H   H527      1.0  0.03909  0.77718  0.00396  1.0000
  Fe  Fe72      1.0  0.02336  0.74702  0.97875  1.0000
  H   H528      1.0  0.03764  0.80172  0.01628  1.0000
  H   H529      1.0  0.01301  0.73188  0.01703  1.0000
  H   H530      1.0  0.02767  0.69104  0.13211  1.0000
  C   C327      1.0  0.10525  0.80737  0.98665  1.0000
  H   H531      1.0  0.09673  0.80538  0.02930  1.0000
  N   N35       1.0  0.05667  0.76935  0.02107  1.0000
  S   S142      1.0  0.98734  0.72284  0.99249  1.0000
  H   H532      1.0  0.09725  0.77063  0.01248  1.0000
  C   C328      1.0  0.15100  0.85560  0.98515  1.0000
  C   C329      1.0  0.00412  0.64167  0.12942  1.0000
  H   H533      1.0  0.04939  0.52781  0.11921  1.0000
  H   H534      1.0  0.02987  0.72934  0.03127  1.0000
  C   C330      1.0  0.07432  0.75380  0.01523  1.0000
  H   H535      1.0  0.02486  0.59851  0.10572  1.0000
  C   C331      1.0  0.02687  0.74594  0.02491  1.0000
  C   C332      1.0  0.07406  0.78754  0.03184  1.0000
  S   S143      1.0  0.00232  0.64393  0.11339  1.0000
  H   H536      1.0  0.06141  0.79957  0.03649  1.0000
  H   H537      1.0  0.28170  0.95619  0.01843  1.0000
  H   H538      1.0  0.13502  0.93595  0.00547  1.0000
  H   H539      1.0  0.06215  0.74042  0.00692  1.0000
  H   H540      1.0  0.03544  0.65773  0.03617  1.0000
  C   C333      1.0  0.05152  0.79010  0.01233  1.0000
  S   S144      1.0  0.98307  0.65796  0.97948  1.0000
  C   C334      1.0  0.05490  0.55300  0.11920  1.0000
  H   H541      1.0  0.05439  0.56077  0.12878  1.0000
  H   H542      1.0  0.16239  0.93284  0.99518  1.0000
  C   C335      1.0  0.10288  0.84972  0.97550  1.0000
  Fe  Fe73      1.0  0.22150  0.92487  0.98259  1.0000
  C   C336      1.0  0.99913  0.65855  0.02456  1.0000
  H   H543      1.0  0.42006  0.97563  0.10840  1.0000
  C   C337      1.0  0.99254  0.61331  0.13520  1.0000
  S   S145      1.0  0.33294  0.97457  0.05869  1.0000
  S   S146      1.0  0.04806  0.79936  0.97768  1.0000
  H   H544      1.0  0.09426  0.78422  0.98999  1.0000
  N   N36       1.0  0.13745  0.95839  0.98848  1.0000
  H   H545      1.0  0.06438  0.60640  0.10833  1.0000
  H   H546      1.0  0.03963  0.60179  0.12094  1.0000
  H   H547      1.0  0.99977  0.54981  0.12538  1.0000
  S   S147      1.0  0.23420  0.97094  0.99216  1.0000
  H   H548      1.0  0.01854  0.55382  0.09254  1.0000
  H   H549      1.0  0.02736  0.52333  0.09811  1.0000
  S   S148      1.0  0.36401  0.97420  0.11907  1.0000
  H   H550      1.0  0.42583  0.97266  0.13026  1.0000
  C   C338      1.0  0.03441  0.54880  0.09874  1.0000
  C   C339      1.0  0.30466  0.96475  0.03609  1.0000
  H   H551      1.0  0.12227  0.91023  0.99242  1.0000
  C   C340      1.0  0.13435  0.86737  0.97789  1.0000
  C   C341      1.0  0.14506  0.95482  0.97575  1.0000
  H   H552      1.0  0.23499  0.86340  0.97635  1.0000
  H   H553      1.0  0.14556  0.89026  0.97435  1.0000
  H   H554      1.0  0.98129  0.59212  0.12988  1.0000
  H   H555      1.0  0.45145  0.96546  0.10523  1.0000
  S   S149      1.0  0.97859  0.58582  0.08424  1.0000
  H   H556      1.0  0.10395  0.97564  0.98348  1.0000
  C   C342      1.0  0.45105  0.98094  0.12909  1.0000
  Fe  Fe74      1.0  0.24072  0.92025  0.20075  1.0000
  S   S150      1.0  0.29162  0.93716  0.19750  1.0000
  S   S151      1.0  0.21421  0.86790  0.20199  1.0000
  H   H557      1.0  0.28869  0.92345  0.22690  1.0000
  N   N37       1.0  0.08286  0.76946  0.23329  1.0000
  C   C343      1.0  0.05097  0.76640  0.23213  1.0000
  H   H558      1.0  0.30882  0.89256  0.24683  1.0000
  H   H559      1.0  0.08374  0.77284  0.25279  1.0000
  S   S152      1.0  0.23484  0.95307  0.18749  1.0000
  S   S153      1.0  0.24689  0.95171  0.21715  1.0000
  S   S154      1.0  0.33576  0.97502  0.28529  1.0000
  Fe  Fe75      1.0  0.03736  0.73903  0.19612  1.0000
  S   S155      1.0  0.04974  0.69903  0.19971  1.0000
  S   S156      1.0  0.06898  0.79076  0.19687  1.0000
  Fe  Fe76      1.0  0.01476  0.67318  0.18493  1.0000
  H   H560      1.0  0.04663  0.77462  0.22318  1.0000
  Fe  Fe77      1.0  0.01032  0.68375  0.21264  1.0000
  S   S157      1.0  0.02175  0.67267  0.23181  1.0000
  Fe  Fe78      1.0  0.28604  0.97238  0.18537  1.0000
  S   S158      1.0  0.99899  0.72461  0.20948  1.0000
  H   H561      1.0  0.11258  0.75289  0.22393  1.0000
  H   H562      1.0  0.26413  0.88984  0.23468  1.0000
  H   H563      1.0  0.34286  0.93800  0.14038  1.0000
  H   H564      1.0  0.31081  0.88958  0.20803  1.0000
  H   H565      1.0  0.07184  0.73427  0.24658  1.0000
  S   S159      1.0  0.01511  0.63732  0.17089  1.0000
  C   C344      1.0  0.00774  0.65012  0.25481  1.0000
  H   H566      1.0  0.28743  0.95146  0.26709  1.0000
  H   H567      1.0  0.03219  0.65761  0.25608  1.0000
  H   H568      1.0  0.11155  0.76059  0.24648  1.0000
  C   C345      1.0  0.02126  0.66809  0.14924  1.0000
  H   H569      1.0  0.10082  0.81739  0.23897  1.0000
  H   H570      1.0  0.03261  0.68930  0.15456  1.0000
  C   C346      1.0  0.08780  0.75891  0.24534  1.0000
  H   H571      1.0  0.03432  0.74187  0.23291  1.0000
  C   C347      1.0  0.10407  0.80214  0.23185  1.0000
  H   H572      1.0  0.26506  0.88912  0.21841  1.0000
  H   H573      1.0  0.10024  0.81065  0.22288  1.0000
  H   H574      1.0  0.28639  0.95537  0.24462  1.0000
  H   H575      1.0  0.07356  0.72526  0.22478  1.0000
  H   H576      1.0  0.33421  0.92522  0.23878  1.0000
  H   H577      1.0  0.34159  0.89123  0.23949  1.0000
  C   C348      1.0  0.17384  0.84681  0.20011  1.0000
  C   C349      1.0  0.15393  0.86157  0.19935  1.0000
  C   C350      1.0  0.12203  0.84398  0.19821  1.0000
  C   C351      1.0  0.10956  0.81147  0.19769  1.0000
  C   C352      1.0  0.12948  0.79668  0.19838  1.0000
  C   C353      1.0  0.16139  0.81427  0.19966  1.0000
  H   H578      1.0  0.16307  0.88653  0.19969  1.0000
  H   H579      1.0  0.10688  0.85570  0.19768  1.0000
  H   H580      1.0  0.12039  0.77173  0.19783  1.0000
  H   H581      1.0  0.17656  0.80259  0.20015  1.0000
  H   H582      1.0  0.12839  0.80530  0.23229  1.0000
  H   H583      1.0  0.04571  0.78022  0.23929  1.0000
  H   H584      1.0  0.08340  0.75649  0.21457  1.0000
  C   C354      1.0  0.01041  0.63972  0.15499  1.0000
  H   H585      1.0  0.00775  0.57124  0.26924  1.0000
  S   S160      1.0  0.00552  0.71433  0.18030  1.0000
  C   C355      1.0  0.08841  0.75019  0.22375  1.0000
  C   C356      1.0  0.99597  0.65478  0.24359  1.0000
  N   N38       1.0  0.30444  0.88723  0.22733  1.0000
  C   C357      1.0  0.29110  0.85309  0.22713  1.0000
  C   C358      1.0  0.32406  0.89857  0.21671  1.0000
  C   C359      1.0  0.32304  0.89949  0.23861  1.0000
  C   C360      1.0  0.27948  0.89785  0.22683  1.0000
  H   H586      1.0  0.27634  0.84380  0.23507  1.0000
  H   H587      1.0  0.30922  0.84412  0.22730  1.0000
  H   H588      1.0  0.27655  0.84330  0.21877  1.0000
  H   H589      1.0  0.33412  0.92431  0.21650  1.0000
  H   H590      1.0  0.34340  0.89135  0.21685  1.0000
  C   C361      1.0  0.98817  0.63609  0.26443  1.0000
  C   C362      1.0  0.98294  0.55897  0.27109  1.0000
  C   C363      1.0  0.30763  0.96723  0.24973  1.0000
  S   S161      1.0  0.97677  0.65419  0.19822  1.0000
  H   H591      1.0  0.99765  0.63315  0.27305  1.0000
  C   C364      1.0  0.99611  0.61235  0.14790  1.0000
  H   H592      1.0  0.97252  0.49984  0.26644  1.0000
  H   H593      1.0  0.32036  0.94648  0.15960  1.0000
  H   H594      1.0  0.99562  0.57047  0.24767  1.0000
  C   C365      1.0  0.30825  0.96510  0.26249  1.0000
  Fe  Fe79      1.0  0.29700  0.96987  0.21340  1.0000
  C   C366      1.0  0.97620  0.51467  0.25835  1.0000
  H   H595      1.0  0.98082  0.54486  0.27926  1.0000
  S   S162      1.0  0.97268  0.57777  0.30134  1.0000
  H   H596      1.0  0.98766  0.59030  0.15228  1.0000
  H   H597      1.0  0.97426  0.57671  0.27350  1.0000
  C   C367      1.0  0.32642  0.96358  0.15264  1.0000
  H   H598      1.0  0.00108  0.52433  0.25644  1.0000
  C   C368      1.0  0.33561  0.98039  0.26935  1.0000
  C   C369      1.0  0.33921  0.95886  0.14173  1.0000
  H   H599      1.0  0.97183  0.68327  0.15388  1.0000
  C   C370      1.0  0.38333  0.97195  0.46695  1.0000
  C   C371      1.0  0.32929  0.94769  0.46177  1.0000
  Fe  Fe80      1.0  0.02565  0.60815  0.40565  1.0000
  S   S163      1.0  0.07576  0.61861  0.40465  1.0000
  C   C372      1.0  0.30313  0.94745  0.33038  1.0000
  Fe  Fe81      1.0  0.03246  0.63349  0.43219  1.0000
  S   S164      1.0  0.08313  0.64645  0.43288  1.0000
  S   S165      1.0  0.00987  0.64675  0.44819  1.0000
  Fe  Fe82      1.0  0.08403  0.66395  0.41407  1.0000
  S   S166      1.0  0.11964  0.70800  0.40625  1.0000
  Fe  Fe83      1.0  0.07117  0.60032  0.42347  1.0000
  S   S167      1.0  0.09615  0.57271  0.43073  1.0000
  S   S168      1.0  0.03393  0.65479  0.41387  1.0000
  S   S169      1.0  0.02038  0.58605  0.42402  1.0000
  Fe  Fe84      1.0  0.30954  0.90732  0.40339  1.0000
  S   S170      1.0  0.30032  0.85702  0.40089  1.0000
  S   S171      1.0  0.30207  0.93666  0.38851  1.0000
  Fe  Fe85      1.0  0.33719  0.91183  0.42942  1.0000
  S   S172      1.0  0.33051  0.86214  0.42845  1.0000
  S   S173      1.0  0.36918  0.94430  0.44418  1.0000
  Fe  Fe86      1.0  0.34728  0.87118  0.40946  1.0000
  S   S174      1.0  0.38404  0.86002  0.40068  1.0000
  Fe  Fe87      1.0  0.28372  0.85196  0.42014  1.0000
  S   S175      1.0  0.24450  0.81110  0.42858  1.0000
  S   S176      1.0  0.35698  0.92129  0.41079  1.0000
  S   S177      1.0  0.28958  0.90174  0.42222  1.0000
  C   C373      1.0  0.41668  0.86463  0.40950  1.0000
  C   C374      1.0  0.41732  0.86840  0.42215  1.0000
  H   H600      1.0  0.44171  0.96059  0.43293  1.0000
  C   C375      1.0  0.44284  0.86543  0.40369  1.0000
  H   H601      1.0  0.39716  0.86754  0.42670  1.0000
  H   H602      1.0  0.44241  0.86244  0.39392  1.0000
  C   C376      1.0  0.35957  0.95495  0.45858  1.0000
  C   C377      1.0  0.10850  0.77220  0.42845  1.0000
  H   H603      1.0  0.32520  0.96533  0.33398  1.0000
  H   H604      1.0  0.31080  0.93475  0.45541  1.0000
  H   H605      1.0  0.29992  0.89909  0.34312  1.0000
  C   C378      1.0  0.08959  0.53738  0.42321  1.0000
  C   C379      1.0  0.08040  0.53230  0.41095  1.0000
  H   H606      1.0  0.31876  0.88398  0.33243  1.0000
  C   C380      1.0  0.09535  0.51469  0.42941  1.0000
  H   H607      1.0  0.07586  0.54962  0.40611  1.0000
  H   H608      1.0  0.10254  0.51857  0.43888  1.0000
  C   C381      1.0  0.15522  0.73519  0.41243  1.0000
  C   C382      1.0  0.16481  0.73382  0.42438  1.0000
  C   C383      1.0  0.19234  0.75711  0.42910  1.0000
  C   C384      1.0  0.21075  0.78180  0.42193  1.0000
  C   C385      1.0  0.20137  0.78280  0.40992  1.0000
  C   C386      1.0  0.17369  0.75970  0.40524  1.0000
  H   H609      1.0  0.15093  0.71515  0.43005  1.0000
  H   H610      1.0  0.19944  0.75616  0.43841  1.0000
  H   H611      1.0  0.21523  0.80165  0.40431  1.0000
  H   H612      1.0  0.16646  0.76104  0.39599  1.0000
  C   C387      1.0  0.99030  0.59103  0.37489  1.0000
  C   C388      1.0  0.99781  0.62418  0.46144  1.0000
  H   H613      1.0  0.09941  0.72791  0.44476  1.0000
  H   H614      1.0  0.45972  0.51679  0.44119  1.0000
  H   H615      1.0  0.10523  0.79258  0.42506  1.0000
  C   C389      1.0  0.08473  0.72089  0.43636  1.0000
  H   H616      1.0  0.97488  0.65130  0.46869  1.0000
  H   H617      1.0  0.05829  0.77715  0.43721  1.0000
  H   H618      1.0  0.33914  0.92106  0.33964  1.0000
  C   C390      1.0  0.31653  0.90532  0.33562  1.0000
  H   H619      1.0  0.42063  0.92720  0.40179  1.0000
  C   C391      1.0  0.44267  0.51901  0.40681  1.0000
  H   H620      1.0  0.04132  0.73895  0.44319  1.0000
  H   H621      1.0  0.44424  0.87565  0.43871  1.0000
  H   H622      1.0  0.44779  0.95961  0.39416  1.0000
  C   C392      1.0  0.00787  0.62050  0.37063  1.0000
  C   C393      1.0  0.42932  0.95359  0.42401  1.0000
  H   H623      1.0  0.46385  0.92681  0.41427  1.0000
  C   C394      1.0  0.27777  0.89783  0.32009  1.0000
  C   C395      1.0  0.32703  0.95035  0.37611  1.0000
  C   C396      1.0  0.34992  0.93999  0.37377  1.0000
  H   H624      1.0  0.41169  0.96323  0.42386  1.0000
  H   H625      1.0  0.35291  0.92349  0.37971  1.0000
  H   H626      1.0  0.12454  0.77996  0.43647  1.0000
  N   N39       1.0  0.07903  0.74683  0.43145  1.0000
  H   H627      1.0  0.01862  0.65019  0.35520  1.0000
  C   C397      1.0  0.33086  0.92970  0.31628  1.0000
  H   H628      1.0  0.43788  0.51964  0.39721  1.0000
  C   C398      1.0  0.44400  0.87295  0.42893  1.0000
  H   H629      1.0  0.01827  0.59273  0.45692  1.0000
  C   C399      1.0  0.07788  0.50504  0.40485  1.0000
  C   C400      1.0  0.98549  0.60442  0.35010  1.0000
  H   H630      1.0  0.12023  0.76481  0.42120  1.0000
  N   N40       1.0  0.45016  0.96436  0.41370  1.0000
  H   H631      1.0  0.02312  0.63826  0.37685  1.0000
  C   C401      1.0  0.36858  0.95051  0.36360  1.0000
  H   H632      1.0  0.14246  0.65754  0.40300  1.0000
  H   H633      1.0  0.21731  0.67061  0.41759  1.0000
  H   H634      1.0  0.07041  0.72727  0.41327  1.0000
  C   C402      1.0  0.42186  0.49573  0.41388  1.0000
  H   H635      1.0  0.28670  0.94154  0.33794  1.0000
  H   H636      1.0  0.38583  0.94187  0.36181  1.0000
  H   H637      1.0  0.09657  0.71213  0.42966  1.0000
  H   H638      1.0  0.07775  0.76628  0.44910  1.0000
  H   H639      1.0  0.17951  0.68611  0.40736  1.0000
  H   H640      1.0  0.17538  0.65923  0.39500  1.0000
  C   C403      1.0  0.42794  0.49489  0.42630  1.0000
  S   S178      1.0  0.99100  0.58177  0.39045  1.0000
  H   H641      1.0  0.29473  0.95840  0.32317  1.0000
  H   H642      1.0  0.27985  0.87678  0.31643  1.0000
  C   C404      1.0  0.00527  0.62717  0.35834  1.0000
  C   C405      1.0  0.06341  0.75786  0.44064  1.0000
  H   H643      1.0  0.06295  0.70115  0.43862  1.0000
  H   H644      1.0  0.03692  0.71709  0.42228  1.0000
  N   N41       1.0  0.30707  0.92005  0.32559  1.0000
  H   H645      1.0  0.20747  0.63060  0.42059  1.0000
  C   C406      1.0  0.05942  0.73617  0.42034  1.0000
  H   H646      1.0  0.27017  0.90822  0.31243  1.0000
  C   C407      1.0  0.00528  0.59911  0.46354  1.0000
  H   H647      1.0  0.05490  0.75519  0.41627  1.0000
  N   N42       1.0  0.17090  0.63996  0.41278  1.0000
  C   C408      1.0  0.15916  0.64394  0.42472  1.0000
  C   C409      1.0  0.15370  0.60778  0.40821  1.0000
  C   C410      1.0  0.20374  0.64652  0.41411  1.0000
  C   C411      1.0  0.16695  0.66161  0.40415  1.0000
  H   H648      1.0  0.17128  0.66798  0.42846  1.0000
  H   H649      1.0  0.16149  0.62781  0.43147  1.0000
  H   H650      1.0  0.13441  0.63876  0.42400  1.0000
  H   H651      1.0  0.16194  0.60367  0.39924  1.0000
  H   H652      1.0  0.15564  0.59080  0.41464  1.0000
  H   H653      1.0  0.12882  0.60205  0.40711  1.0000
  H   H654      1.0  0.21338  0.64376  0.40526  1.0000
  C   C412      1.0  0.98089  0.63203  0.47021  1.0000
  S   S179      1.0  0.98132  0.61483  0.33495  1.0000
  H   H655      1.0  0.30588  0.97998  0.37001  1.0000
  C   C413      1.0  0.43267  0.95291  0.40212  1.0000
  H   H656      1.0  0.25932  0.89035  0.32688  1.0000
  H   H657      1.0  0.07155  0.50160  0.39530  1.0000
  H   H658      1.0  0.41687  0.92796  0.42383  1.0000
  C   C414      1.0  0.32339  0.97168  0.36823  1.0000
  H   H659      1.0  0.32484  0.94155  0.30869  1.0000
  H   H660      1.0  0.41494  0.96216  0.40084  1.0000
  C   C415      1.0  0.45489  0.51739  0.43159  1.0000
  C   C416      1.0  0.36483  0.97166  0.35568  1.0000
  H   H661      1.0  0.35334  0.94614  0.32023  1.0000
  H   H662      1.0  0.40681  0.97769  0.46459  1.0000
  H   H663      1.0  0.33427  0.90966  0.31231  1.0000
  C   C417      1.0  0.09185  0.48697  0.42341  1.0000
  C   C418      1.0  0.08355  0.48230  0.41106  1.0000
  C   C419      1.0  0.46967  0.87038  0.41046  1.0000
  C   C420      1.0  0.47027  0.87411  0.42310  1.0000
  C   C421      1.0  0.47009  0.54090  0.41203  1.0000
  Fe  Fe88      1.0  0.04763  0.62206  0.62521  1.0000
  S   S180      1.0  0.09283  0.61814  0.62812  1.0000
  S   S181      1.0  0.01312  0.60058  0.60934  1.0000
  H   H664      1.0  0.41913  0.90440  0.60436  1.0000
  C   C422      1.0  0.46928  0.93880  0.61764  1.0000
  S   S182      1.0  0.29109  0.90673  0.62846  1.0000
  H   H665      1.0  0.31774  0.77233  0.60140  1.0000
  Fe  Fe89      1.0  0.28454  0.85763  0.62513  1.0000
  C   C423      1.0  0.26385  0.74991  0.61297  1.0000
  Fe  Fe90      1.0  0.33821  0.92044  0.62111  1.0000
  S   S183      1.0  0.32983  0.87163  0.61618  1.0000
  S   S184      1.0  0.36507  0.96100  0.60910  1.0000
  H   H666      1.0  0.30121  0.92224  0.50051  1.0000
  H   H667      1.0  0.08407  0.65396  0.52402  1.0000
  H   H668      1.0  0.32895  0.75113  0.62628  1.0000
  H   H669      1.0  0.30787  0.91092  0.53875  1.0000
  C   C424      1.0  0.35757  0.96717  0.56742  1.0000
  H   H670      1.0  0.04130  0.68737  0.52505  1.0000
  H   H671      1.0  0.18269  0.77399  0.60903  1.0000
  H   H672      1.0  0.21458  0.84983  0.63444  1.0000
  H   H673      1.0  0.41300  0.52294  0.63906  1.0000
  H   H674      1.0  0.00153  0.60220  0.52226  1.0000
  H   H675      1.0  0.42715  0.97249  0.60391  1.0000
  C   C425      1.0  0.97851  0.58889  0.57460  1.0000
  H   H676      1.0  0.33980  0.79747  0.61376  1.0000
  C   C426      1.0  0.30266  0.94932  0.52231  1.0000
  C   C427      1.0  0.14907  0.50636  0.63140  1.0000
  H   H677      1.0  0.40995  0.89979  0.62014  1.0000
  C   C428      1.0  0.33982  0.93833  0.58608  1.0000
  C   C429      1.0  0.33769  0.94074  0.57338  1.0000
  H   H678      1.0  0.29055  0.95663  0.51515  1.0000
  H   H679      1.0  0.32418  0.91797  0.59052  1.0000
  H   H680      1.0  0.32034  0.92206  0.56814  1.0000
  C   C430      1.0  0.00965  0.60571  0.59347  1.0000
  C   C431      1.0  0.03264  0.62836  0.58699  1.0000
  C   C432      1.0  0.02853  0.63122  0.57440  1.0000
  H   H681      1.0  0.31170  0.89229  0.50589  1.0000
  H   H682      1.0  0.41550  0.96482  0.62559  1.0000
  H   H683      1.0  0.05351  0.64369  0.59169  1.0000
  H   H684      1.0  0.04642  0.64886  0.56952  1.0000
  H   H685      1.0  0.25558  0.76756  0.61003  1.0000
  N   N43       1.0  0.29503  0.76460  0.61850  1.0000
  C   C433      1.0  0.03266  0.66254  0.52727  1.0000
  C   C434      1.0  0.31678  0.90925  0.52960  1.0000
  H   H686      1.0  0.25680  0.89670  0.52867  1.0000
  C   C435      1.0  0.97906  0.58994  0.48301  1.0000
  C   C436      1.0  0.36175  0.96251  0.59302  1.0000
  S   S185      1.0  0.24096  0.82235  0.61615  1.0000
  H   H687      1.0  0.07685  0.64207  0.50825  1.0000
  H   H688      1.0  0.32692  0.96619  0.52241  1.0000
  H   H689      1.0  0.15307  0.51732  0.62238  1.0000
  C   C437      1.0  0.32297  0.95779  0.47314  1.0000
  C   C438      1.0  0.07178  0.65565  0.51559  1.0000
  C   C439      1.0  0.02298  0.64658  0.50607  1.0000
  H   H690      1.0  0.33773  0.93218  0.50775  1.0000
  H   H691      1.0  0.08159  0.68028  0.51296  1.0000
  H   H692      1.0  0.09879  0.48206  0.61629  1.0000
  C   C440      1.0  0.30555  0.74060  0.62200  1.0000
  C   C441      1.0  0.00144  0.61154  0.56812  1.0000
  H   H693      1.0  0.45126  0.95672  0.59690  1.0000
  H   H694      1.0  0.04370  0.66079  0.53604  1.0000
  H   H695      1.0  0.31518  0.88538  0.52820  1.0000
  H   H696      1.0  0.42911  0.82879  0.62839  1.0000
  C   C442      1.0  0.26737  0.89590  0.51981  1.0000
  H   H697      1.0  0.39437  0.92036  0.61072  1.0000
  H   H698      1.0  0.00225  0.56307  0.47577  1.0000
  C   C443      1.0  0.41765  0.86205  0.63833  1.0000
  H   H699      1.0  0.03010  0.59655  0.51365  1.0000
  H   H700      1.0  0.02704  0.63297  0.49847  1.0000
  C   C444      1.0  0.18896  0.76876  0.61792  1.0000
  N   N44       1.0  0.30000  0.91756  0.51993  1.0000
  N   N45       1.0  0.03850  0.64409  0.51745  1.0000
  C   C445      1.0  0.17809  0.73403  0.63483  1.0000
  N   N46       1.0  0.44196  0.94535  0.61564  1.0000
  C   C446      1.0  0.21637  0.78915  0.62370  1.0000
  C   C447      1.0  0.41522  0.91619  0.61257  1.0000
  C   C448      1.0  0.31316  0.91585  0.50802  1.0000
  C   C449      1.0  0.02651  0.61140  0.52088  1.0000
  H   H701      1.0  0.30864  0.80345  0.60681  1.0000
  H   H702      1.0  0.99770  0.63732  0.50708  1.0000
  H   H703      1.0  0.00774  0.65420  0.52899  1.0000
  S   S186      1.0  0.37828  0.84367  0.63428  1.0000
  H   H704      1.0  0.03717  0.60847  0.52955  1.0000
  H   H705      1.0  0.08889  0.48850  0.63137  1.0000
  H   H706      1.0  0.26447  0.87169  0.51801  1.0000
  S   S187      1.0  0.99731  0.61592  0.55222  1.0000
  H   H707      1.0  0.03099  0.67092  0.50322  1.0000
  H   H708      1.0  0.26307  0.73531  0.60484  1.0000
  H   H709      1.0  0.14875  0.72560  0.61895  1.0000
  C   C450      1.0  0.16969  0.74135  0.62350  1.0000
  H   H710      1.0  0.24697  0.73504  0.61953  1.0000
  H   H711      1.0  0.29345  0.95172  0.53131  1.0000
  C   C451      1.0  0.31625  0.78530  0.60971  1.0000
  H   H712      1.0  0.34151  0.92518  0.52993  1.0000
  H   H713      1.0  0.25415  0.90170  0.51261  1.0000
  C   C452      1.0  0.22418  0.78222  0.63518  1.0000
  H   H714      1.0  0.29002  0.72472  0.62867  1.0000
  H   H715      1.0  0.30636  0.72636  0.61398  1.0000
  H   H716      1.0  0.29951  0.95251  0.47542  1.0000
  C   C453      1.0  0.29452  0.78289  0.62941  1.0000
  C   C454      1.0  0.98264  0.58603  0.58716  1.0000
  H   H717      1.0  0.46555  0.92182  0.62491  1.0000
  C   C455      1.0  0.34677  0.97496  0.48146  1.0000
  C   C456      1.0  0.99611  0.58228  0.47427  1.0000
  S   S188      1.0  0.06359  0.66922  0.63465  1.0000
  C   C457      1.0  0.44728  0.96686  0.60554  1.0000
  H   H718      1.0  0.31760  0.79433  0.63389  1.0000
  S   S189      1.0  0.35313  0.96906  0.55140  1.0000
  H   H719      1.0  0.03367  0.52712  0.63638  1.0000
  H   H720      1.0  0.28696  0.80130  0.62697  1.0000
  C   C458      1.0  0.43786  0.84970  0.63401  1.0000
  Fe  Fe91      1.0  0.34840  0.87035  0.63489  1.0000
  H   H721      1.0  0.14163  0.52070  0.63759  1.0000
  H   H722      1.0  0.17138  0.50759  0.63501  1.0000
  C   C459      1.0  0.46947  0.86441  0.63685  1.0000
  C   C460      1.0  0.43597  0.95953  0.62681  1.0000
  H   H723      1.0  0.43166  0.94388  0.63462  1.0000
  Fe  Fe92      1.0  0.10748  0.66363  0.63860  1.0000
  H   H724      1.0  0.27857  0.76825  0.63626  1.0000
  H   H725      1.0  0.45568  0.98153  0.62946  1.0000
  H   H726      1.0  0.16298  0.84583  0.63939  1.0000
  Fe  Fe93      1.0  0.01486  0.73961  0.74824  1.0000
  S   S190      1.0  0.04259  0.71233  0.75135  1.0000
  S   S191      1.0  0.03464  0.79098  0.74469  1.0000
  Fe  Fe94      1.0  0.01150  0.67788  0.73758  1.0000
  S   S192      1.0  0.03576  0.65991  0.72365  1.0000
  Fe  Fe95      1.0  0.00837  0.68753  0.76552  1.0000
  S   S193      1.0  0.03418  0.68486  0.78284  1.0000
  H   H727      1.0  0.31483  0.90839  0.76179  1.0000
  C   C461      1.0  0.33941  0.90431  0.74033  1.0000
  Fe  Fe96      1.0  0.21271  0.90487  0.74753  1.0000
  S   S194      1.0  0.26065  0.90787  0.74843  1.0000
  S   S195      1.0  0.17936  0.85522  0.75000  1.0000
  Fe  Fe97      1.0  0.27055  0.94097  0.73318  1.0000
  S   S196      1.0  0.30412  0.93611  0.71961  1.0000
  Fe  Fe98      1.0  0.27150  0.94825  0.76125  1.0000
  H   H728      1.0  0.24189  0.85405  0.64645  1.0000
  S   S197      1.0  0.22161  0.93547  0.73136  1.0000
  S   S198      1.0  0.22298  0.94319  0.76152  1.0000
  Fe  Fe99      1.0  0.04693  0.64345  0.65194  1.0000
  S   S199      1.0  0.09127  0.64086  0.65639  1.0000
  S   S200      1.0  0.01914  0.65639  0.66592  1.0000
  Fe  Fe100     1.0  0.31089  0.90240  0.64672  1.0000
  H   H729      1.0  0.97621  0.77968  0.75807  1.0000
  S   S201      1.0  0.28583  0.91548  0.66188  1.0000
  C   C462      1.0  0.26301  0.92388  0.79469  1.0000
  H   H730      1.0  0.06828  0.64637  0.70437  1.0000
  H   H731      1.0  0.05566  0.56034  0.68004  1.0000
  C   C463      1.0  0.99771  0.53789  0.68848  1.0000
  H   H732      1.0  0.35908  0.96598  0.73921  1.0000
  C   C464      1.0  0.31642  0.94507  0.80091  1.0000
  H   H733      1.0  0.21191  0.74905  0.64941  1.0000
  H   H734      1.0  0.33929  0.92200  0.70141  1.0000
  H   H735      1.0  0.97277  0.52293  0.68759  1.0000
  H   H736      1.0  0.34272  0.88274  0.74171  1.0000
  C   C465      1.0  0.29821  0.92955  0.70360  1.0000
  C   C466      1.0  0.31972  0.92317  0.69681  1.0000
  C   C467      1.0  0.31625  0.91848  0.68406  1.0000
  C   C468      1.0  0.29134  0.92046  0.67795  1.0000
  C   C469      1.0  0.26982  0.92679  0.68475  1.0000
  C   C470      1.0  0.27310  0.93111  0.69749  1.0000
  N   N47       1.0  0.35380  0.92734  0.75031  1.0000
  H   H737      1.0  0.33304  0.91373  0.67898  1.0000
  C   C471      1.0  0.29371  0.94072  0.79191  1.0000
  H   H738      1.0  0.39152  0.91443  0.75279  1.0000
  C   C472      1.0  0.42665  0.51147  0.64262  1.0000
  H   H739      1.0  0.24526  0.92025  0.78788  1.0000
  C   C473      1.0  0.07461  0.81078  0.74724  1.0000
  C   C474      1.0  0.09080  0.79689  0.75361  1.0000
  C   C475      1.0  0.12283  0.81140  0.75466  1.0000
  C   C476      1.0  0.13904  0.84028  0.74959  1.0000
  C   C477      1.0  0.12288  0.85489  0.74359  1.0000
  C   C478      1.0  0.09069  0.84008  0.74239  1.0000
  H   H740      1.0  0.07869  0.77494  0.75777  1.0000
  H   H741      1.0  0.13514  0.80009  0.75941  1.0000
  H   H742      1.0  0.13522  0.87712  0.73961  1.0000
  H   H743      1.0  0.07832  0.85109  0.73750  1.0000
  C   C479      1.0  0.03099  0.65962  0.70762  1.0000
  C   C480      1.0  0.05066  0.65196  0.70020  1.0000
  C   C481      1.0  0.04793  0.65178  0.68743  1.0000
  C   C482      1.0  0.02499  0.65855  0.68193  1.0000
  C   C483      1.0  0.00542  0.66632  0.68934  1.0000
  C   C484      1.0  0.00852  0.66709  0.70212  1.0000
  H   H744      1.0  0.06346  0.64628  0.68184  1.0000
  C   C485      1.0  0.99283  0.57517  0.67501  1.0000
  H   H745      1.0  0.97501  0.64243  0.79236  1.0000
  C   C486      1.0  0.02253  0.66838  0.79725  1.0000
  S   S202      1.0  0.97896  0.65055  0.75190  1.0000
  H   H746      1.0  0.39662  0.50056  0.68366  1.0000
  H   H747      1.0  0.34891  0.91358  0.73136  1.0000
  C   C487      1.0  0.00400  0.53331  0.66692  1.0000
  C   C488      1.0  0.18635  0.81440  0.65320  1.0000
  C   C489      1.0  0.46190  0.48253  0.65222  1.0000
  H   H748      1.0  0.35885  0.97328  0.75539  1.0000
  H   H749      1.0  0.20484  0.80757  0.65632  1.0000
  H   H750      1.0  0.39708  0.48672  0.66847  1.0000
  C   C490      1.0  0.20537  0.75459  0.64062  1.0000
  C   C491      1.0  0.20937  0.86278  0.66463  1.0000
  H   H751      1.0  0.08548  0.50256  0.66308  1.0000
  H   H752      1.0  0.05146  0.58887  0.67078  1.0000
  S   S203      1.0  0.08169  0.55754  0.65477  1.0000
  H   H753      1.0  0.00121  0.55385  0.69648  1.0000
  C   C492      1.0  0.99236  0.64808  0.79951  1.0000
  Fe  Fe101     1.0  0.23565  0.97466  0.74550  1.0000
  Fe  Fe102     1.0  0.07341  0.59607  0.64569  1.0000
  H   H754      1.0  0.04732  0.59068  0.68690  1.0000
  S   S204      1.0  0.98592  0.70692  0.73348  1.0000
  H   H755      1.0  0.00976  0.52280  0.69053  1.0000
  N   N48       1.0  0.09908  0.75274  0.72113  1.0000
  C   C493      1.0  0.10668  0.73947  0.73207  1.0000
  C   C494      1.0  0.11937  0.78601  0.72078  1.0000
  C   C495      1.0  0.06687  0.74879  0.72151  1.0000
  C   C496      1.0  0.10333  0.73659  0.71017  1.0000
  H   H756      1.0  0.09144  0.71444  0.73272  1.0000
  H   H757      1.0  0.10402  0.75130  0.74052  1.0000
  H   H758      1.0  0.13071  0.74174  0.73205  1.0000
  H   H759      1.0  0.11471  0.79670  0.71253  1.0000
  H   H760      1.0  0.11602  0.79886  0.72878  1.0000
  H   H761      1.0  0.14396  0.79006  0.72092  1.0000
  H   H762      1.0  0.06041  0.75905  0.71354  1.0000
  H   H763      1.0  0.06266  0.76000  0.72982  1.0000
  H   H764      1.0  0.05086  0.72397  0.72157  1.0000
  H   H765      1.0  0.08895  0.71131  0.71042  1.0000
  H   H766      1.0  0.12753  0.73968  0.70941  1.0000
  H   H767      1.0  0.09666  0.74508  0.70174  1.0000
  H   H768      1.0  0.25649  0.93621  0.70257  1.0000
  H   H769      1.0  0.25067  0.92878  0.68014  1.0000
  S   S205      1.0  0.15653  0.69909  0.64197  1.0000
  C   C497      1.0  0.34897  0.95555  0.74794  1.0000
  H   H770      1.0  0.34301  0.89308  0.76408  1.0000
  C   C498      1.0  0.06162  0.51858  0.65007  1.0000
  H   H771      1.0  0.98544  0.81440  0.74093  1.0000
  H   H772      1.0  0.01591  0.51779  0.66839  1.0000
  H   H773      1.0  0.99316  0.67296  0.70769  1.0000
  N   N49       1.0  0.00920  0.55524  0.67731  1.0000
  H   H774      1.0  0.41373  0.89836  0.64918  1.0000
  C   C499      1.0  0.45821  0.52866  0.64503  1.0000
  H   H775      1.0  0.21795  0.88842  0.66442  1.0000
  C   C500      1.0  0.06828  0.49587  0.65584  1.0000
  S   S206      1.0  0.30218  0.85249  0.64352  1.0000
  H   H776      1.0  0.32422  0.95026  0.74718  1.0000
  H   H777      1.0  0.00135  0.58917  0.66680  1.0000
  C   C501      1.0  0.46060  0.90340  0.64859  1.0000
  C   C502      1.0  0.04233  0.57463  0.67887  1.0000
  H   H778      1.0  0.97924  0.51859  0.66527  1.0000
  H   H779      1.0  0.34992  0.93133  0.76967  1.0000
  C   C503      1.0  0.42914  0.88895  0.64564  1.0000
  S   S207      1.0  0.02764  0.59698  0.64236  1.0000
  C   C504      1.0  0.38699  0.93518  0.75099  1.0000
  C   C505      1.0  0.33987  0.91442  0.76195  1.0000
  H   H780      1.0  0.17775  0.80280  0.64416  1.0000
  S   S208      1.0  0.30463  0.95731  0.77745  1.0000
  N   N50       1.0  0.19761  0.84835  0.65253  1.0000
  S   S209      1.0  0.35915  0.92018  0.63964  1.0000
  H   H781      1.0  0.15311  0.84819  0.65495  1.0000
  H   H782      1.0  0.01307  0.54564  0.65840  1.0000
  H   H783      1.0  0.18017  0.88190  0.64783  1.0000
  H   H784      1.0  0.16725  0.80476  0.65963  1.0000
  H   H785      1.0  0.31432  0.89786  0.73956  1.0000
  H   H786      1.0  0.22904  0.85780  0.66780  1.0000
  H   H787      1.0  0.19143  0.85447  0.67159  1.0000
  C   C506      1.0  0.22252  0.85989  0.64374  1.0000
  H   H788      1.0  0.23196  0.88552  0.64317  1.0000
  H   H789      1.0  0.39850  0.95261  0.75841  1.0000
  H   H790      1.0  0.98757  0.67157  0.68517  1.0000
  C   C507      1.0  0.17231  0.85642  0.64850  1.0000
  H   H791      1.0  0.06817  0.69100  0.80501  1.0000
  H   H792      1.0  0.34024  0.95813  0.79889  1.0000
  H   H793      1.0  0.99599  0.59179  0.68273  1.0000
  H   H794      1.0  0.39813  0.94501  0.74234  1.0000
  C   C508      1.0  0.03905  0.50979  0.64086  1.0000
  H   H795      1.0  0.46868  0.55316  0.64335  1.0000
  H   H796      1.0  0.42227  0.48285  0.67986  1.0000
  S   S210      1.0  0.98228  0.71751  0.76318  1.0000
  H   H797      1.0  0.46932  0.92413  0.65433  1.0000
  H   H798      1.0  0.24478  0.79795  0.63987  1.0000
  Fe  Fe103     1.0  0.06599  0.60869  0.86600  1.0000
  S   S211      1.0  0.01609  0.59938  0.86627  1.0000
  S   S212      1.0  0.08522  0.57208  0.86487  1.0000
  Fe  Fe104     1.0  0.08638  0.67873  0.86506  1.0000
  S   S213      1.0  0.03760  0.67339  0.86468  1.0000
  S   S214      1.0  0.11781  0.72983  0.86568  1.0000
  Fe  Fe105     1.0  0.03063  0.63988  0.87964  1.0000
  S   S215      1.0  0.00329  0.64736  0.89527  1.0000
  Fe  Fe106     1.0  0.02805  0.63415  0.85136  1.0000
  S   S216      1.0  0.99664  0.62317  0.83452  1.0000
  S   S217      1.0  0.07987  0.64668  0.88056  1.0000
  S   S218      1.0  0.07734  0.64184  0.85053  1.0000
  Fe  Fe107     1.0  0.28614  0.84455  0.86424  1.0000
  S   S219      1.0  0.25996  0.87395  0.86219  1.0000
  S   S220      1.0  0.26290  0.79250  0.86587  1.0000
  Fe  Fe108     1.0  0.34788  0.89938  0.86242  1.0000
  S   S221      1.0  0.32516  0.93230  0.85989  1.0000
  S   S222      1.0  0.40010  0.92322  0.86428  1.0000
  Fe  Fe109     1.0  0.29523  0.90725  0.87523  1.0000
  S   S223      1.0  0.28442  0.93626  0.88976  1.0000
  Fe  Fe110     1.0  0.29208  0.89626  0.84703  1.0000
  S   S224      1.0  0.26614  0.90059  0.82996  1.0000
  S   S225      1.0  0.31937  0.87617  0.87835  1.0000
  S   S226      1.0  0.31670  0.86490  0.84844  1.0000
  H   H799      1.0  0.18711  0.85573  0.94858  1.0000
  H   H800      1.0  0.19638  0.82432  0.84942  1.0000
  S   S227      1.0  0.03787  0.66616  0.95191  1.0000
  Fe  Fe111     1.0  0.26831  0.95137  0.96269  1.0000
  S   S228      1.0  0.21852  0.94223  0.96406  1.0000
  S   S229      1.0  0.28544  0.92854  0.94771  1.0000
  H   H801      1.0  0.26244  0.87825  0.96460  1.0000
  H   H802      1.0  0.29947  0.89421  0.92888  1.0000
  C   C509      1.0  0.19584  0.82987  0.83968  1.0000
  C   C510      1.0  0.45689  0.92269  0.86131  1.0000
  C   C511      1.0  0.28324  0.93247  0.90582  1.0000
  C   C512      1.0  0.29192  0.91129  0.91166  1.0000
  C   C513      1.0  0.29235  0.91042  0.92447  1.0000
  C   C514      1.0  0.28375  0.93036  0.93160  1.0000
  C   C515      1.0  0.27466  0.95123  0.92576  1.0000
  C   C516      1.0  0.27461  0.95238  0.91295  1.0000
  H   H803      1.0  0.29842  0.89566  0.90634  1.0000
  C   C517      1.0  0.24368  0.85694  0.96789  1.0000
  H   H804      1.0  0.23808  0.80859  0.84497  1.0000
  H   H805      1.0  0.34173  0.93189  0.89405  1.0000
  H   H806      1.0  0.26791  0.96889  0.90855  1.0000
  C   C518      1.0  0.27782  0.91609  0.81537  1.0000
  H   H807      1.0  0.01062  0.53831  0.84253  1.0000
  H   H808      1.0  0.42799  0.59823  0.88639  1.0000
  C   C519      1.0  0.15810  0.74582  0.86658  1.0000
  C   C520      1.0  0.17364  0.77776  0.86879  1.0000
  C   C521      1.0  0.20574  0.79202  0.86898  1.0000
  C   C522      1.0  0.22263  0.77456  0.86675  1.0000
  C   C523      1.0  0.20712  0.74247  0.86476  1.0000
  C   C524      1.0  0.17488  0.72806  0.86469  1.0000
  H   H809      1.0  0.16082  0.79164  0.87029  1.0000
  H   H810      1.0  0.21740  0.81654  0.87085  1.0000
  H   H811      1.0  0.22006  0.72877  0.86309  1.0000
  H   H812      1.0  0.16307  0.70339  0.86298  1.0000
  C   C525      1.0  0.01385  0.65305  0.91093  1.0000
  C   C526      1.0  0.03660  0.64504  0.91584  1.0000
  C   C527      1.0  0.04392  0.64955  0.92838  1.0000
  C   C528      1.0  0.02900  0.66257  0.93610  1.0000
  C   C529      1.0  0.00688  0.67141  0.93114  1.0000
  H   H813      1.0  0.99575  0.68205  0.93695  1.0000
  H   H814      1.0  0.19637  0.87213  0.96370  1.0000
  H   H815      1.0  0.45509  0.62703  0.87713  1.0000
  C   C530      1.0  0.23173  0.83525  0.94750  1.0000
  H   H816      1.0  0.24387  0.79830  0.82979  1.0000
  C   C531      1.0  0.43694  0.49989  0.85207  1.0000
  C   C532      1.0  0.00698  0.64182  0.82041  1.0000
  C   C533      1.0  0.43566  0.85855  0.86086  1.0000
  H   H817      1.0  0.08327  0.56455  0.82575  1.0000
  H   H818      1.0  0.05445  0.66810  0.82532  1.0000
  C   C534      1.0  0.06468  0.53127  0.86455  1.0000
  C   C535      1.0  0.03268  0.51705  0.86468  1.0000
  C   C536      1.0  0.08109  0.51263  0.86383  1.0000
  H   H819      1.0  0.01977  0.53108  0.86532  1.0000
  H   H820      1.0  0.10584  0.52340  0.86374  1.0000
  C   C537      1.0  0.41478  0.87241  0.86198  1.0000
  C   C538      1.0  0.42529  0.90459  0.86226  1.0000
  H   H821      1.0  0.98146  0.67259  0.91492  1.0000
  H   H822      1.0  0.39057  0.85815  0.86272  1.0000
  H   H823      1.0  0.04810  0.63475  0.91003  1.0000
  N   N51       1.0  0.08184  0.73881  0.89847  1.0000
  C   C539      1.0  0.10905  0.76780  0.89657  1.0000
  C   C540      1.0  0.05906  0.73386  0.88853  1.0000
  C   C541      1.0  0.06818  0.74078  0.91022  1.0000
  C   C542      1.0  0.09105  0.71269  0.89852  1.0000
  H   H824      1.0  0.12686  0.77207  0.90383  1.0000
  H   H825      1.0  0.10302  0.78805  0.89646  1.0000
  H   H826      1.0  0.11972  0.76689  0.88773  1.0000
  H   H827      1.0  0.03841  0.71187  0.88955  1.0000
  H   H828      1.0  0.05130  0.75292  0.88826  1.0000
  H   H829      1.0  0.06869  0.73247  0.87952  1.0000
  H   H830      1.0  0.04749  0.71927  0.91180  1.0000
  H   H831      1.0  0.06104  0.76031  0.91056  1.0000
  H   H832      1.0  0.08447  0.74394  0.91798  1.0000
  H   H833      1.0  0.07086  0.69027  0.89926  1.0000
  H   H834      1.0  0.10708  0.71474  0.90624  1.0000
  H   H835      1.0  0.10270  0.71138  0.89001  1.0000
  H   H836      1.0  0.25330  0.83791  0.83400  1.0000
  H   H837      1.0  0.03959  0.53375  0.81173  1.0000
  S   S230      1.0  0.99481  0.71857  0.96277  1.0000
  H   H838      1.0  0.43109  0.54765  0.88882  1.0000
  C   C543      1.0  0.20591  0.86543  0.95554  1.0000
  N   N52       1.0  0.46334  0.58618  0.87930  1.0000
  H   H839      1.0  0.43025  0.54185  0.87261  1.0000
  H   H840      1.0  0.46526  0.94760  0.86140  1.0000
  C   C544      1.0  0.46723  0.87660  0.85986  1.0000
  H   H841      1.0  0.07680  0.58377  0.83889  1.0000
  H   H842      1.0  0.18491  0.82040  0.97171  1.0000
  H   H843      1.0  0.18096  0.81543  0.81606  1.0000
  C   C545      1.0  0.46781  0.51895  0.85516  1.0000
  H   H844      1.0  0.05248  0.61006  0.82584  1.0000
  C   C546      1.0  0.46744  0.48222  0.87007  1.0000
  H   H845      1.0  0.42726  0.83362  0.86075  1.0000
  C   C547      1.0  0.98471  0.63473  0.81100  1.0000
  H   H846      1.0  0.42529  0.50675  0.84500  1.0000
  H   H847      1.0  0.01930  0.51166  0.82435  1.0000
  C   C548      1.0  0.06624  0.56301  0.83274  1.0000
  H   H848      1.0  0.37576  0.93079  0.88795  1.0000
  H   H849      1.0  0.06105  0.64260  0.93214  1.0000
  C   C549      1.0  0.23641  0.81378  0.83527  1.0000
  H   H850      1.0  0.02484  0.57959  0.84300  1.0000
  H   H851      1.0  0.17224  0.82736  0.83735  1.0000
  H   H852      1.0  0.20373  0.79750  0.96571  1.0000
  N   N53       1.0  0.20504  0.80973  0.83181  1.0000
  H   H853      1.0  0.23129  0.89917  0.80843  1.0000
  C   C550      1.0  0.44559  0.55260  0.88067  1.0000
  N   N54       1.0  0.03711  0.56087  0.82718  1.0000
  C   C551      1.0  0.01544  0.55885  0.83686  1.0000
  H   H854      1.0  0.24201  0.81857  0.94942  1.0000
  C   C552      1.0  0.99894  0.66612  0.91866  1.0000
  H   H855      1.0  0.97205  0.62205  0.95543  1.0000
  H   H856      1.0  0.21382  0.82483  0.94022  1.0000
  C   C553      1.0  0.30856  0.93269  0.81256  1.0000
  H   H857      1.0  0.25008  0.85628  0.94375  1.0000
  N   N55       1.0  0.21900  0.84309  0.95856  1.0000
  H   H858      1.0  0.18418  0.76996  0.84285  1.0000
  H   H859      1.0  0.22020  0.84277  0.81765  1.0000
  C   C554      1.0  0.02386  0.53297  0.81917  1.0000
  C   C555      1.0  0.36706  0.94168  0.89516  1.0000
  C   C556      1.0  0.18367  0.77712  0.83331  1.0000
  H   H860      1.0  0.34668  0.97552  0.88118  1.0000
  C   C557      1.0  0.19473  0.81493  0.96333  1.0000
  Fe  Fe112     1.0  0.01813  0.68711  0.96642  1.0000
  C   C558      1.0  0.20429  0.81820  0.81900  1.0000
  H   H861      1.0  0.12872  0.93258  0.97149  1.0000
  H   H862      1.0  0.21149  0.85466  0.83881  1.0000
  H   H863      1.0  0.32625  0.93624  0.81939  1.0000
  H   H864      1.0  0.47088  0.59641  0.89850  1.0000
  C   C559      1.0  0.04278  0.58863  0.82002  1.0000
  C   C560      1.0  0.03707  0.66234  0.81819  1.0000
  H   H865      1.0  0.00178  0.53070  0.81491  1.0000
  H   H866      1.0  0.37239  0.93435  0.90410  1.0000
  H   H867      1.0  0.46701  0.58192  0.85997  1.0000
  H   H868      1.0  0.42356  0.97777  0.88824  1.0000
  H   H869      1.0  0.18968  0.76123  0.82741  1.0000
  H   H870      1.0  0.21134  0.80365  0.81280  1.0000
  C   C561      1.0  0.01737  0.48452  0.86410  1.0000
  H   H871      1.0  0.17554  0.80393  0.95659  1.0000
  H   H872      1.0  0.15962  0.77322  0.83102  1.0000
  H   H873      1.0  0.22357  0.88694  0.95188  1.0000
  H   H874      1.0  0.02118  0.58792  0.81581  1.0000
  C   C562      1.0  0.44224  0.60164  0.87820  1.0000
  H   H875      1.0  0.42640  0.59246  0.87018  1.0000
  H   H876      1.0  0.26807  0.96678  0.93110  1.0000
  H   H877      1.0  0.06274  0.54263  0.83837  1.0000
  C   C563      1.0  0.04479  0.67533  0.80666  1.0000
  H   H878      1.0  0.99329  0.55769  0.83307  1.0000
  H   H879      1.0  0.46098  0.54038  0.88168  1.0000
  H   H880      1.0  0.25406  0.84072  0.97042  1.0000
  H   H881      1.0  0.05908  0.59114  0.81262  1.0000
  H   H882      1.0  0.38029  0.97381  0.87478  1.0000
  N   N56       1.0  0.38039  0.97565  0.89431  1.0000
  C   C564      1.0  0.25515  0.91184  0.80636  1.0000
  H   H883      1.0  0.34296  0.98060  0.90319  1.0000
  H   H884      1.0  0.08982  0.85928  0.97020  1.0000
  H   H885      1.0  0.14475  0.97390  0.97009  1.0000
  H   H886      1.0  0.88713  0.21386  0.06452  1.0000
  C   C565      1.0  0.75729  0.07809  0.13433  1.0000
  Fe  Fe113     1.0  0.62489  0.02045  0.08401  1.0000
  H   H887      1.0  0.74124  0.05614  0.11147  1.0000
  Fe  Fe114     1.0  0.68529  0.07591  0.08942  1.0000
  S   S231      1.0  0.71268  0.04842  0.08557  1.0000
  S   S232      1.0  0.70790  0.12591  0.09608  1.0000
  Fe  Fe115     1.0  0.68112  0.02835  0.06936  1.0000
  H   H888      1.0  0.66632  0.01424  0.12767  1.0000
  S   S233      1.0  0.65596  0.05870  0.07248  1.0000
  S   S234      1.0  0.65186  0.04050  0.10141  1.0000
  Fe  Fe116     1.0  0.94040  0.28540  0.07393  1.0000
  S   S235      1.0  0.89237  0.28235  0.07349  1.0000
  Fe  Fe117     1.0  0.94189  0.28394  0.10231  1.0000
  S   S236      1.0  0.89365  0.28007  0.10359  1.0000
  Fe  Fe118     1.0  0.88220  0.24633  0.08769  1.0000
  S   S237      1.0  0.84854  0.19646  0.08428  1.0000
  Fe  Fe119     1.0  0.90799  0.31696  0.08931  1.0000
  S   S238      1.0  0.88950  0.35442  0.09015  1.0000
  S   S239      1.0  0.92947  0.24783  0.08739  1.0000
  C   C566      1.0  0.71456  0.02045  0.02742  1.0000
  C   C567      1.0  0.49899  0.43793  0.08947  1.0000
  C   C568      1.0  0.52989  0.45570  0.08671  1.0000
  C   C569      1.0  0.54495  0.44383  0.07866  1.0000
  C   C570      1.0  0.52879  0.41399  0.07351  1.0000
  C   C571      1.0  0.49805  0.39607  0.07640  1.0000
  C   C572      1.0  0.73264  0.07341  0.11474  1.0000
  H   H889      1.0  0.55987  0.01762  0.05524  1.0000
  H   H890      1.0  0.73517  0.04148  0.02865  1.0000
  H   H891      1.0  0.61189  0.99647  0.05922  1.0000
  C   C573      1.0  0.74663  0.14655  0.09237  1.0000
  C   C574      1.0  0.76122  0.13297  0.08490  1.0000
  C   C575      1.0  0.79241  0.14877  0.08255  1.0000
  C   C576      1.0  0.80927  0.17859  0.08743  1.0000
  C   C577      1.0  0.79471  0.19260  0.09476  1.0000
  C   C578      1.0  0.76342  0.17648  0.09728  1.0000
  H   H892      1.0  0.74848  0.11038  0.08080  1.0000
  H   H893      1.0  0.80348  0.13780  0.07685  1.0000
  H   H894      1.0  0.80756  0.21565  0.09854  1.0000
  H   H895      1.0  0.75222  0.18726  0.10300  1.0000
  H   H896      1.0  0.90754  0.21003  0.05155  1.0000
  H   H897      1.0  0.64166  0.04028  0.04682  1.0000
  H   H898      1.0  0.75642  0.13456  0.13469  1.0000
  C   C579      1.0  0.90932  0.39544  0.09020  1.0000
  C   C580      1.0  0.89230  0.41360  0.09038  1.0000
  C   C581      1.0  0.90694  0.44619  0.09046  1.0000
  S   S240      1.0  0.57303  0.99801  0.08092  1.0000
  C   C582      1.0  0.84157  0.22076  0.05160  1.0000
  C   C583      1.0  0.54745  0.01616  0.08259  1.0000
  C   C584      1.0  0.55758  0.04722  0.08622  1.0000
  C   C585      1.0  0.53643  0.06070  0.08740  1.0000
  C   C586      1.0  0.50500  0.04337  0.08496  1.0000
  N   N57       1.0  0.59355  0.01160  0.04402  1.0000
  H   H899      1.0  0.58168  0.06086  0.08814  1.0000
  H   H900      1.0  0.54449  0.08474  0.09027  1.0000
  H   H901      1.0  0.90631  0.18028  0.13510  1.0000
  C   C587      1.0  0.86848  0.21214  0.03455  1.0000
  C   C588      1.0  0.49472  0.01261  0.11742  1.0000
  S   S241      1.0  0.96661  0.27764  0.05780  1.0000
  H   H902      1.0  0.50119  0.99302  0.11545  1.0000
  H   H903      1.0  0.83646  0.21700  0.06142  1.0000
  C   C589      1.0  0.93625  0.28742  0.02393  1.0000
  C   C590      1.0  0.95528  0.27225  0.04218  1.0000
  S   S242      1.0  0.93974  0.26734  0.00060  1.0000
  H   H904      1.0  0.71818  0.10559  0.13176  1.0000
  H   H905      1.0  0.54193  0.47857  0.09076  1.0000
  N   N58       1.0  0.86185  0.20607  0.04754  1.0000
  H   H906      1.0  0.72959  0.08573  0.10672  1.0000
  C   C591      1.0  0.69842  0.99325  0.12683  1.0000
  H   H907      1.0  0.84141  0.16734  0.05909  1.0000
  H   H908      1.0  0.54841  0.98321  0.03694  1.0000
  H   H909      1.0  0.48748  0.44737  0.09565  1.0000
  H   H910      1.0  0.76589  0.06047  0.13151  1.0000
  H   H911      1.0  0.88416  0.20184  0.03121  1.0000
  S   S243      1.0  0.69855  0.99022  0.11070  1.0000
  H   H912      1.0  0.62417  0.05019  0.03403  1.0000
  H   H913      1.0  0.72317  0.01378  0.00858  1.0000
  H   H914      1.0  0.54016  0.40457  0.06726  1.0000
  H   H915      1.0  0.86147  0.16067  0.04648  1.0000
  H   H916      1.0  0.84721  0.20247  0.02878  1.0000
  H   H917      1.0  0.48600  0.37316  0.07238  1.0000
  H   H918      1.0  0.81931  0.21127  0.04646  1.0000
  C   C592      1.0  0.95725  0.24920  0.02227  1.0000
  C   C593      1.0  0.89082  0.21913  0.05474  1.0000
  S   S244      1.0  0.58326  0.46565  0.07418  1.0000
  C   C594      1.0  0.94147  0.28971  0.03663  1.0000
  H   H919      1.0  0.89349  0.45973  0.09058  1.0000
  C   C595      1.0  0.62421  0.03050  0.03933  1.0000
  H   H920      1.0  0.90185  0.24465  0.05417  1.0000
  H   H921      1.0  0.86758  0.40232  0.09044  1.0000
  C   C596      1.0  0.84667  0.17242  0.04933  1.0000
  C   C597      1.0  0.94129  0.41035  0.09012  1.0000
  H   H922      1.0  0.94141  0.18096  0.12924  1.0000
  H   H923      1.0  0.92636  0.30169  0.01969  1.0000
  H   H924      1.0  0.79375  0.09606  0.11495  1.0000
  H   H925      1.0  0.70960  0.06037  0.11848  1.0000
  H   H926      1.0  0.73496  0.06535  0.13873  1.0000
  H   H927      1.0  0.73831  0.13092  0.11999  1.0000
  S   S245      1.0  0.95711  0.32254  0.08886  1.0000
  H   H928      1.0  0.93590  0.30588  0.04206  1.0000
  C   C598      1.0  0.70782  0.00479  0.01603  1.0000
  C   C599      1.0  0.94127  0.27857  0.13856  1.0000
  H   H929      1.0  0.59850  0.04177  0.05951  1.0000
  Fe  Fe120     1.0  0.67819  0.01220  0.09682  1.0000
  H   H930      1.0  0.58150  0.05040  0.04627  1.0000
  N   N59       1.0  0.75379  0.09535  0.12381  1.0000
  C   C600      1.0  0.94469  0.26766  0.01665  1.0000
  C   C601      1.0  0.69479  0.00940  0.03720  1.0000
  C   C602      1.0  0.49491  0.01235  0.08122  1.0000
  H   H931      1.0  0.87988  0.23740  0.03295  1.0000
  C   C603      1.0  0.93890  0.46106  0.09038  1.0000
  H   H932      1.0  0.56141  0.47922  0.04768  1.0000
  H   H933      1.0  0.82466  0.16171  0.04405  1.0000
  C   C604      1.0  0.68071  0.00607  0.13287  1.0000
  H   H934      1.0  0.85232  0.24621  0.05039  1.0000
  Fe  Fe121     1.0  0.96031  0.24541  0.98671  1.0000
  S   S246      1.0  0.47940  0.06132  0.08719  1.0000
  C   C605      1.0  0.58291  0.03125  0.05153  1.0000
  S   S247      1.0  0.70445  0.03071  0.05123  1.0000
  C   C606      1.0  0.95594  0.44294  0.09023  1.0000
  H   H935      1.0  0.94172  0.21271  0.13834  1.0000
  H   H936      1.0  0.95469  0.39675  0.08999  1.0000
  C   C607      1.0  0.51605  0.99884  0.08007  1.0000
  C   C608      1.0  0.93101  0.18709  0.13729  1.0000
  H   H937      1.0  0.50756  0.02513  0.12576  1.0000
  C   C609      1.0  0.74117  0.11759  0.12779  1.0000
  H   H938      1.0  0.92465  0.28241  0.13284  1.0000
  H   H939      1.0  0.96323  0.23338  0.01683  1.0000
  C   C610      1.0  0.71659  0.98228  0.13377  1.0000
  H   H940      1.0  0.63244  0.01659  0.03329  1.0000
  C   C611      1.0  0.78381  0.11220  0.11825  1.0000
  C   C612      1.0  0.48287  0.40798  0.08437  1.0000
  S   S248      1.0  0.64890  0.98901  0.08015  1.0000
  C   C613      1.0  0.96678  0.27645  0.13332  1.0000
  H   H941      1.0  0.80049  0.12915  0.12479  1.0000
  H   H942      1.0  0.56989  0.01579  0.02788  1.0000
  C   C614      1.0  0.66830  0.98213  0.03551  1.0000
  H   H943      1.0  0.78170  0.12533  0.11025  1.0000
  C   C615      1.0  0.57175  0.99770  0.03371  1.0000
  H   H944      1.0  0.50295  0.02877  0.10976  1.0000
  C   C616      1.0  0.96250  0.25152  0.03496  1.0000
  C   C617      1.0  0.59522  0.98679  0.05148  1.0000
  S   S249      1.0  0.75432  0.98267  0.98597  1.0000
  H   H945      1.0  0.57905  0.98268  0.02784  1.0000
  H   H946      1.0  0.92970  0.13010  0.13894  1.0000
  Fe  Fe122     1.0  0.77932  0.00708  0.20075  1.0000
  S   S250      1.0  0.82271  0.04491  0.20855  1.0000
  S   S251      1.0  0.73569  0.01352  0.19983  1.0000
  C   C618      1.0  0.92240  0.18215  0.15884  1.0000
  S   S252      1.0  0.93826  0.20132  0.19489  1.0000
  S   S253      1.0  0.94173  0.12956  0.18078  1.0000
  Fe  Fe123     1.0  0.68346  0.01911  0.29511  1.0000
  S   S254      1.0  0.66186  0.05227  0.29161  1.0000
  H   H947      1.0  0.86289  0.24247  0.19299  1.0000
  C   C619      1.0  0.67343  0.99235  0.25984  1.0000
  H   H948      1.0  0.47485  0.00890  0.30325  1.0000
  C   C620      1.0  0.68102  0.00759  0.14568  1.0000
  Fe  Fe124     1.0  0.93926  0.29300  0.29373  1.0000
  C   C621      1.0  0.71770  0.98482  0.24530  1.0000
  S   S255      1.0  0.88935  0.28241  0.29639  1.0000
  H   H949      1.0  0.60837  0.00306  0.20832  1.0000
  C   C622      1.0  0.93438  0.28069  0.20540  1.0000
  H   H950      1.0  0.84602  0.42363  0.28485  1.0000
  H   H951      1.0  0.86325  0.98818  0.22606  1.0000
  C   C623      1.0  0.89115  0.23966  0.21409  1.0000
  C   C624      1.0  0.61843  0.99342  0.18483  1.0000
  C   C625      1.0  0.93567  0.45313  0.30080  1.0000
  H   H952      1.0  0.89579  0.27256  0.18658  1.0000
  S   S256      1.0  0.93984  0.21098  0.22954  1.0000
  N   N60       1.0  0.47368  0.15192  0.29528  1.0000
  C   C626      1.0  0.88834  0.25371  0.19327  1.0000
  H   H953      1.0  0.92325  0.23702  0.27141  1.0000
  H   H954      1.0  0.61421  0.01462  0.18618  1.0000
  H   H955      1.0  0.89755  0.17594  0.15734  1.0000
  C   C627      1.0  0.94582  0.23719  0.24201  1.0000
  H   H956      1.0  0.92700  0.37900  0.29473  1.0000
  S   S257      1.0  0.69785  0.99827  0.16874  1.0000
  H   H957      1.0  0.89772  0.29771  0.21903  1.0000
  H   H958      1.0  0.86581  0.22781  0.21460  1.0000
  H   H959      1.0  0.67410  0.00949  0.20665  1.0000
  C   C628      1.0  0.82019  0.45677  0.29614  1.0000
  C   C629      1.0  0.47793  0.12988  0.28663  1.0000
  H   H960      1.0  0.50966  0.98204  0.30237  1.0000
  C   C630      1.0  0.85614  0.43334  0.29396  1.0000
  H   H961      1.0  0.75954  0.05602  0.26760  1.0000
  C   C631      1.0  0.93500  0.24590  0.26309  1.0000
  C   C632      1.0  0.85464  0.06848  0.20025  1.0000
  C   C633      1.0  0.87711  0.09446  0.20620  1.0000
  C   C634      1.0  0.90356  0.11342  0.20019  1.0000
  C   C635      1.0  0.90809  0.10619  0.18823  1.0000
  C   C636      1.0  0.88570  0.08011  0.18224  1.0000
  C   C637      1.0  0.85882  0.06141  0.18820  1.0000
  H   H962      1.0  0.87405  0.10000  0.21552  1.0000
  H   H963      1.0  0.92069  0.13335  0.20491  1.0000
  H   H964      1.0  0.88910  0.07442  0.17298  1.0000
  H   H965      1.0  0.84157  0.04146  0.18353  1.0000
  C   C638      1.0  0.95505  0.27707  0.26259  1.0000
  S   S258      1.0  0.96277  0.30273  0.27537  1.0000
  C   C639      1.0  0.93040  0.22611  0.25283  1.0000
  H   H966      1.0  0.85151  0.99628  0.19309  1.0000
  N   N61       1.0  0.77215  0.09533  0.27985  1.0000
  C   C640      1.0  0.74041  0.09257  0.28078  1.0000
  C   C641      1.0  0.77925  0.07927  0.29001  1.0000
  C   C642      1.0  0.79350  0.12835  0.28041  1.0000
  C   C643      1.0  0.77530  0.08102  0.26820  1.0000
  H   H967      1.0  0.73449  0.10535  0.27355  1.0000
  H   H968      1.0  0.73682  0.10188  0.28967  1.0000
  H   H969      1.0  0.72359  0.06806  0.27998  1.0000
  H   H970      1.0  0.80300  0.08082  0.28960  1.0000
  H   H971      1.0  0.77689  0.08929  0.29894  1.0000
  H   H972      1.0  0.76346  0.05432  0.28991  1.0000
  H   H973      1.0  0.81776  0.13140  0.27998  1.0000
  H   H974      1.0  0.79120  0.13983  0.28903  1.0000
  H   H975      1.0  0.78900  0.14115  0.27282  1.0000
  H   H976      1.0  0.76962  0.09219  0.26031  1.0000
  S   S259      1.0  0.57471  0.00358  0.30307  1.0000
  H   H977      1.0  0.79898  0.08274  0.26712  1.0000
  C   C644      1.0  0.51873  0.44557  0.29600  1.0000
  H   H978      1.0  0.65934  0.03518  0.20026  1.0000
  H   H979      1.0  0.95014  0.43151  0.28627  1.0000
  H   H980      1.0  0.86332  0.27770  0.21002  1.0000
  H   H981      1.0  0.89523  0.13040  0.14507  1.0000
  C   C645      1.0  0.88877  0.28830  0.20974  1.0000
  C   C646      1.0  0.51914  0.00702  0.30291  1.0000
  C   C647      1.0  0.85294  0.99161  0.21741  1.0000
  H   H982      1.0  0.80853  0.44656  0.28730  1.0000
  H   H983      1.0  0.94383  0.26424  0.20214  1.0000
  Fe  Fe125     1.0  0.96645  0.21656  0.21213  1.0000
  H   H984      1.0  0.89674  0.23634  0.18994  1.0000
  C   C648      1.0  0.93747  0.27610  0.15124  1.0000
  H   H985      1.0  0.65617  0.99500  0.26538  1.0000
  C   C649      1.0  0.93833  0.42806  0.29477  1.0000
  H   H986      1.0  0.92516  0.17119  0.16734  1.0000
  H   H987      1.0  0.63335  0.99699  0.17680  1.0000
  H   H988      1.0  0.90056  0.24764  0.22346  1.0000
  H   H989      1.0  0.89954  0.22195  0.21121  1.0000
  C   C650      1.0  0.52349  0.40221  0.30547  1.0000
  N   N62       1.0  0.90062  0.26558  0.20563  1.0000
  H   H990      1.0  0.86748  0.01514  0.21420  1.0000
  C   C651      1.0  0.66741  0.98439  0.24735  1.0000
  C   C652      1.0  0.70143  0.99594  0.26517  1.0000
  H   H991      1.0  0.50470  0.45558  0.29162  1.0000
  C   C653      1.0  0.49835  0.18303  0.29387  1.0000
  C   C654      1.0  0.95884  0.27100  0.15876  1.0000
  C   C655      1.0  0.66245  0.01353  0.19847  1.0000
  C   C656      1.0  0.55043  0.46334  0.29764  1.0000
  H   H992      1.0  0.87593  0.45586  0.29262  1.0000
  H   H993      1.0  0.74516  0.99474  0.26185  1.0000
  H   H994      1.0  0.79690  0.39457  0.29551  1.0000
  H   H995      1.0  0.91499  0.20197  0.25335  1.0000
  C   C657      1.0  0.50510  0.41496  0.29990  1.0000
  H   H996      1.0  0.91783  0.27810  0.15519  1.0000
  Fe  Fe126     1.0  0.62661  0.02496  0.30506  1.0000
  S   S260      1.0  0.70994  0.00458  0.28096  1.0000
  H   H997      1.0  0.89560  0.30817  0.20354  1.0000
  H   H998      1.0  0.92347  0.12657  0.15498  1.0000
  N   N63       1.0  0.83329  0.43697  0.30198  1.0000
  S   S261      1.0  0.95293  0.26724  0.17463  1.0000
  H   H999      1.0  0.94465  0.28953  0.21458  1.0000
  H   H1000     1.0  0.47727  0.13662  0.27706  1.0000
  H   H1001     1.0  0.66695  0.01721  0.15024  1.0000
  N   N64       1.0  0.63294  0.98703  0.19575  1.0000
  S   S262      1.0  0.48730  0.07435  0.30442  1.0000
  H   H1002     1.0  0.86545  0.41738  0.29783  1.0000
  C   C658      1.0  0.72351  0.99223  0.25782  1.0000
  C   C659      1.0  0.92531  0.39829  0.29956  1.0000
  H   H1003     1.0  0.94245  0.30032  0.19907  1.0000
  H   H1004     1.0  0.50021  0.12826  0.28833  1.0000
  C   C660      1.0  0.56886  0.45061  0.30319  1.0000
  H   H1005     1.0  0.83029  0.99166  0.21952  1.0000
  H   H1006     1.0  0.93382  0.20756  0.16049  1.0000
  C   C661      1.0  0.56313  0.05621  0.30377  1.0000
  C   C662      1.0  0.80866  0.40628  0.30416  1.0000
  H   H1007     1.0  0.67832  0.01770  0.19078  1.0000
  H   H1008     1.0  0.49819  0.19138  0.28451  1.0000
  Fe  Fe127     1.0  0.96707  0.17611  0.19020  1.0000
  H   H1009     1.0  0.52128  0.18306  0.29571  1.0000
  C   C663      1.0  0.69897  0.99633  0.15262  1.0000
  N   N65       1.0  0.93558  0.17230  0.14839  1.0000
  C   C664      1.0  0.71694  0.98384  0.14658  1.0000
  H   H1010     1.0  0.89615  0.99073  0.20238  1.0000
  C   C665      1.0  0.92029  0.13833  0.14675  1.0000
  H   H1011     1.0  0.77347  0.09374  0.14135  1.0000
  H   H1012     1.0  0.80317  0.46038  0.30204  1.0000
  C   C666      1.0  0.96549  0.26846  0.24142  1.0000
  C   C667      1.0  0.51139  0.05444  0.30399  1.0000
  C   C668      1.0  0.55105  0.02394  0.30309  1.0000
  C   C669      1.0  0.49937  0.02218  0.30343  1.0000
  C   C670      1.0  0.54332  0.07139  0.30413  1.0000
  H   H1013     1.0  0.81454  0.22068  0.30494  1.0000
  H   H1014     1.0  0.75794  0.19319  0.30232  1.0000
  H   H1015     1.0  0.58768  0.06944  0.30391  1.0000
  H   H1016     1.0  0.55280  0.09637  0.30453  1.0000
  H   H1017     1.0  0.49578  0.20023  0.30029  1.0000
  C   C671      1.0  0.61282  0.98226  0.20626  1.0000
  C   C672      1.0  0.96868  0.18161  0.15073  1.0000
  C   C673      1.0  0.97011  0.28826  0.25169  1.0000
  Fe  Fe128     1.0  0.72385  0.98295  0.18294  1.0000
  H   H1018     1.0  0.83824  0.48013  0.29442  1.0000
  S   S263      1.0  0.60873  0.47220  0.30586  1.0000
  H   H1019     1.0  0.73482  0.98176  0.23980  1.0000
  Fe  Fe129     1.0  0.67320  0.02048  0.32296  1.0000
  S   S264      1.0  0.65206  0.05462  0.32121  1.0000
  N   N66       1.0  0.90368  0.21076  0.34781  1.0000
  S   S265      1.0  0.64623  0.98947  0.30741  1.0000
  C   C674      1.0  0.55439  0.01432  0.35420  1.0000
  H   H1020     1.0  0.52534  0.47130  0.42393  1.0000
  H   H1021     1.0  0.47781  0.00785  0.42260  1.0000
  Fe  Fe130     1.0  0.89146  0.25015  0.31080  1.0000
  N   N67       1.0  0.55328  0.01609  0.34083  1.0000
  Fe  Fe131     1.0  0.95319  0.29661  0.32156  1.0000
  S   S266      1.0  0.90454  0.28602  0.32598  1.0000
  H   H1022     1.0  0.51054  0.42987  0.42267  1.0000
  S   S267      1.0  0.86037  0.19976  0.31427  1.0000
  C   C675      1.0  0.90730  0.41861  0.31657  1.0000
  S   S268      1.0  0.71274  0.04712  0.31099  1.0000
  H   H1023     1.0  0.94347  0.21452  0.33792  1.0000
  C   C676      1.0  0.81998  0.18163  0.31240  1.0000
  C   C677      1.0  0.54486  0.46718  0.33491  1.0000
  C   C678      1.0  0.54346  0.98479  0.33526  1.0000
  C   C679      1.0  0.88638  0.17743  0.34495  1.0000
  H   H1024     1.0  0.53172  0.99889  0.35773  1.0000
  H   H1025     1.0  0.55346  0.45582  0.32785  1.0000
  H   H1026     1.0  0.94331  0.30052  0.35253  1.0000
  H   H1027     1.0  0.54545  0.45626  0.34369  1.0000
  H   H1028     1.0  0.87385  0.17361  0.33603  1.0000
  C   C680      1.0  0.91979  0.21499  0.35972  1.0000
  H   H1029     1.0  0.49662  0.13955  0.30983  1.0000
  S   S269      1.0  0.88931  0.35585  0.31585  1.0000
  H   H1030     1.0  0.86989  0.22339  0.33933  1.0000
  H   H1031     1.0  0.91506  0.22129  0.32917  1.0000
  C   C681      1.0  0.65210  0.99829  0.46288  1.0000
  C   C682      1.0  0.80460  0.15074  0.31578  1.0000
  H   H1032     1.0  0.90185  0.16527  0.34441  1.0000
  S   S270      1.0  0.71534  0.13114  0.30708  1.0000
  H   H1033     1.0  0.50769  0.01449  0.34013  1.0000
  H   H1034     1.0  0.56132  0.03751  0.35868  1.0000
  H   H1035     1.0  0.94295  0.30211  0.37515  1.0000
  H   H1036     1.0  0.57129  0.00517  0.35721  1.0000
  H   H1037     1.0  0.66041  0.01962  0.45799  1.0000
  H   H1038     1.0  0.91904  0.46770  0.31670  1.0000
  C   C683      1.0  0.92632  0.22470  0.33831  1.0000
  Fe  Fe132     1.0  0.68953  0.07888  0.30807  1.0000
  H   H1039     1.0  0.83184  0.45557  0.31983  1.0000
  H   H1040     1.0  0.86466  0.21589  0.35522  1.0000
  C   C684      1.0  0.90301  0.35021  0.46522  1.0000
  H   H1041     1.0  0.58413  0.03761  0.32650  1.0000
  H   H1042     1.0  0.95610  0.39713  0.45969  1.0000
  C   C685      1.0  0.58403  0.03606  0.33657  1.0000
  H   H1043     1.0  0.93613  0.20377  0.35974  1.0000
  H   H1044     1.0  0.60124  0.02692  0.33916  1.0000
  H   H1045     1.0  0.48482  0.42361  0.39659  1.0000
  C   C686      1.0  0.75557  0.15030  0.30943  1.0000
  C   C687      1.0  0.90928  0.39339  0.31038  1.0000
  H   H1046     1.0  0.90345  0.20504  0.36716  1.0000
  H   H1047     1.0  0.53787  0.05280  0.34132  1.0000
  H   H1048     1.0  0.85757  0.43685  0.31856  1.0000
  C   C688      1.0  0.53130  0.02922  0.33726  1.0000
  C   C689      1.0  0.77257  0.13519  0.31436  1.0000
  H   H1049     1.0  0.81750  0.13877  0.31959  1.0000
  H   H1050     1.0  0.89535  0.41497  0.32504  1.0000
  H   H1051     1.0  0.89450  0.25116  0.35035  1.0000
  Fe  Fe133     1.0  0.90689  0.31930  0.31130  1.0000
  H   H1052     1.0  0.53028  0.03127  0.32724  1.0000
  C   C690      1.0  0.66353  0.98301  0.36440  1.0000
  H   H1053     1.0  0.86741  0.47438  0.31238  1.0000
  C   C691      1.0  0.51397  0.45102  0.41758  1.0000
  H   H1054     1.0  0.90663  0.33103  0.46052  1.0000
  H   H1055     1.0  0.52051  0.46168  0.33246  1.0000
  H   H1056     1.0  0.90009  0.36519  0.45811  1.0000
  H   H1057     1.0  0.79108  0.40816  0.31022  1.0000
  H   H1058     1.0  0.93912  0.24999  0.33996  1.0000
  H   H1059     1.0  0.76100  0.11160  0.31719  1.0000
  C   C692      1.0  0.88225  0.22597  0.34822  1.0000
  C   C693      1.0  0.92063  0.44844  0.31185  1.0000
  H   H1060     1.0  0.47366  0.46777  0.42925  1.0000
  C   C694      1.0  0.55525  0.41992  0.30702  1.0000
  C   C695      1.0  0.96374  0.30507  0.37056  1.0000
  C   C696      1.0  0.65384  0.98727  0.35272  1.0000
  H   H1061     1.0  0.48037  0.00746  0.40630  1.0000
  H   H1062     1.0  0.86908  0.16610  0.35194  1.0000
  H   H1063     1.0  0.59218  0.06001  0.34043  1.0000
  H   H1064     1.0  0.93331  0.23991  0.36206  1.0000
  S   S271      1.0  0.68158  0.00385  0.34145  1.0000
  H   H1065     1.0  0.51334  0.37864  0.30845  1.0000
  H   H1066     1.0  0.50612  0.48151  0.39850  1.0000
  H   H1067     1.0  0.55945  0.98334  0.46642  1.0000
  S   S272      1.0  0.94049  0.25857  0.30721  1.0000
  C   C697      1.0  0.84819  0.45151  0.31370  1.0000
  H   H1068     1.0  0.81791  0.39083  0.30857  1.0000
  N   N68       1.0  0.48460  0.44989  0.41272  1.0000
  C   C698      1.0  0.80300  0.19689  0.30756  1.0000
  H   H1069     1.0  0.53015  0.45301  0.41017  1.0000
  H   H1070     1.0  0.56935  0.40981  0.31127  1.0000
  H   H1071     1.0  0.72574  0.02211  0.47213  1.0000
  H   H1072     1.0  0.54199  0.98530  0.32518  1.0000
  C   C699      1.0  0.96383  0.30400  0.35774  1.0000
  H   H1073     1.0  0.96241  0.36292  0.46202  1.0000
  H   H1074     1.0  0.68774  0.99042  0.36639  1.0000
  C   C700      1.0  0.95743  0.38124  0.46675  1.0000
  H   H1075     1.0  0.47292  0.15856  0.31463  1.0000
  C   C701      1.0  0.49023  0.47843  0.40611  1.0000
  C   C702      1.0  0.47482  0.14188  0.30783  1.0000
  S   S273      1.0  0.95644  0.33210  0.30778  1.0000
  H   H1076     1.0  0.88113  0.33979  0.47014  1.0000
  C   C703      1.0  0.77092  0.18125  0.30609  1.0000
  H   H1077     1.0  0.52642  0.08471  0.50880  1.0000
  S   S274      1.0  0.90137  0.31401  0.53731  1.0000
  Fe  Fe134     1.0  0.94516  0.28948  0.51311  1.0000
  S   S275      1.0  0.89827  0.28806  0.50947  1.0000
  Fe  Fe135     1.0  0.91703  0.33427  0.51923  1.0000
  S   S276      1.0  0.91628  0.37663  0.51055  1.0000
  Fe  Fe136     1.0  0.88676  0.26720  0.52793  1.0000
  S   S277      1.0  0.84046  0.23298  0.53467  1.0000
  S   S278      1.0  0.93260  0.26526  0.53115  1.0000
  Fe  Fe137     1.0  0.66460  0.00461  0.54171  1.0000
  S   S279      1.0  0.68194  0.05622  0.54432  1.0000
  Fe  Fe138     1.0  0.65441  0.00719  0.51379  1.0000
  S   S280      1.0  0.66935  0.05886  0.51449  1.0000
  Fe  Fe139     1.0  0.70781  0.06023  0.52699  1.0000
  S   S281      1.0  0.75788  0.08968  0.52251  1.0000
  Fe  Fe140     1.0  0.64255  0.05113  0.53169  1.0000
  S   S282      1.0  0.61088  0.07255  0.53815  1.0000
  S   S283      1.0  0.69384  0.00861  0.52547  1.0000
  H   H1078     1.0  0.96722  0.24559  0.62915  1.0000
  H   H1079     1.0  0.48507  0.07736  0.52350  1.0000
  C   C704      1.0  0.81769  0.19334  0.53080  1.0000
  C   C705      1.0  0.78809  0.17915  0.53548  1.0000
  C   C706      1.0  0.76936  0.14764  0.53294  1.0000
  C   C707      1.0  0.78015  0.12977  0.52576  1.0000
  C   C708      1.0  0.80979  0.14395  0.52109  1.0000
  C   C709      1.0  0.82841  0.17555  0.52354  1.0000
  H   H1080     1.0  0.77949  0.19263  0.54109  1.0000
  H   H1081     1.0  0.74668  0.13714  0.53661  1.0000
  H   H1082     1.0  0.81847  0.13041  0.51557  1.0000
  H   H1083     1.0  0.85113  0.18603  0.51990  1.0000
  C   C710      1.0  0.51362  0.02886  0.52190  1.0000
  C   C711      1.0  0.51941  0.04507  0.53306  1.0000
  C   C712      1.0  0.54941  0.05863  0.53798  1.0000
  C   C713      1.0  0.57339  0.05490  0.53202  1.0000
  C   C714      1.0  0.56731  0.03752  0.52116  1.0000
  C   C715      1.0  0.53756  0.02482  0.51606  1.0000
  H   H1084     1.0  0.50085  0.04735  0.53781  1.0000
  H   H1085     1.0  0.55400  0.07186  0.54646  1.0000
  H   H1086     1.0  0.58568  0.03447  0.51653  1.0000
  N   N69       1.0  0.51452  0.12056  0.51610  1.0000
  C   C716      1.0  0.89197  0.44709  0.53169  1.0000
  C   C717      1.0  0.88262  0.41696  0.53592  1.0000
  C   C718      1.0  0.89025  0.39513  0.52962  1.0000
  C   C719      1.0  0.90666  0.40323  0.51891  1.0000
  C   C720      1.0  0.91573  0.43324  0.51464  1.0000
  C   C721      1.0  0.90865  0.45520  0.52106  1.0000
  H   H1087     1.0  0.86959  0.41056  0.54412  1.0000
  H   H1088     1.0  0.88291  0.37192  0.53289  1.0000
  H   H1089     1.0  0.55418  0.11097  0.51935  1.0000
  H   H1090     1.0  0.76681  0.07171  0.48032  1.0000
  C   C722      1.0  0.51354  0.39400  0.53104  1.0000
  C   C723      1.0  0.54398  0.40977  0.52749  1.0000
  C   C724      1.0  0.55820  0.44232  0.52799  1.0000
  C   C725      1.0  0.54189  0.45919  0.53200  1.0000
  C   C726      1.0  0.51170  0.44337  0.53576  1.0000
  C   C727      1.0  0.49768  0.41095  0.53538  1.0000
  H   H1091     1.0  0.55647  0.39680  0.52418  1.0000
  H   H1092     1.0  0.58146  0.45435  0.52504  1.0000
  H   H1093     1.0  0.49907  0.45632  0.53896  1.0000
  H   H1094     1.0  0.55064  0.12298  0.50422  1.0000
  H   H1095     1.0  0.55032  0.01916  0.57255  1.0000
  C   C728      1.0  0.49801  0.10199  0.52637  1.0000
  H   H1096     1.0  0.50327  0.43449  0.49406  1.0000
  H   H1097     1.0  0.68262  0.01244  0.59685  1.0000
  C   C729      1.0  0.49251  0.11729  0.50604  1.0000
  H   H1098     1.0  0.59791  0.06344  0.57978  1.0000
  C   C730      1.0  0.96569  0.40192  0.54031  1.0000
  N   N70       1.0  0.74057  0.03242  0.49089  1.0000
  H   H1099     1.0  0.77798  0.07534  0.49612  1.0000
  N   N71       1.0  0.59610  0.02237  0.57052  1.0000
  C   C731      1.0  0.66662  0.99319  0.59140  1.0000
  C   C732      1.0  0.53751  0.10943  0.51192  1.0000
  C   C733      1.0  0.78283  0.48096  0.55650  1.0000
  C   C734      1.0  0.61039  0.05618  0.57282  1.0000
  C   C735      1.0  0.73001  0.01075  0.48027  1.0000
  H   H1100     1.0  0.83716  0.26943  0.57117  1.0000
  H   H1101     1.0  0.51395  0.10306  0.53398  1.0000
  C   C736      1.0  0.61361  0.01400  0.56130  1.0000
  H   H1102     1.0  0.56366  0.02433  0.55725  1.0000
  H   H1103     1.0  0.91066  0.33657  0.48823  1.0000
  H   H1104     1.0  0.94285  0.38407  0.54264  1.0000
  H   H1105     1.0  0.95880  0.19042  0.62629  1.0000
  H   H1106     1.0  0.69539  0.02516  0.49633  1.0000
  H   H1107     1.0  0.72482  0.06145  0.50133  1.0000
  S   S284      1.0  0.47748  0.01493  0.51450  1.0000
  H   H1108     1.0  0.54266  0.16817  0.51261  1.0000
  H   H1109     1.0  0.85059  0.21363  0.57739  1.0000
  H   H1110     1.0  0.65700  0.02111  0.48049  1.0000
  C   C737      1.0  0.74532  0.01613  0.50149  1.0000
  C   C738      1.0  0.76963  0.05870  0.48819  1.0000
  H   H1111     1.0  0.54640  0.15657  0.52778  1.0000
  H   H1112     1.0  0.50388  0.13194  0.49829  1.0000
  H   H1113     1.0  0.53314  0.01208  0.50747  1.0000
  H   H1114     1.0  0.68652  0.01276  0.57437  1.0000
  H   H1115     1.0  0.72387  0.99594  0.50369  1.0000
  C   C739      1.0  0.59625  0.00642  0.58190  1.0000
  S   S285      1.0  0.49531  0.35331  0.52941  1.0000
  H   H1116     1.0  0.47466  0.39915  0.53851  1.0000
  H   H1117     1.0  0.60380  0.98862  0.55935  1.0000
  H   H1118     1.0  0.92839  0.43966  0.50635  1.0000
  H   H1119     1.0  0.76324  0.00741  0.49982  1.0000
  H   H1120     1.0  0.93639  0.32790  0.47870  1.0000
  S   S286      1.0  0.88334  0.47449  0.53996  1.0000
  C   C740      1.0  0.66881  0.99350  0.57865  1.0000
  C   C741      1.0  0.71717  0.04416  0.49367  1.0000
  H   H1121     1.0  0.90179  0.38388  0.48494  1.0000
  H   H1122     1.0  0.96191  0.46205  0.55646  1.0000
  C   C742      1.0  0.49009  0.43833  0.50166  1.0000
  S   S287      1.0  0.62417  0.99964  0.52989  1.0000
  N   N72       1.0  0.87615  0.25801  0.56984  1.0000
  C   C743      1.0  0.89034  0.24548  0.56059  1.0000
  C   C744      1.0  0.86732  0.23726  0.58026  1.0000
  C   C745      1.0  0.84864  0.26018  0.56448  1.0000
  C   C746      1.0  0.89832  0.28908  0.57401  1.0000
  H   H1123     1.0  0.89705  0.26053  0.55261  1.0000
  H   H1124     1.0  0.87416  0.22217  0.55711  1.0000
  H   H1125     1.0  0.91130  0.24365  0.56424  1.0000
  H   H1126     1.0  0.85657  0.24604  0.58744  1.0000
  H   H1127     1.0  0.83489  0.47292  0.56004  1.0000
  H   H1128     1.0  0.88759  0.23507  0.58448  1.0000
  H   H1129     1.0  0.61060  0.06885  0.56438  1.0000
  H   H1130     1.0  0.63461  0.06411  0.57608  1.0000
  H   H1131     1.0  0.85449  0.27555  0.55654  1.0000
  H   H1132     1.0  0.88821  0.29969  0.58075  1.0000
  H   H1133     1.0  0.90629  0.30505  0.56629  1.0000
  H   H1134     1.0  0.91904  0.28820  0.57838  1.0000
  C   C747      1.0  0.52986  0.15336  0.52011  1.0000
  H   H1135     1.0  0.71211  0.05563  0.48575  1.0000
  H   H1136     1.0  0.48122  0.11030  0.53007  1.0000
  H   H1137     1.0  0.95109  0.45075  0.54086  1.0000
  H   H1138     1.0  0.48138  0.09295  0.50252  1.0000
  H   H1139     1.0  0.78794  0.05082  0.48606  1.0000
  Fe  Fe141     1.0  0.94759  0.31310  0.53970  1.0000
  H   H1140     1.0  0.93148  0.42518  0.55268  1.0000
  N   N73       1.0  0.92890  0.36793  0.47364  1.0000
  H   H1141     1.0  0.51287  0.16222  0.52329  1.0000
  H   H1142     1.0  0.50247  0.43791  0.51025  1.0000
  H   H1143     1.0  0.61365  0.02536  0.55259  1.0000
  C   C748      1.0  0.93185  0.34710  0.48289  1.0000
  H   H1144     1.0  0.83159  0.23716  0.56108  1.0000
  C   C749      1.0  0.56429  0.01291  0.56594  1.0000
  H   H1145     1.0  0.61994  0.01363  0.58568  1.0000
  H   H1146     1.0  0.75264  0.03170  0.50974  1.0000
  C   C750      1.0  0.65056  0.99923  0.47566  1.0000
  H   H1147     1.0  0.94212  0.40652  0.48632  1.0000
  H   H1148     1.0  0.63790  0.02124  0.56428  1.0000
  H   H1149     1.0  0.47215  0.46441  0.61448  1.0000
  H   H1150     1.0  0.91587  0.47834  0.51771  1.0000
  H   H1151     1.0  0.70811  0.99068  0.48212  1.0000
  S   S288      1.0  0.97100  0.33773  0.55754  1.0000
  S   S289      1.0  0.96767  0.27660  0.49704  1.0000
  H   H1152     1.0  0.77911  0.45625  0.55573  1.0000
  H   H1153     1.0  0.74711  0.00144  0.47785  1.0000
  H   H1154     1.0  0.58269  0.01160  0.58902  1.0000
  H   H1155     1.0  0.96351  0.40975  0.53102  1.0000
  C   C751      1.0  0.95433  0.44209  0.54987  1.0000
  H   H1156     1.0  0.81740  0.47036  0.53905  1.0000
  S   S290      1.0  0.96430  0.33665  0.52199  1.0000
  H   H1157     1.0  0.49103  0.46206  0.50096  1.0000
  H   H1158     1.0  0.97060  0.27834  0.56520  1.0000
  H   H1159     1.0  0.95088  0.35975  0.48953  1.0000
  H   H1160     1.0  0.47391  0.12401  0.50907  1.0000
  H   H1161     1.0  0.95784  0.39789  0.56423  1.0000
  C   C752      1.0  0.92326  0.39310  0.47971  1.0000
  H   H1162     1.0  0.55292  0.98751  0.56407  1.0000
  H   H1163     1.0  0.92127  0.40956  0.47306  1.0000
  Fe  Fe142     1.0  0.76167  0.00687  0.75131  1.0000
  H   H1164     1.0  0.95698  0.18740  0.79031  1.0000
  S   S291      1.0  0.79280  0.05854  0.75298  1.0000
  H   H1165     1.0  0.94990  0.35101  0.76939  1.0000
  S   S292      1.0  0.96982  0.26086  0.78123  1.0000
  H   H1166     1.0  0.96368  0.28580  0.75607  1.0000
  H   H1167     1.0  0.92256  0.19786  0.77627  1.0000
  H   H1168     1.0  0.87151  0.15070  0.79100  1.0000
  S   S293      1.0  0.93667  0.13442  0.74636  1.0000
  H   H1169     1.0  0.47545  0.47128  0.65607  1.0000
  H   H1170     1.0  0.92549  0.17020  0.76560  1.0000
  C   C753      1.0  0.83258  0.07886  0.75035  1.0000
  C   C754      1.0  0.85223  0.06388  0.74925  1.0000
  C   C755      1.0  0.88390  0.08122  0.74778  1.0000
  C   C756      1.0  0.89629  0.11366  0.74729  1.0000
  C   C757      1.0  0.87656  0.12860  0.74816  1.0000
  C   C758      1.0  0.84498  0.11131  0.74981  1.0000
  H   H1171     1.0  0.84309  0.03897  0.74966  1.0000
  H   H1172     1.0  0.89891  0.06939  0.74709  1.0000
  H   H1173     1.0  0.88557  0.15344  0.74754  1.0000
  H   H1174     1.0  0.82994  0.12310  0.75055  1.0000
  C   C759      1.0  0.91248  0.17294  0.77348  1.0000
  C   C760      1.0  0.89593  0.15744  0.79376  1.0000
  Fe  Fe143     1.0  0.96585  0.18648  0.74728  1.0000
  N   N74       1.0  0.91362  0.15331  0.78353  1.0000
  H   H1175     1.0  0.87643  0.11319  0.77569  1.0000
  H   H1176     1.0  0.93752  0.30006  0.74976  1.0000
  S   S294      1.0  0.71215  0.99453  0.75604  1.0000
  C   C761      1.0  0.94583  0.16243  0.78753  1.0000
  H   H1177     1.0  0.94762  0.14877  0.79536  1.0000
  H   H1178     1.0  0.96983  0.24179  0.64540  1.0000
  S   S295      1.0  0.94881  0.22396  0.74890  1.0000
  H   H1179     1.0  0.88854  0.16679  0.77021  1.0000
  H   H1180     1.0  0.89988  0.10488  0.78674  1.0000
  C   C762      1.0  0.90032  0.12056  0.77931  1.0000
  H   H1181     1.0  0.95707  0.28381  0.80393  1.0000
  H   H1182     1.0  0.90539  0.18200  0.79708  1.0000
  H   H1183     1.0  0.96200  0.18714  0.64243  1.0000
  H   H1184     1.0  0.94742  0.35532  0.75328  1.0000
  H   H1185     1.0  0.95949  0.15861  0.78009  1.0000
  H   H1186     1.0  0.91381  0.11654  0.77184  1.0000
  C   C763      1.0  0.95350  0.30271  0.75758  1.0000
  C   C764      1.0  0.96333  0.35633  0.76092  1.0000
  H   H1187     1.0  0.93986  0.29586  0.76597  1.0000
  H   H1188     1.0  0.89635  0.14307  0.80156  1.0000
  C   C765      1.0  0.82436  0.07840  0.96546  1.0000
  H   H1189     1.0  0.94971  0.25629  0.90429  1.0000
  C   C766      1.0  0.86799  0.12912  0.96623  1.0000
  Fe  Fe144     1.0  0.95480  0.18820  0.97235  1.0000
  C   C767      1.0  0.88843  0.11504  0.96731  1.0000
  C   C768      1.0  0.84478  0.06435  0.96672  1.0000
  H   H1190     1.0  0.87666  0.15403  0.96604  1.0000
  H   H1191     1.0  0.74213  0.06237  0.92258  1.0000
  H   H1192     1.0  0.96913  0.15433  0.94671  1.0000
  H   H1193     1.0  0.83611  0.03943  0.96689  1.0000
  N   N75       1.0  0.94808  0.16914  0.93224  1.0000
  H   H1194     1.0  0.78209  0.02088  0.93885  1.0000
  H   H1195     1.0  0.93486  0.18125  0.94938  1.0000
  S   S296      1.0  0.92882  0.13677  0.96753  1.0000
  H   H1196     1.0  0.71369  0.98900  0.93918  1.0000
  N   N76       1.0  0.74559  0.02004  0.92701  1.0000
  H   H1197     1.0  0.95550  0.39423  0.91067  1.0000
  H   H1198     1.0  0.78688  0.01449  0.92300  1.0000
  C   C769      1.0  0.94975  0.38188  0.90166  1.0000
  H   H1199     1.0  0.77258  0.06673  0.93321  1.0000
  H   H1200     1.0  0.96176  0.21338  0.94141  1.0000
  C   C770      1.0  0.72414  0.01395  0.93710  1.0000
  C   C771      1.0  0.94147  0.19089  0.94022  1.0000
  C   C772      1.0  0.87663  0.08258  0.96750  1.0000
  C   C773      1.0  0.76969  0.00944  0.93023  1.0000
  S   S297      1.0  0.70436  0.99147  0.96689  1.0000
  H   H1201     1.0  0.70518  0.02094  0.93493  1.0000
  H   H1202     1.0  0.95863  0.37620  0.87776  1.0000
  C   C774      1.0  0.72874  0.00314  0.91591  1.0000
  H   H1203     1.0  0.89221  0.07142  0.96829  1.0000
  H   H1204     1.0  0.75977  0.98401  0.93154  1.0000
  H   H1205     1.0  0.93217  0.35809  0.90309  1.0000
  H   H1206     1.0  0.95458  0.24998  0.92650  1.0000
  C   C775      1.0  0.75975  0.05359  0.92491  1.0000
  H   H1207     1.0  0.90054  0.14245  0.92759  1.0000
  H   H1208     1.0  0.77613  0.05918  0.91736  1.0000
  S   S298      1.0  0.93895  0.22572  0.96821  1.0000
  H   H1209     1.0  0.73597  0.02685  0.94555  1.0000
  H   H1210     1.0  0.93685  0.18687  0.91592  1.0000
  Fe  Fe145     1.0  0.75577  0.00632  0.96826  1.0000
  H   H1211     1.0  0.92224  0.19579  0.93653  1.0000
  S   S299      1.0  0.78422  0.05653  0.96332  1.0000
  H   H1212     1.0  0.93909  0.39390  0.89585  1.0000
  H   H1213     1.0  0.82063  0.12199  0.96419  1.0000
  C   C776      1.0  0.95589  0.18234  0.92007  1.0000
  C   C777      1.0  0.83619  0.11086  0.96517  1.0000
  H   H1214     1.0  0.95167  0.34018  0.88507  1.0000
  H   H1215     1.0  0.92486  0.12230  0.92539  1.0000
  H   H1216     1.0  0.91457  0.12902  0.94044  1.0000
  C   C778      1.0  0.92081  0.13941  0.93132  1.0000
  C   C779      1.0  0.96850  0.36454  0.88412  1.0000
  H   H1217     1.0  0.74406  0.00742  0.90804  1.0000
  H   H1218     1.0  0.70981  0.00992  0.91336  1.0000
  H   H1219     1.0  0.65206  0.98704  0.80902  1.0000
  H   H1220     1.0  0.96100  0.16657  0.91376  1.0000
  H   H1221     1.0  0.47910  0.47522  0.87710  1.0000
  C   C780      1.0  0.97103  0.26990  0.90911  1.0000
  H   H1222     1.0  0.67548  0.56466  0.98987  1.0000
  C   C781      1.0  0.84210  0.71247  0.97307  1.0000
  H   H1223     1.0  0.80981  0.61017  0.06272  1.0000
  Fe  Fe146     1.0  0.71423  0.66722  0.99171  1.0000
  S   S300      1.0  0.69884  0.62578  0.00425  1.0000
  S   S301      1.0  0.74947  0.71636  0.99420  1.0000
  Fe  Fe147     1.0  0.94046  0.59315  0.07458  1.0000
  S   S302      1.0  0.90415  0.54683  0.07971  1.0000
  H   H1224     1.0  0.72198  0.87168  0.02268  1.0000
  S   S303      1.0  0.93338  0.56189  0.10774  1.0000
  Fe  Fe148     1.0  0.94193  0.54077  0.09039  1.0000
  H   H1225     1.0  0.55455  0.53254  0.03357  1.0000
  Fe  Fe149     1.0  0.89892  0.57179  0.09657  1.0000
  S   S304      1.0  0.85814  0.57543  0.10541  1.0000
  S   S305      1.0  0.93259  0.61806  0.09084  1.0000
  C   C782      1.0  0.96040  0.62896  0.04396  1.0000
  H   H1226     1.0  0.53563  0.49480  0.06357  1.0000
  H   H1227     1.0  0.80405  0.57547  0.07042  1.0000
  Fe  Fe150     1.0  0.66227  0.57809  0.07360  1.0000
  S   S306      1.0  0.65873  0.53180  0.06713  1.0000
  S   S307      1.0  0.66457  0.61584  0.06053  1.0000
  Fe  Fe151     1.0  0.65932  0.56079  0.10045  1.0000
  S   S308      1.0  0.65546  0.51292  0.09555  1.0000
  S   S309      1.0  0.65556  0.56907  0.12085  1.0000
  Fe  Fe152     1.0  0.69221  0.53672  0.08232  1.0000
  S   S310      1.0  0.72831  0.51875  0.07872  1.0000
  Fe  Fe153     1.0  0.62187  0.51129  0.08086  1.0000
  S   S311      1.0  0.77272  0.90983  0.97799  1.0000
  S   S312      1.0  0.69868  0.58474  0.08808  1.0000
  S   S313      1.0  0.62293  0.55770  0.08646  1.0000
  C   C783      1.0  0.67862  0.59779  0.13173  1.0000
  H   H1228     1.0  0.61215  0.55763  0.05893  1.0000
  S   S314      1.0  0.69843  0.76628  0.98669  1.0000
  C   C784      1.0  0.86386  0.61164  0.07088  1.0000
  H   H1229     1.0  0.71211  0.62583  0.11924  1.0000
  Fe  Fe154     1.0  0.74811  0.94079  0.97430  1.0000
  H   H1230     1.0  0.75489  0.89462  0.00510  1.0000
  H   H1231     1.0  0.68959  0.55247  0.97658  1.0000
  H   H1232     1.0  0.64057  0.59083  0.98770  1.0000
  C   C785      1.0  0.82231  0.55973  0.09782  1.0000
  C   C786      1.0  0.80168  0.57344  0.09965  1.0000
  C   C787      1.0  0.77282  0.56128  0.09372  1.0000
  C   C788      1.0  0.76424  0.53487  0.08620  1.0000
  C   C789      1.0  0.78485  0.52117  0.08438  1.0000
  C   C790      1.0  0.81393  0.53370  0.09011  1.0000
  H   H1233     1.0  0.80827  0.59379  0.10553  1.0000
  H   H1234     1.0  0.75726  0.57232  0.09492  1.0000
  C   C791      1.0  0.84793  0.56403  0.05904  1.0000
  H   H1235     1.0  0.82963  0.52284  0.08877  1.0000
  H   H1236     1.0  0.75710  0.95767  0.02629  1.0000
  H   H1237     1.0  0.92417  0.62978  0.03230  1.0000
  C   C792      1.0  0.75097  0.81809  0.98171  1.0000
  C   C793      1.0  0.69041  0.62411  0.02002  1.0000
  C   C794      1.0  0.68734  0.64847  0.02636  1.0000
  C   C795      1.0  0.67957  0.64559  0.03874  1.0000
  C   C796      1.0  0.67517  0.61856  0.04499  1.0000
  C   C797      1.0  0.67837  0.59424  0.03866  1.0000
  C   C798      1.0  0.68575  0.59697  0.02625  1.0000
  H   H1238     1.0  0.69074  0.66946  0.02172  1.0000
  H   H1239     1.0  0.67710  0.66453  0.04352  1.0000
  H   H1240     1.0  0.67512  0.57332  0.04331  1.0000
  H   H1241     1.0  0.68812  0.57799  0.02146  1.0000
  Fe  Fe155     1.0  0.96739  0.60676  0.10102  1.0000
  C   C799      1.0  0.57975  0.50311  0.04763  1.0000
  Fe  Fe156     1.0  0.71704  0.73001  0.98323  1.0000
  H   H1242     1.0  0.79787  0.57408  0.05431  1.0000
  H   H1243     1.0  0.88851  0.61682  0.06978  1.0000
  H   H1244     1.0  0.84280  0.59888  0.04095  1.0000
  N   N77       1.0  0.84523  0.59387  0.06026  1.0000
  H   H1245     1.0  0.71628  0.48582  0.11741  1.0000
  C   C800      1.0  0.70529  0.62300  0.12861  1.0000
  C   C801      1.0  0.54492  0.52652  0.04277  1.0000
  H   H1246     1.0  0.74396  0.66382  0.13516  1.0000
  H   H1247     1.0  0.64079  0.94556  0.02282  1.0000
  N   N78       1.0  0.56833  0.52630  0.05161  1.0000
  H   H1248     1.0  0.76330  0.93363  0.00124  1.0000
  H   H1249     1.0  0.65333  0.97299  0.04304  1.0000
  Fe  Fe157     1.0  0.70318  0.96536  0.98394  1.0000
  C   C802      1.0  0.72033  0.85730  0.98202  1.0000
  H   H1250     1.0  0.72787  0.57701  0.12823  1.0000
  C   C803      1.0  0.68108  0.97784  0.01426  1.0000
  H   H1251     1.0  0.68119  0.49339  0.13207  1.0000
  H   H1252     1.0  0.88069  0.61627  0.04758  1.0000
  H   H1253     1.0  0.57168  0.51847  0.07061  1.0000
  H   H1254     1.0  0.85480  0.63440  0.04977  1.0000
  C   C804      1.0  0.85269  0.66681  0.97491  1.0000
  H   H1255     1.0  0.60528  0.56405  0.04347  1.0000
  H   H1256     1.0  0.70828  0.87210  0.98213  1.0000
  H   H1257     1.0  0.92229  0.65099  0.13388  1.0000
  H   H1258     1.0  0.74883  0.51833  0.11229  1.0000
  N   N79       1.0  0.73119  0.91636  0.01558  1.0000
  C   C805      1.0  0.73646  0.94766  0.02017  1.0000
  C   C806      1.0  0.70413  0.90462  0.00725  1.0000
  H   H1259     1.0  0.71660  0.94745  0.02536  1.0000
  C   C807      1.0  0.75832  0.91771  0.00897  1.0000
  C   C808      1.0  0.96767  0.65067  0.02360  1.0000
  C   C809      1.0  0.88431  0.68483  0.97415  1.0000
  H   H1260     1.0  0.53580  0.54374  0.04553  1.0000
  H   H1261     1.0  0.71131  0.51119  0.10658  1.0000
  N   N80       1.0  0.72099  0.52985  0.12493  1.0000
  C   C810      1.0  0.55456  0.51839  0.06368  1.0000
  H   H1262     1.0  0.75405  0.57202  0.11784  1.0000
  H   H1263     1.0  0.73027  0.97220  0.12919  1.0000
  C   C811      1.0  0.68875  0.51723  0.12868  1.0000
  H   H1264     1.0  0.67306  0.51629  0.12098  1.0000
  C   C812      1.0  0.76699  0.84995  0.97978  1.0000
  H   H1265     1.0  0.84011  0.55015  0.06731  1.0000
  S   S315      1.0  0.93475  0.61029  0.05574  1.0000
  C   C813      1.0  0.72328  0.64455  0.13767  1.0000
  S   S316      1.0  0.95883  0.50208  0.09063  1.0000
  H   H1266     1.0  0.70527  0.89367  0.03097  1.0000
  H   H1267     1.0  0.58669  0.57542  0.05547  1.0000
  C   C814      1.0  0.72995  0.56176  0.12083  1.0000
  H   H1268     1.0  0.73980  0.96379  0.01258  1.0000
  H   H1269     1.0  0.70785  0.91943  0.99922  1.0000
  C   C815      1.0  0.81284  0.58819  0.06198  1.0000
  H   H1270     1.0  0.59845  0.50337  0.05380  1.0000
  C   C816      1.0  0.71968  0.80593  0.98406  1.0000
  C   C817      1.0  0.85630  0.61164  0.04915  1.0000
  H   H1271     1.0  0.54533  0.53511  0.06693  1.0000
  C   C818      1.0  0.66138  0.96657  0.02407  1.0000
  H   H1272     1.0  0.68512  0.53193  0.13596  1.0000
  H   H1273     1.0  0.74570  0.90374  0.03239  1.0000
  H   H1274     1.0  0.77827  0.50074  0.07854  1.0000
  H   H1275     1.0  0.68025  0.81640  0.98599  1.0000
  C   C819      1.0  0.64886  0.59649  0.97828  1.0000
  H   H1276     1.0  0.87209  0.56749  0.05766  1.0000
  H   H1277     1.0  0.83402  0.54986  0.05118  1.0000
  H   H1278     1.0  0.95804  0.65569  0.01539  1.0000
  C   C820      1.0  0.59409  0.55716  0.05236  1.0000
  C   C821      1.0  0.70448  0.82567  0.98422  1.0000
  H   H1279     1.0  0.68340  0.90445  0.01175  1.0000
  H   H1280     1.0  0.71504  0.56255  0.11309  1.0000
  C   C822      1.0  0.72448  0.51044  0.11490  1.0000
  H   H1281     1.0  0.52524  0.50346  0.04200  1.0000
  H   H1282     1.0  0.86198  0.63405  0.07225  1.0000
  S   S317      1.0  0.68053  0.68163  0.98234  1.0000
  C   C823      1.0  0.72580  0.89543  0.02587  1.0000
  C   C824      1.0  0.94848  0.63596  0.03323  1.0000
  H   H1283     1.0  0.77919  0.92602  0.01497  1.0000
  H   H1284     1.0  0.85668  0.59860  0.07939  1.0000
  C   C825      1.0  0.68246  0.57037  0.98030  1.0000
  C   C826      1.0  0.75173  0.86969  0.97990  1.0000
  H   H1285     1.0  0.69890  0.88073  0.00383  1.0000
  S   S318      1.0  0.90970  0.66628  0.97416  1.0000
  S   S319      1.0  0.67160  0.95725  0.00009  1.0000
  H   H1286     1.0  0.58917  0.50757  0.03836  1.0000
  Fe  Fe158     1.0  0.96129  0.69150  0.97679  1.0000
  H   H1287     1.0  0.70310  0.59271  0.98079  1.0000
  H   H1288     1.0  0.50802  0.97483  0.07718  1.0000
  H   H1289     1.0  0.66884  0.61912  0.97897  1.0000
  H   H1290     1.0  0.84441  0.64210  0.97585  1.0000
  H   H1291     1.0  0.76295  0.80310  0.98158  1.0000
  H   H1292     1.0  0.62226  0.53549  0.98176  1.0000
  C   C827      1.0  0.83166  0.68058  0.97447  1.0000
  H   H1293     1.0  0.79132  0.85933  0.97819  1.0000
  H   H1294     1.0  0.80739  0.66653  0.97505  1.0000
  H   H1295     1.0  0.76542  0.53981  0.13287  1.0000
  Fe  Fe159     1.0  0.76594  0.70866  0.97585  1.0000
  H   H1296     1.0  0.69472  0.73243  0.13882  1.0000
  H   H1297     1.0  0.60247  0.97104  0.04608  1.0000
  C   C828      1.0  0.74087  0.53011  0.13537  1.0000
  H   H1298     1.0  0.57272  0.97261  0.05549  1.0000
  S   S320      1.0  0.69714  0.92228  0.97316  1.0000
  S   S321      1.0  0.73291  0.65877  0.97390  1.0000
  H   H1299     1.0  0.73489  0.50637  0.13866  1.0000
  C   C829      1.0  0.89480  0.71676  0.97294  1.0000
  N   N81       1.0  0.65757  0.57265  0.97285  1.0000
  H   H1300     1.0  0.92034  0.62383  0.25043  1.0000
  S   S322      1.0  0.92105  0.68702  0.18685  1.0000
  Fe  Fe160     1.0  0.71507  0.97009  0.21028  1.0000
  H   H1301     1.0  0.95877  0.54465  0.24150  1.0000
  C   C830      1.0  0.88021  0.96787  0.20572  1.0000
  C   C831      1.0  0.69521  0.71313  0.16151  1.0000
  H   H1302     1.0  0.59614  0.97388  0.18245  1.0000
  H   H1303     1.0  0.95277  0.63138  0.16230  1.0000
  Fe  Fe161     1.0  0.74767  0.93851  0.19473  1.0000
  S   S323      1.0  0.76583  0.90116  0.19243  1.0000
  S   S324      1.0  0.70089  0.93914  0.19336  1.0000
  Fe  Fe162     1.0  0.73488  0.67662  0.18140  1.0000
  S   S325      1.0  0.76203  0.72663  0.18716  1.0000
  S   S326      1.0  0.73856  0.66933  0.16090  1.0000
  Fe  Fe163     1.0  0.71424  0.65911  0.20776  1.0000
  S   S327      1.0  0.73913  0.70766  0.21500  1.0000
  S   S328      1.0  0.68667  0.61898  0.21982  1.0000
  Fe  Fe164     1.0  0.72165  0.72201  0.19820  1.0000
  S   S329      1.0  0.69801  0.75507  0.19854  1.0000
  Fe  Fe165     1.0  0.77740  0.70810  0.20331  1.0000
  S   S330      1.0  0.82526  0.72939  0.21151  1.0000
  S   S331      1.0  0.69331  0.67298  0.19165  1.0000
  S   S332      1.0  0.75365  0.65855  0.19691  1.0000
  Fe  Fe166     1.0  0.65750  0.58648  0.29187  1.0000
  S   S333      1.0  0.67502  0.54922  0.29218  1.0000
  S   S334      1.0  0.66394  0.62083  0.27672  1.0000
  H   H1304     1.0  0.70636  0.70719  0.16936  1.0000
  N   N82       1.0  0.92467  0.65078  0.15343  1.0000
  H   H1305     1.0  0.94573  0.69751  0.14734  1.0000
  H   H1306     1.0  0.92413  0.54398  0.26502  1.0000
  H   H1307     1.0  0.90875  0.61320  0.14017  1.0000
  Fe  Fe167     1.0  0.93398  0.58553  0.29242  1.0000
  S   S335      1.0  0.90174  0.53532  0.29238  1.0000
  S   S336      1.0  0.93033  0.60726  0.27445  1.0000
  H   H1308     1.0  0.61651  0.93843  0.19131  1.0000
  H   H1309     1.0  0.71443  0.77309  0.14237  1.0000
  C   C832      1.0  0.94848  0.68272  0.15456  1.0000
  H   H1310     1.0  0.92807  0.51112  0.27134  1.0000
  C   C833      1.0  0.79055  0.62618  0.27823  1.0000
  H   H1311     1.0  0.79819  0.61129  0.27247  1.0000
  H   H1312     1.0  0.78950  0.61823  0.28774  1.0000
  C   C834      1.0  0.95648  0.62634  0.26291  1.0000
  C   C835      1.0  0.68357  0.61977  0.23589  1.0000
  C   C836      1.0  0.69426  0.64750  0.24271  1.0000
  C   C837      1.0  0.68838  0.64734  0.25523  1.0000
  C   C838      1.0  0.67290  0.61940  0.26119  1.0000
  C   C839      1.0  0.66366  0.59157  0.25450  1.0000
  C   C840      1.0  0.66862  0.59182  0.24189  1.0000
  H   H1313     1.0  0.70647  0.66907  0.23829  1.0000
  H   H1314     1.0  0.69579  0.66899  0.26034  1.0000
  H   H1315     1.0  0.65152  0.56990  0.25892  1.0000
  H   H1316     1.0  0.66030  0.57021  0.23671  1.0000
  H   H1317     1.0  0.62349  0.97742  0.21459  1.0000
  C   C841      1.0  0.71481  0.64134  0.14993  1.0000
  S   S337      1.0  0.61607  0.55953  0.30294  1.0000
  C   C842      1.0  0.92617  0.63742  0.14134  1.0000
  H   H1318     1.0  0.77936  0.66029  0.26091  1.0000
  H   H1319     1.0  0.75668  0.73748  0.16060  1.0000
  H   H1320     1.0  0.74317  0.57703  0.26784  1.0000
  N   N83       1.0  0.84980  0.96744  0.20814  1.0000
  H   H1321     1.0  0.71427  0.59047  0.27164  1.0000
  H   H1322     1.0  0.96229  0.57705  0.25096  1.0000
  C   C843      1.0  0.73756  0.59230  0.27422  1.0000
  C   C844      1.0  0.71736  0.79576  0.19714  1.0000
  C   C845      1.0  0.74877  0.81009  0.19508  1.0000
  C   C846      1.0  0.76313  0.84233  0.19368  1.0000
  C   C847      1.0  0.74641  0.86069  0.19443  1.0000
  C   C848      1.0  0.71504  0.84639  0.19659  1.0000
  C   C849      1.0  0.70059  0.81408  0.19788  1.0000
  H   H1323     1.0  0.76204  0.79638  0.19455  1.0000
  H   H1324     1.0  0.78740  0.85311  0.19201  1.0000
  H   H1325     1.0  0.70186  0.86018  0.19717  1.0000
  H   H1326     1.0  0.67627  0.80325  0.19944  1.0000
  C   C850      1.0  0.94478  0.63113  0.25172  1.0000
  C   C851      1.0  0.74435  0.74253  0.15287  1.0000
  H   H1327     1.0  0.67315  0.71289  0.16463  1.0000
  H   H1328     1.0  0.73081  0.97502  0.15178  1.0000
  C   C852      1.0  0.89504  0.69900  0.19408  1.0000
  C   C853      1.0  0.86562  0.68977  0.18886  1.0000
  C   C854      1.0  0.84412  0.69891  0.19418  1.0000
  C   C855      1.0  0.85194  0.71750  0.20477  1.0000
  C   C856      1.0  0.88142  0.72684  0.21001  1.0000
  C   C857      1.0  0.90295  0.71754  0.20470  1.0000
  H   H1329     1.0  0.85936  0.67547  0.18065  1.0000
  H   H1330     1.0  0.82157  0.69176  0.19004  1.0000
  H   H1331     1.0  0.88757  0.74128  0.21819  1.0000
  H   H1332     1.0  0.92561  0.72481  0.20876  1.0000
  S   S338      1.0  0.76976  0.98030  0.18300  1.0000
  C   C858      1.0  0.67013  0.59465  0.14398  1.0000
  C   C859      1.0  0.82934  0.93681  0.21258  1.0000
  H   H1333     1.0  0.74026  0.72395  0.14584  1.0000
  C   C860      1.0  0.76283  0.63570  0.26142  1.0000
  C   C861      1.0  0.96435  0.64521  0.24211  1.0000
  C   C862      1.0  0.75103  0.64412  0.28207  1.0000
  H   H1334     1.0  0.64953  0.57528  0.14650  1.0000
  H   H1335     1.0  0.80854  0.65020  0.27808  1.0000
  H   H1336     1.0  0.87856  0.95002  0.19869  1.0000
  H   H1337     1.0  0.91884  0.51104  0.25543  1.0000
  N   N84       1.0  0.76052  0.62461  0.27397  1.0000
  H   H1338     1.0  0.76007  0.76486  0.14909  1.0000
  H   H1339     1.0  0.95493  0.64870  0.23356  1.0000
  H   H1340     1.0  0.87564  0.62738  0.15406  1.0000
  N   N85       1.0  0.71531  0.74345  0.15674  1.0000
  H   H1341     1.0  0.96366  0.49942  0.25049  1.0000
  C   C863      1.0  0.92988  0.63191  0.16300  1.0000
  H   H1342     1.0  0.64542  0.98097  0.24339  1.0000
  H   H1343     1.0  0.73345  0.76314  0.17441  1.0000
  N   N86       1.0  0.65298  0.70443  0.22839  1.0000
  C   C864      1.0  0.65518  0.68329  0.21880  1.0000
  C   C865      1.0  0.63529  0.72119  0.22361  1.0000
  C   C866      1.0  0.68406  0.72694  0.23214  1.0000
  C   C867      1.0  0.63746  0.68636  0.23896  1.0000
  H   H1344     1.0  0.63226  0.66554  0.21588  1.0000
  H   H1345     1.0  0.66896  0.67070  0.22194  1.0000
  H   H1346     1.0  0.66621  0.69615  0.21062  1.0000
  H   H1347     1.0  0.63307  0.73735  0.23060  1.0000
  H   H1348     1.0  0.64664  0.73518  0.21566  1.0000
  H   H1349     1.0  0.61183  0.70495  0.22054  1.0000
  H   H1350     1.0  0.68332  0.74350  0.23927  1.0000
  H   H1351     1.0  0.69651  0.74073  0.22432  1.0000
  H   H1352     1.0  0.69812  0.71520  0.23582  1.0000
  H   H1353     1.0  0.63571  0.70155  0.24646  1.0000
  H   H1354     1.0  0.65006  0.67310  0.24265  1.0000
  H   H1355     1.0  0.61390  0.66926  0.23645  1.0000
  H   H1356     1.0  0.88957  0.66533  0.14784  1.0000
  H   H1357     1.0  0.76811  0.66856  0.28238  1.0000
  C   C868      1.0  0.83661  0.97352  0.19681  1.0000
  H   H1358     1.0  0.89230  0.66101  0.16390  1.0000
  H   H1359     1.0  0.80605  0.93561  0.21435  1.0000
  H   H1360     1.0  0.92900  0.64137  0.17224  1.0000
  H   H1361     1.0  0.67786  0.75115  0.14882  1.0000
  H   H1362     1.0  0.74030  0.63393  0.25784  1.0000
  H   H1363     1.0  0.68118  0.61344  0.16240  1.0000
  C   C869      1.0  0.72175  0.76766  0.16635  1.0000
  H   H1364     1.0  0.94758  0.69373  0.16348  1.0000
  S   S339      1.0  0.94981  0.48955  0.29396  1.0000
  C   C870      1.0  0.69989  0.75036  0.14622  1.0000
  C   C871      1.0  0.68802  0.61629  0.15303  1.0000
  H   H1365     1.0  0.72872  0.64393  0.27901  1.0000
  S   S340      1.0  0.68032  0.96924  0.22443  1.0000
  H   H1366     1.0  0.74814  0.63575  0.29155  1.0000
  H   H1367     1.0  0.82621  0.91804  0.20576  1.0000
  H   H1368     1.0  0.59038  0.96232  0.20459  1.0000
  H   H1369     1.0  0.91245  0.60764  0.16243  1.0000
  C   C872      1.0  0.63824  0.95888  0.19344  1.0000
  S   S341      1.0  0.75963  0.96565  0.21249  1.0000
  H   H1370     1.0  0.77050  0.62185  0.25510  1.0000
  H   H1371     1.0  0.73635  0.58286  0.28347  1.0000
  H   H1372     1.0  0.81405  0.97398  0.19846  1.0000
  C   C873      1.0  0.89417  0.65110  0.15484  1.0000
  H   H1373     1.0  0.83837  0.93136  0.22116  1.0000
  H   H1374     1.0  0.83285  0.95524  0.18969  1.0000
  H   H1375     1.0  0.65356  0.96171  0.18564  1.0000
  H   H1376     1.0  0.70034  0.76873  0.16965  1.0000
  H   H1377     1.0  0.64914  0.95330  0.20149  1.0000
  H   H1378     1.0  0.69003  0.69418  0.15454  1.0000
  H   H1379     1.0  0.73678  0.79095  0.16313  1.0000
  C   C874      1.0  0.93269  0.52574  0.26319  1.0000
  H   H1380     1.0  0.89082  0.96320  0.21407  1.0000
  Fe  Fe168     1.0  0.63591  0.52432  0.30467  1.0000
  Fe  Fe169     1.0  0.93921  0.52795  0.30221  1.0000
  H   H1381     1.0  0.56063  0.48678  0.29450  1.0000
  C   C875      1.0  0.97085  0.55869  0.24969  1.0000
  N   N87       1.0  0.96569  0.53953  0.26056  1.0000
  H   H1382     1.0  0.73865  0.54445  0.14312  1.0000
  Fe  Fe170     1.0  0.96859  0.69633  0.19404  1.0000
  C   C876      1.0  0.68944  0.98048  0.24001  1.0000
  H   H1383     1.0  0.94898  0.63715  0.13998  1.0000
  Fe  Fe171     1.0  0.64501  0.58172  0.31974  1.0000
  S   S342      1.0  0.66385  0.54586  0.32175  1.0000
  S   S343      1.0  0.61902  0.59471  0.33458  1.0000
  H   H1384     1.0  0.53557  0.66614  0.46251  1.0000
  H   H1385     1.0  0.92631  0.63107  0.33650  1.0000
  S   S344      1.0  0.92241  0.53292  0.32073  1.0000
  H   H1386     1.0  0.58461  0.96509  0.46976  1.0000
  H   H1387     1.0  0.53759  0.50843  0.32083  1.0000
  C   C877      1.0  0.60036  0.56505  0.47231  1.0000
  H   H1388     1.0  0.59993  0.82472  0.36109  1.0000
  Fe  Fe172     1.0  0.61057  0.61984  0.40562  1.0000
  S   S345      1.0  0.57604  0.63998  0.40266  1.0000
  S   S346      1.0  0.64589  0.62172  0.39164  1.0000
  Fe  Fe173     1.0  0.58903  0.59944  0.43157  1.0000
  S   S347      1.0  0.55250  0.61742  0.43016  1.0000
  S   S348      1.0  0.58894  0.57172  0.44827  1.0000
  Fe  Fe174     1.0  0.54351  0.59653  0.41133  1.0000
  H   H1389     1.0  0.50049  0.49937  0.41220  1.0000
  Fe  Fe175     1.0  0.58834  0.65926  0.42178  1.0000
  S   S349      1.0  0.59638  0.70636  0.43018  1.0000
  S   S350      1.0  0.57731  0.57531  0.41315  1.0000
  S   S351      1.0  0.62563  0.64235  0.42432  1.0000
  Fe  Fe176     1.0  0.58853  0.92407  0.40080  1.0000
  S   S352      1.0  0.55577  0.87494  0.40386  1.0000
  H   H1390     1.0  0.49562  0.91248  0.45419  1.0000
  Fe  Fe177     1.0  0.61471  0.93139  0.42710  1.0000
  S   S353      1.0  0.58504  0.88215  0.43158  1.0000
  S   S354      1.0  0.64514  0.96992  0.44030  1.0000
  Fe  Fe178     1.0  0.59571  0.86948  0.41284  1.0000
  S   S355      1.0  0.60364  0.82871  0.40461  1.0000
  Fe  Fe179     1.0  0.54781  0.89143  0.42209  1.0000
  S   S356      1.0  0.50376  0.88146  0.43183  1.0000
  S   S357      1.0  0.62902  0.91838  0.40905  1.0000
  S   S358      1.0  0.57683  0.94096  0.41843  1.0000
  S   S359      1.0  0.91669  0.59559  0.31023  1.0000
  H   H1391     1.0  0.57241  0.50570  0.31657  1.0000
  H   H1392     1.0  0.58142  0.54261  0.47125  1.0000
  H   H1393     1.0  0.88695  0.55254  0.34846  1.0000
  C   C878      1.0  0.60940  0.58448  0.46232  1.0000
  C   C879      1.0  0.51566  0.93531  0.45484  1.0000
  C   C880      1.0  0.56638  0.96476  0.46333  1.0000
  H   H1394     1.0  0.64166  0.62817  0.45611  1.0000
  H   H1395     1.0  0.73868  0.52912  0.31495  1.0000
  C   C881      1.0  0.59633  0.73939  0.42286  1.0000
  C   C882      1.0  0.59947  0.76548  0.43000  1.0000
  C   C883      1.0  0.60071  0.79264  0.42458  1.0000
  C   C884      1.0  0.59939  0.79419  0.41193  1.0000
  C   C885      1.0  0.59611  0.76803  0.40479  1.0000
  C   C886      1.0  0.59419  0.74063  0.41021  1.0000
  H   H1396     1.0  0.60110  0.76480  0.43978  1.0000
  H   H1397     1.0  0.60337  0.81260  0.43019  1.0000
  H   H1398     1.0  0.59476  0.76890  0.39500  1.0000
  H   H1399     1.0  0.59108  0.72054  0.40463  1.0000
  H   H1400     1.0  0.56576  0.54079  0.34583  1.0000
  H   H1401     1.0  0.81735  0.61279  0.30827  1.0000
  H   H1402     1.0  0.62456  0.92063  0.45786  1.0000
  H   H1403     1.0  0.95330  0.55687  0.34811  1.0000
  C   C887      1.0  0.77569  0.57280  0.31142  1.0000
  S   S360      1.0  0.83784  0.52128  0.31581  1.0000
  H   H1404     1.0  0.57387  0.53990  0.32416  1.0000
  H   H1405     1.0  0.63936  0.84987  0.36447  1.0000
  C   C888      1.0  0.76313  0.54131  0.31391  1.0000
  H   H1406     1.0  0.61484  0.82902  0.37642  1.0000
  C   C889      1.0  0.78239  0.52567  0.31523  1.0000
  C   C890      1.0  0.97052  0.56828  0.36665  1.0000
  H   H1407     1.0  0.85084  0.57270  0.35727  1.0000
  H   H1408     1.0  0.56012  0.91667  0.44890  1.0000
  H   H1409     1.0  0.56686  0.69804  0.45612  1.0000
  H   H1410     1.0  0.48736  0.95981  0.42343  1.0000
  C   C891      1.0  0.81416  0.54130  0.31389  1.0000
  C   C892      1.0  0.62675  0.60081  0.35049  1.0000
  C   C893      1.0  0.60413  0.60295  0.35798  1.0000
  C   C894      1.0  0.60929  0.60837  0.37062  1.0000
  C   C895      1.0  0.63745  0.61235  0.37590  1.0000
  C   C896      1.0  0.66007  0.61018  0.36842  1.0000
  C   C897      1.0  0.65468  0.60412  0.35580  1.0000
  H   H1411     1.0  0.58248  0.60055  0.35397  1.0000
  H   H1412     1.0  0.59160  0.60988  0.37624  1.0000
  H   H1413     1.0  0.68195  0.61323  0.37240  1.0000
  H   H1414     1.0  0.67234  0.60264  0.35015  1.0000
  C   C898      1.0  0.59573  0.50688  0.33849  1.0000
  C   C899      1.0  0.96834  0.57478  0.35431  1.0000
  H   H1415     1.0  0.55994  0.97450  0.33749  1.0000
  C   C900      1.0  0.63404  0.61335  0.46380  1.0000
  N   N88       1.0  0.89166  0.59956  0.34775  1.0000
  H   H1416     1.0  0.88779  0.61877  0.33061  1.0000
  S   S361      1.0  0.58286  0.94194  0.38213  1.0000
  H   H1417     1.0  0.56238  0.61755  0.45751  1.0000
  C   C901      1.0  0.64240  0.96995  0.45635  1.0000
  C   C902      1.0  0.56168  0.51428  0.32378  1.0000
  C   C903      1.0  0.55195  0.51531  0.34516  1.0000
  Fe  Fe180     1.0  0.70097  0.57386  0.30912  1.0000
  C   C904      1.0  0.47613  0.54006  0.42445  1.0000
  H   H1418     1.0  0.55212  0.66109  0.44858  1.0000
  H   H1419     1.0  0.48977  0.87119  0.40589  1.0000
  C   C905      1.0  0.82661  0.57269  0.31128  1.0000
  N   N89       1.0  0.54016  0.93420  0.46287  1.0000
  C   C906      1.0  0.55019  0.91066  0.45806  1.0000
  H   H1420     1.0  0.60428  0.66085  0.44895  1.0000
  C   C907      1.0  0.60118  0.96393  0.35939  1.0000
  H   H1421     1.0  0.85661  0.61205  0.35487  1.0000
  H   H1422     1.0  0.90923  0.62920  0.36365  1.0000
  H   H1423     1.0  0.90121  0.64637  0.34310  1.0000
  S   S362      1.0  0.68436  0.61175  0.30857  1.0000
  N   N90       1.0  0.56353  0.50090  0.33560  1.0000
  N   N91       1.0  0.65738  0.71258  0.38926  1.0000
  C   C908      1.0  0.68317  0.70824  0.38358  1.0000
  C   C909      1.0  0.66226  0.74534  0.38867  1.0000
  C   C910      1.0  0.65552  0.70365  0.40210  1.0000
  C   C911      1.0  0.62855  0.69298  0.38268  1.0000
  H   H1424     1.0  0.68527  0.71467  0.37387  1.0000
  H   H1425     1.0  0.68000  0.68364  0.38383  1.0000
  H   H1426     1.0  0.70531  0.72237  0.38836  1.0000
  H   H1427     1.0  0.68389  0.76078  0.39351  1.0000
  H   H1428     1.0  0.66352  0.75283  0.37910  1.0000
  H   H1429     1.0  0.64330  0.74936  0.39299  1.0000
  H   H1430     1.0  0.63591  0.70591  0.40666  1.0000
  H   H1431     1.0  0.67668  0.71822  0.40740  1.0000
  H   H1432     1.0  0.65250  0.67924  0.40285  1.0000
  H   H1433     1.0  0.60855  0.69575  0.38662  1.0000
  H   H1434     1.0  0.62406  0.66808  0.38310  1.0000
  H   H1435     1.0  0.62931  0.69860  0.37290  1.0000
  N   N92       1.0  0.60692  0.86770  0.37014  1.0000
  C   C912      1.0  0.57548  0.85580  0.37477  1.0000
  C   C913      1.0  0.62837  0.88939  0.37925  1.0000
  C   C914      1.0  0.60815  0.88397  0.35872  1.0000
  H   H1436     1.0  0.56823  0.87493  0.37667  1.0000
  H   H1437     1.0  0.57376  0.84337  0.38340  1.0000
  H   H1438     1.0  0.55858  0.83942  0.36814  1.0000
  H   H1439     1.0  0.49051  0.96027  0.40715  1.0000
  H   H1440     1.0  0.65211  0.90016  0.37587  1.0000
  H   H1441     1.0  0.62903  0.87757  0.38780  1.0000
  C   C915      1.0  0.90216  0.62508  0.33912  1.0000
  H   H1442     1.0  0.60090  0.90323  0.36013  1.0000
  H   H1443     1.0  0.59274  0.86820  0.35153  1.0000
  C   C916      1.0  0.55752  0.67275  0.45771  1.0000
  C   C917      1.0  0.61567  0.84165  0.36790  1.0000
  C   C918      1.0  0.89401  0.57214  0.34214  1.0000
  C   C919      1.0  0.91110  0.60913  0.35894  1.0000
  S   S363      1.0  0.75297  0.59397  0.31002  1.0000
  H   H1444     1.0  0.62144  0.90837  0.38167  1.0000
  H   H1445     1.0  0.93570  0.61614  0.35688  1.0000
  H   H1446     1.0  0.90486  0.59003  0.36548  1.0000
  H   H1447     1.0  0.84417  0.58418  0.34245  1.0000
  H   H1448     1.0  0.91792  0.57741  0.33955  1.0000
  H   H1449     1.0  0.49720  0.55676  0.42855  1.0000
  C   C920      1.0  0.63160  0.94255  0.46275  1.0000
  H   H1450     1.0  0.58212  0.62377  0.47192  1.0000
  S   S364      1.0  0.49719  0.56774  0.40271  1.0000
  H   H1451     1.0  0.53072  0.88750  0.45708  1.0000
  H   H1452     1.0  0.63176  0.89425  0.35515  1.0000
  C   C921      1.0  0.61092  0.96000  0.37111  1.0000
  Fe  Fe181     1.0  0.95282  0.58345  0.31928  1.0000
  C   C922      1.0  0.60825  0.67368  0.45783  1.0000
  H   H1453     1.0  0.55313  0.50595  0.35424  1.0000
  C   C923      1.0  0.62249  0.97757  0.35025  1.0000
  H   H1454     1.0  0.87930  0.56402  0.33377  1.0000
  Fe  Fe182     1.0  0.88755  0.54476  0.31068  1.0000
  C   C924      1.0  0.85940  0.59182  0.35074  1.0000
  H   H1455     1.0  0.61052  0.53211  0.33899  1.0000
  H   H1456     1.0  0.52777  0.51145  0.34321  1.0000
  H   H1457     1.0  0.61477  0.98011  0.34122  1.0000
  H   H1458     1.0  0.52052  0.96888  0.33838  1.0000
  H   H1459     1.0  0.57696  0.95586  0.35734  1.0000
  H   H1460     1.0  0.77258  0.50140  0.31730  1.0000
  C   C925      1.0  0.47412  0.95244  0.41470  1.0000
  N   N93       1.0  0.57962  0.66441  0.46462  1.0000
  C   C926      1.0  0.80747  0.58840  0.31015  1.0000
  C   C927      1.0  0.64225  0.96961  0.37357  1.0000
  H   H1461     1.0  0.50734  0.95268  0.45819  1.0000
  C   C928      1.0  0.56649  0.63066  0.46634  1.0000
  H   H1462     1.0  0.62598  0.66915  0.46302  1.0000
  H   H1463     1.0  0.95692  0.54539  0.36985  1.0000
  H   H1464     1.0  0.85097  0.58496  0.31018  1.0000
  H   H1465     1.0  0.52380  0.94123  0.44542  1.0000
  H   H1466     1.0  0.60520  0.49633  0.33143  1.0000
  H   H1467     1.0  0.54426  0.62260  0.47102  1.0000
  H   H1468     1.0  0.61796  0.69874  0.45580  1.0000
  H   H1469     1.0  0.59811  0.49726  0.34737  1.0000
  H   H1470     1.0  0.65017  0.96696  0.38256  1.0000
  H   H1471     1.0  0.56787  0.90832  0.46410  1.0000
  H   H1472     1.0  0.57693  0.97092  0.45427  1.0000
  Fe  Fe183     1.0  0.59925  0.61244  0.63075  1.0000
  S   S365      1.0  0.54892  0.60115  0.62965  1.0000
  S   S366      1.0  0.62413  0.59600  0.61666  1.0000
  H   H1473     1.0  0.51810  0.62778  0.59455  1.0000
  H   H1474     1.0  0.58172  0.66885  0.61677  1.0000
  C   C929      1.0  0.55992  0.72010  0.63282  1.0000
  Fe  Fe184     1.0  0.61793  0.93186  0.62712  1.0000
  S   S367      1.0  0.57448  0.88881  0.62460  1.0000
  C   C930      1.0  0.52846  0.92603  0.47524  1.0000
  H   H1475     1.0  0.62253  0.92215  0.48040  1.0000
  C   C931      1.0  0.64901  0.62287  0.47525  1.0000
  C   C932      1.0  0.61540  0.57449  0.48374  1.0000
  Fe  Fe185     1.0  0.59827  0.86516  0.63584  1.0000
  Fe  Fe186     1.0  0.94143  0.56748  0.51339  1.0000
  S   S368      1.0  0.89085  0.53953  0.51624  1.0000
  H   H1476     1.0  0.51871  0.72797  0.63313  1.0000
  S   S369      1.0  0.64368  0.96853  0.61328  1.0000
  S   S370      1.0  0.90596  0.56148  0.54548  1.0000
  C   C933      1.0  0.63062  0.94351  0.47553  1.0000
  Fe  Fe187     1.0  0.90583  0.52313  0.53314  1.0000
  H   H1477     1.0  0.68523  0.91508  0.61763  1.0000
  Fe  Fe188     1.0  0.89357  0.57938  0.52839  1.0000
  S   S371      1.0  0.85844  0.60033  0.52952  1.0000
  S   S372      1.0  0.94313  0.60868  0.52431  1.0000
  Fe  Fe189     1.0  0.65035  0.58977  0.54494  1.0000
  S   S373      1.0  0.64247  0.53972  0.54593  1.0000
  S   S374      1.0  0.65481  0.62375  0.56072  1.0000
  Fe  Fe190     1.0  0.64931  0.58758  0.51659  1.0000
  S   S375      1.0  0.64011  0.53734  0.51590  1.0000
  S   S376      1.0  0.65916  0.61660  0.49952  1.0000
  Fe  Fe191     1.0  0.60729  0.53201  0.53093  1.0000
  H   H1478     1.0  0.69557  0.54556  0.48640  1.0000
  Fe  Fe192     1.0  0.67657  0.54993  0.53078  1.0000
  S   S377      1.0  0.71251  0.53037  0.52764  1.0000
  S   S378      1.0  0.61387  0.58177  0.53055  1.0000
  S   S379      1.0  0.68702  0.60051  0.53090  1.0000
  C   C934      1.0  0.68169  0.89192  0.61380  1.0000
  H   H1479     1.0  0.81634  0.54109  0.56349  1.0000
  H   H1480     1.0  0.52785  0.63780  0.61034  1.0000
  H   H1481     1.0  0.60289  0.67478  0.48207  1.0000
  C   C935      1.0  0.58868  0.66138  0.60814  1.0000
  S   S380      1.0  0.95569  0.54695  0.52941  1.0000
  C   C936      1.0  0.64894  0.96835  0.57152  1.0000
  C   C937      1.0  0.63972  0.60353  0.48528  1.0000
  H   H1482     1.0  0.95756  0.57360  0.56994  1.0000
  H   H1483     1.0  0.75665  0.62437  0.50726  1.0000
  H   H1484     1.0  0.60801  0.55936  0.49137  1.0000
  C   C938      1.0  0.81792  0.58072  0.52867  1.0000
  C   C939      1.0  0.80316  0.55067  0.52378  1.0000
  C   C940      1.0  0.77092  0.53555  0.52364  1.0000
  C   C941      1.0  0.75304  0.55047  0.52817  1.0000
  C   C942      1.0  0.76780  0.58075  0.53284  1.0000
  C   C943      1.0  0.80004  0.59577  0.53306  1.0000
  H   H1485     1.0  0.81664  0.53919  0.52007  1.0000
  H   H1486     1.0  0.75971  0.51225  0.51988  1.0000
  H   H1487     1.0  0.75441  0.59250  0.53643  1.0000
  H   H1488     1.0  0.81123  0.61908  0.53681  1.0000
  H   H1489     1.0  0.56519  0.67423  0.48198  1.0000
  H   H1490     1.0  0.61138  0.67957  0.60589  1.0000
  H   H1491     1.0  0.57935  0.62561  0.58795  1.0000
  N   N94       1.0  0.81396  0.50160  0.55281  1.0000
  H   H1492     1.0  0.48971  0.96000  0.62048  1.0000
  C   C944      1.0  0.62374  0.94334  0.59001  1.0000
  C   C945      1.0  0.62641  0.94329  0.57728  1.0000
  H   H1493     1.0  0.61997  0.86558  0.61116  1.0000
  H   H1494     1.0  0.68224  0.85373  0.59558  1.0000
  H   H1495     1.0  0.55944  0.64362  0.57929  1.0000
  H   H1496     1.0  0.60580  0.92431  0.59428  1.0000
  H   H1497     1.0  0.61087  0.92375  0.57184  1.0000
  H   H1498     1.0  0.66524  0.90437  0.58476  1.0000
  Fe  Fe193     1.0  0.56201  0.64795  0.63892  1.0000
  H   H1499     1.0  0.58366  0.70480  0.59428  1.0000
  S   S381      1.0  0.53985  0.67927  0.63233  1.0000
  C   C946      1.0  0.64388  0.61502  0.57604  1.0000
  C   C947      1.0  0.63175  0.58478  0.58020  1.0000
  C   C948      1.0  0.62472  0.57920  0.59257  1.0000
  C   C949      1.0  0.62918  0.60364  0.60089  1.0000
  C   C950      1.0  0.64108  0.63386  0.59670  1.0000
  C   C951      1.0  0.64825  0.63946  0.58436  1.0000
  H   H1500     1.0  0.62844  0.56575  0.57394  1.0000
  H   H1501     1.0  0.61627  0.55580  0.59573  1.0000
  H   H1502     1.0  0.64625  0.65304  0.60307  1.0000
  H   H1503     1.0  0.65816  0.66295  0.58128  1.0000
  H   H1504     1.0  0.67020  0.87462  0.62083  1.0000
  Fe  Fe194     1.0  0.95505  0.58687  0.54048  1.0000
  C   C952      1.0  0.55869  0.77119  0.63250  1.0000
  H   H1505     1.0  0.75282  0.55995  0.50225  1.0000
  H   H1506     1.0  0.55384  0.69284  0.60519  1.0000
  H   H1507     1.0  0.96470  0.56847  0.59206  1.0000
  H   H1508     1.0  0.72846  0.59301  0.47584  1.0000
  S   S382      1.0  0.55687  0.49979  0.53142  1.0000
  C   C953      1.0  0.73145  0.60613  0.48461  1.0000
  H   H1509     1.0  0.68171  0.93204  0.59699  1.0000
  H   H1510     1.0  0.53828  0.60956  0.60295  1.0000
  H   H1511     1.0  0.59175  0.63979  0.60988  1.0000
  C   C954      1.0  0.75401  0.57505  0.49448  1.0000
  C   C955      1.0  0.57617  0.64745  0.58694  1.0000
  H   H1512     1.0  0.70182  0.91001  0.59136  1.0000
  C   C956      1.0  0.53616  0.63182  0.60167  1.0000
  C   C957      1.0  0.59060  0.78527  0.63178  1.0000
  H   H1513     1.0  0.59858  0.66541  0.58420  1.0000
  C   C958      1.0  0.56175  0.68554  0.59668  1.0000
  N   N95       1.0  0.56568  0.65655  0.59833  1.0000
  H   H1514     1.0  0.58665  0.98089  0.58039  1.0000
  H   H1515     1.0  0.54450  0.68287  0.58936  1.0000
  N   N96       1.0  0.72966  0.58653  0.49508  1.0000
  S   S383      1.0  0.61250  0.66031  0.63868  1.0000
  C   C959      1.0  0.69945  0.56000  0.49486  1.0000
  C   C960      1.0  0.73361  0.60491  0.50646  1.0000
  S   S384      1.0  0.65255  0.96628  0.55555  1.0000
  H   H1516     1.0  0.63458  0.90615  0.60892  1.0000
  H   H1517     1.0  0.60487  0.72029  0.63231  1.0000
  H   H1518     1.0  0.54649  0.92511  0.48154  1.0000
  C   C961      1.0  0.64014  0.97180  0.48207  1.0000
  H   H1519     1.0  0.68054  0.56786  0.49534  1.0000
  H   H1520     1.0  0.63169  0.77726  0.63109  1.0000
  H   H1521     1.0  0.52062  0.94327  0.47915  1.0000
  H   H1522     1.0  0.71634  0.61494  0.50702  1.0000
  C   C962      1.0  0.83688  0.49711  0.56075  1.0000
  H   H1523     1.0  0.84020  0.55036  0.55046  1.0000
  H   H1524     1.0  0.73089  0.59043  0.51454  1.0000
  H   H1525     1.0  0.84097  0.51024  0.53677  1.0000
  N   N97       1.0  0.66325  0.88469  0.60236  1.0000
  H   H1526     1.0  0.69724  0.54479  0.50269  1.0000
  C   C963      1.0  0.58631  0.68065  0.47661  1.0000
  H   H1527     1.0  0.77876  0.48594  0.56607  1.0000
  C   C964      1.0  0.81773  0.53408  0.55390  1.0000
  H   H1528     1.0  0.48494  0.85491  0.63342  1.0000
  H   H1529     1.0  0.64568  0.84785  0.58889  1.0000
  C   C965      1.0  0.64433  0.96801  0.59717  1.0000
  H   H1530     1.0  0.69013  0.61006  0.63358  1.0000
  H   H1531     1.0  0.61843  0.87938  0.59629  1.0000
  H   H1532     1.0  0.70468  0.89206  0.61241  1.0000
  H   H1533     1.0  0.59641  0.70618  0.47565  1.0000
  C   C966      1.0  0.67872  0.90876  0.59346  1.0000
  C   C967      1.0  0.63273  0.88393  0.60475  1.0000
  C   C968      1.0  0.65967  0.85414  0.59748  1.0000
  H   H1534     1.0  0.54573  0.78523  0.63247  1.0000
  C   C969      1.0  0.54343  0.73871  0.63284  1.0000
  H   H1535     1.0  0.75195  0.56123  0.48598  1.0000
  H   H1536     1.0  0.64796  0.83568  0.60409  1.0000
  S   S385      1.0  0.61082  0.82555  0.62976  1.0000
  H   H1537     1.0  0.66798  0.64527  0.47634  1.0000
  H   H1538     1.0  0.76497  0.48387  0.55069  1.0000
  S   S386      1.0  0.64231  0.90783  0.63724  1.0000
  H   H1539     1.0  0.86059  0.51218  0.55816  1.0000
  H   H1540     1.0  0.95825  0.62115  0.48749  1.0000
  H   H1541     1.0  0.71316  0.61495  0.48489  1.0000
  S   S387      1.0  0.63780  0.97115  0.49814  1.0000
  H   H1542     1.0  0.75386  0.62652  0.48455  1.0000
  C   C970      1.0  0.60703  0.76661  0.63167  1.0000
  C   C971      1.0  0.59186  0.73425  0.63236  1.0000
  H   H1543     1.0  0.77721  0.59439  0.49489  1.0000
  H   H1544     1.0  0.79965  0.53783  0.54859  1.0000
  H   H1545     1.0  0.47498  0.92881  0.60932  1.0000
  H   H1546     1.0  0.50874  0.90300  0.47521  1.0000
  H   H1547     1.0  0.83443  0.50251  0.57045  1.0000
  H   H1548     1.0  0.80036  0.49549  0.53390  1.0000
  C   C972      1.0  0.81829  0.49411  0.54007  1.0000
  S   S388      1.0  0.96958  0.56850  0.49661  1.0000
  C   C973      1.0  0.97141  0.61494  0.48090  1.0000
  Fe  Fe195     1.0  0.74898  0.93981  0.74542  1.0000
  S   S389      1.0  0.69965  0.92373  0.74963  1.0000
  S   S390      1.0  0.76788  0.90532  0.73932  1.0000
  H   H1549     1.0  0.59178  0.93471  0.78017  1.0000
  H   H1550     1.0  0.90113  0.77666  0.73574  1.0000
  C   C974      1.0  0.96068  0.80994  0.74078  1.0000
  Fe  Fe196     1.0  0.62530  0.91940  0.65468  1.0000
  N   N98       1.0  0.61156  0.58855  0.74797  1.0000
  S   S391      1.0  0.90414  0.66537  0.74388  1.0000
  Fe  Fe197     1.0  0.71146  0.72947  0.75517  1.0000
  S   S392      1.0  0.67229  0.68303  0.75267  1.0000
  S   S393      1.0  0.69589  0.76838  0.75645  1.0000
  Fe  Fe198     1.0  0.75814  0.70183  0.75783  1.0000
  S   S394      1.0  0.72225  0.65315  0.75562  1.0000
  S   S395      1.0  0.80843  0.71640  0.76349  1.0000
  Fe  Fe199     1.0  0.70283  0.67126  0.74029  1.0000
  S   S396      1.0  0.67916  0.63781  0.72429  1.0000
  Fe  Fe200     1.0  0.69352  0.66796  0.76810  1.0000
  S   S397      1.0  0.65978  0.63383  0.78097  1.0000
  S   S398      1.0  0.74097  0.71925  0.74157  1.0000
  S   S399      1.0  0.73066  0.71535  0.77152  1.0000
  Fe  Fe201     1.0  0.60589  0.63878  0.65714  1.0000
  S   S400      1.0  0.55588  0.62940  0.65786  1.0000
  S   S401      1.0  0.64318  0.66656  0.67124  1.0000
  C   C975      1.0  0.60833  0.60429  0.73692  1.0000
  H   H1551     1.0  0.73642  0.82878  0.78809  1.0000
  H   H1552     1.0  0.94908  0.79326  0.76401  1.0000
  C   C976      1.0  0.59219  0.55510  0.74661  1.0000
  H   H1553     1.0  0.56763  0.55057  0.74528  1.0000
  S   S402      1.0  0.66280  0.93859  0.66958  1.0000
  C   C977      1.0  0.48094  0.89135  0.64417  1.0000
  H   H1554     1.0  0.68990  0.68733  0.79756  1.0000
  S   S403      1.0  0.69181  0.92690  0.78263  1.0000
  H   H1555     1.0  0.73102  0.93665  0.70444  1.0000
  H   H1556     1.0  0.60321  0.88053  0.75780  1.0000
  S   S404      1.0  0.59658  0.59188  0.64916  1.0000
  H   H1557     1.0  0.61707  0.59665  0.79837  1.0000
  N   N99       1.0  0.74292  0.87473  0.78335  1.0000
  H   H1558     1.0  0.66417  0.88920  0.80277  1.0000
  H   H1559     1.0  0.59427  0.54262  0.75479  1.0000
  H   H1560     1.0  0.68697  0.90896  0.71756  1.0000
  C   C978      1.0  0.95169  0.77603  0.75767  1.0000
  C   C979      1.0  0.66786  0.64658  0.70988  1.0000
  C   C980      1.0  0.67922  0.67672  0.70566  1.0000
  C   C981      1.0  0.67097  0.68239  0.69390  1.0000
  C   C982      1.0  0.65076  0.65818  0.68631  1.0000
  C   C983      1.0  0.63888  0.62808  0.69061  1.0000
  C   C984      1.0  0.64765  0.62232  0.70228  1.0000
  H   H1561     1.0  0.69488  0.69560  0.71136  1.0000
  H   H1562     1.0  0.68041  0.70573  0.69065  1.0000
  H   H1563     1.0  0.62343  0.60919  0.68488  1.0000
  H   H1564     1.0  0.63887  0.59889  0.70541  1.0000
  C   C985      1.0  0.65411  0.64143  0.79642  1.0000
  C   C986      1.0  0.74314  0.85221  0.79239  1.0000
  H   H1565     1.0  0.76630  0.85914  0.79666  1.0000
  C   C987      1.0  0.68726  0.65402  0.64854  1.0000
  N   N100      1.0  0.61100  0.92679  0.76357  1.0000
  H   H1566     1.0  0.66986  0.85829  0.69751  1.0000
  C   C988      1.0  0.87728  0.67863  0.74982  1.0000
  C   C989      1.0  0.84935  0.67118  0.74346  1.0000
  C   C990      1.0  0.82768  0.68190  0.74766  1.0000
  C   C991      1.0  0.83378  0.70028  0.75829  1.0000
  C   C992      1.0  0.86154  0.70735  0.76475  1.0000
  C   C993      1.0  0.88309  0.69641  0.76059  1.0000
  H   H1567     1.0  0.84449  0.65716  0.73518  1.0000
  H   H1568     1.0  0.80645  0.67625  0.74261  1.0000
  H   H1569     1.0  0.86629  0.72124  0.77306  1.0000
  H   H1570     1.0  0.90397  0.70135  0.76580  1.0000
  C   C994      1.0  0.74721  0.86613  0.74283  1.0000
  C   C995      1.0  0.76174  0.84576  0.74276  1.0000
  C   C996      1.0  0.74606  0.81508  0.74649  1.0000
  C   C997      1.0  0.71573  0.80477  0.75017  1.0000
  C   C998      1.0  0.70093  0.82472  0.74966  1.0000
  C   C999      1.0  0.71657  0.85519  0.74605  1.0000
  H   H1571     1.0  0.78541  0.85392  0.74018  1.0000
  H   H1572     1.0  0.75762  0.79972  0.74682  1.0000
  H   H1573     1.0  0.67732  0.81668  0.75233  1.0000
  H   H1574     1.0  0.70474  0.87004  0.74585  1.0000
  C   C1000     1.0  0.90913  0.77379  0.74498  1.0000
  H   H1575     1.0  0.77536  0.91392  0.79359  1.0000
  H   H1576     1.0  0.69500  0.86435  0.78486  1.0000
  C   C1001     1.0  0.66006  0.94310  0.68551  1.0000
  C   C1002     1.0  0.63226  0.93013  0.69150  1.0000
  C   C1003     1.0  0.63169  0.93303  0.70428  1.0000
  Fe  Fe202     1.0  0.71484  0.95497  0.76616  1.0000
  N   N101      1.0  0.94170  0.77878  0.74515  1.0000
  H   H1577     1.0  0.61125  0.91771  0.68630  1.0000
  H   H1578     1.0  0.61009  0.92282  0.70881  1.0000
  C   C1004     1.0  0.67371  0.93408  0.79557  1.0000
  Fe  Fe203     1.0  0.95505  0.68238  0.74867  1.0000
  C   C1005     1.0  0.67017  0.96165  0.79740  1.0000
  H   H1579     1.0  0.76515  0.89350  0.76672  1.0000
  H   H1580     1.0  0.61779  0.91667  0.78205  1.0000
  C   C1006     1.0  0.69005  0.88067  0.69660  1.0000
  H   H1581     1.0  0.95826  0.82824  0.74658  1.0000
  N   N102      1.0  0.71127  0.88771  0.70725  1.0000
  C   C1007     1.0  0.69532  0.89038  0.71829  1.0000
  C   C1008     1.0  0.72173  0.86264  0.70865  1.0000
  H   H1582     1.0  0.67520  0.86848  0.72002  1.0000
  H   H1583     1.0  0.71089  0.89613  0.72641  1.0000
  H   H1584     1.0  0.75073  0.91611  0.69728  1.0000
  H   H1585     1.0  0.73353  0.85967  0.70042  1.0000
  H   H1586     1.0  0.70225  0.84013  0.71027  1.0000
  H   H1587     1.0  0.73815  0.86755  0.71651  1.0000
  H   H1588     1.0  0.62297  0.62957  0.73760  1.0000
  H   H1589     1.0  0.58432  0.60133  0.73529  1.0000
  H   H1590     1.0  0.61565  0.59533  0.72870  1.0000
  H   H1591     1.0  0.63093  0.91050  0.74919  1.0000
  H   H1592     1.0  0.68903  0.63462  0.67115  1.0000
  C   C1009     1.0  0.67202  0.66951  0.80240  1.0000
  H   H1593     1.0  0.73580  0.90508  0.79654  1.0000
  H   H1594     1.0  0.95420  0.81272  0.73128  1.0000
  C   C1010     1.0  0.75204  0.90547  0.78934  1.0000
  S   S405      1.0  0.65755  0.95075  0.72731  1.0000
  H   H1595     1.0  0.93242  0.73154  0.74043  1.0000
  H   H1596     1.0  0.65450  0.60927  0.66350  1.0000
  Fe  Fe204     1.0  0.56188  0.90226  0.64288  1.0000
  H   H1597     1.0  0.75827  0.85384  0.76893  1.0000
  S   S406      1.0  0.76494  0.96904  0.76258  1.0000
  H   H1598     1.0  0.93809  0.75273  0.76123  1.0000
  C   C1011     1.0  0.71177  0.86452  0.77795  1.0000
  C   C1012     1.0  0.76466  0.87663  0.77370  1.0000
  C   C1013     1.0  0.63101  0.61848  0.80289  1.0000
  S   S407      1.0  0.60424  0.94688  0.64467  1.0000
  H   H1599     1.0  0.64067  0.90302  0.76426  1.0000
  H   H1600     1.0  0.65212  0.58412  0.74182  1.0000
  H   H1601     1.0  0.68376  0.59594  0.66687  1.0000
  H   H1602     1.0  0.57779  0.59836  0.75770  1.0000
  H   H1603     1.0  0.75439  0.92325  0.71346  1.0000
  C   C1014     1.0  0.64386  0.59335  0.74971  1.0000
  H   H1604     1.0  0.59898  0.54478  0.73863  1.0000
  S   S408      1.0  0.58243  0.87533  0.65399  1.0000
  C   C1015     1.0  0.68713  0.95915  0.69244  1.0000
  Fe  Fe205     1.0  0.70065  0.96386  0.73916  1.0000
  H   H1605     1.0  0.65899  0.61829  0.75062  1.0000
  H   H1606     1.0  0.64535  0.96540  0.75496  1.0000
  C   C1016     1.0  0.60201  0.60147  0.75864  1.0000
  H   H1607     1.0  0.70148  0.87935  0.68802  1.0000
  H   H1608     1.0  0.68113  0.89875  0.69547  1.0000
  Fe  Fe206     1.0  0.54678  0.58353  0.64852  1.0000
  C   C1017     1.0  0.73804  0.91721  0.70552  1.0000
  N   N103      1.0  0.69361  0.62733  0.65206  1.0000
  C   C1018     1.0  0.72706  0.63689  0.65312  1.0000
  C   C1019     1.0  0.67969  0.61621  0.66389  1.0000
  H   H1609     1.0  0.78841  0.88410  0.77740  1.0000
  S   S409      1.0  0.52041  0.91189  0.64762  1.0000
  H   H1610     1.0  0.61642  0.62668  0.75994  1.0000
  H   H1611     1.0  0.57759  0.94461  0.75914  1.0000
  H   H1612     1.0  0.72684  0.85011  0.79976  1.0000
  H   H1613     1.0  0.60459  0.59044  0.76717  1.0000
  H   H1614     1.0  0.70360  0.84079  0.77385  1.0000
  C   C1020     1.0  0.66169  0.91068  0.80410  1.0000
  H   H1615     1.0  0.64748  0.58247  0.75810  1.0000
  C   C1021     1.0  0.62190  0.90417  0.75848  1.0000
  C   C1022     1.0  0.58620  0.92758  0.75563  1.0000
  H   H1616     1.0  0.75214  0.92293  0.78272  1.0000
  H   H1617     1.0  0.56648  0.90459  0.75489  1.0000
  C   C1023     1.0  0.65886  0.94875  0.71119  1.0000
  S   S410      1.0  0.51503  0.53509  0.65415  1.0000
  H   H1618     1.0  0.67945  0.97998  0.79100  1.0000
  H   H1619     1.0  0.69652  0.67328  0.65546  1.0000
  H   H1620     1.0  0.90501  0.79012  0.75133  1.0000
  H   H1621     1.0  0.58004  0.89466  0.77582  1.0000
  H   H1622     1.0  0.89413  0.74999  0.74770  1.0000
  H   H1623     1.0  0.65597  0.95781  0.76990  1.0000
  C   C1024     1.0  0.68657  0.96196  0.70518  1.0000
  H   H1624     1.0  0.71107  0.88024  0.77070  1.0000
  H   H1625     1.0  0.59435  0.93432  0.74624  1.0000
  C   C1025     1.0  0.59957  0.91779  0.77592  1.0000
  C   C1026     1.0  0.94549  0.75532  0.73714  1.0000
  H   H1626     1.0  0.73761  0.65581  0.66011  1.0000
  H   H1627     1.0  0.93727  0.75588  0.72769  1.0000
  C   C1027     1.0  0.63657  0.95773  0.76418  1.0000
  C   C1028     1.0  0.47589  0.51432  0.65000  1.0000
  H   H1628     1.0  0.73269  0.61731  0.65582  1.0000
  H   H1629     1.0  0.69717  0.66303  0.63962  1.0000
  H   H1630     1.0  0.65527  0.59458  0.64160  1.0000
  H   H1631     1.0  0.96995  0.75911  0.73676  1.0000
  H   H1632     1.0  0.70871  0.96948  0.68788  1.0000
  H   H1633     1.0  0.62949  0.97541  0.76818  1.0000
  H   H1634     1.0  0.70757  0.97462  0.71034  1.0000
  H   H1635     1.0  0.96782  0.56141  0.67355  1.0000
  C   C1029     1.0  0.68048  0.60233  0.64267  1.0000
  H   H1636     1.0  0.73831  0.64546  0.64436  1.0000
  S   S411      1.0  0.74953  0.97845  0.73374  1.0000
  H   H1637     1.0  0.66224  0.64753  0.64776  1.0000
  H   H1638     1.0  0.68478  0.58174  0.64498  1.0000
  Fe  Fe207     1.0  0.60441  0.91648  0.84492  1.0000
  S   S412      1.0  0.57043  0.86678  0.84320  1.0000
  S   S413      1.0  0.62326  0.94842  0.82891  1.0000
  Fe  Fe208     1.0  0.60334  0.91643  0.87314  1.0000
  S   S414      1.0  0.57001  0.86667  0.87316  1.0000
  S   S415      1.0  0.61631  0.94650  0.89063  1.0000
  Fe  Fe209     1.0  0.59818  0.85917  0.85843  1.0000
  S   S416      1.0  0.61590  0.82162  0.85818  1.0000
  Fe  Fe210     1.0  0.54481  0.87875  0.85808  1.0000
  S   S417      1.0  0.49252  0.85775  0.85904  1.0000
  S   S418      1.0  0.63382  0.90839  0.85939  1.0000
  S   S419      1.0  0.57665  0.92901  0.85874  1.0000
  Fe  Fe211     1.0  0.60573  0.63322  0.85138  1.0000
  S   S420      1.0  0.55448  0.61771  0.85217  1.0000
  S   S421      1.0  0.63938  0.65919  0.83672  1.0000
  Fe  Fe212     1.0  0.61324  0.63175  0.87954  1.0000
  S   S422      1.0  0.56277  0.61654  0.88231  1.0000
  S   S423      1.0  0.65497  0.64755  0.89258  1.0000
  Fe  Fe213     1.0  0.55568  0.58398  0.86616  1.0000
  S   S424      1.0  0.52195  0.53367  0.86881  1.0000
  Fe  Fe214     1.0  0.56460  0.65078  0.86820  1.0000
  S   S425      1.0  0.53840  0.68093  0.86964  1.0000
  S   S426      1.0  0.60659  0.59711  0.86424  1.0000
  S   S427      1.0  0.61514  0.66826  0.86662  1.0000
  H   H1639     1.0  0.72045  0.66612  0.88089  1.0000
  N   N104      1.0  0.71051  0.66880  0.86196  1.0000
  H   H1640     1.0  0.68417  0.68643  0.87291  1.0000
  H   H1641     1.0  0.69568  0.61964  0.85948  1.0000
  C   C1030     1.0  0.90542  0.59065  0.93880  1.0000
  C   C1031     1.0  0.48396  0.59909  0.89002  1.0000
  C   C1032     1.0  0.65467  0.96562  0.80765  1.0000
  C   C1033     1.0  0.53047  0.92102  0.88385  1.0000
  C   C1034     1.0  0.95547  0.60688  0.94838  1.0000
  C   C1035     1.0  0.64278  0.94228  0.81622  1.0000
  H   H1642     1.0  0.52225  0.86952  0.90597  1.0000
  H   H1643     1.0  0.49953  0.58719  0.89130  1.0000
  H   H1644     1.0  0.74510  0.69947  0.85046  1.0000
  H   H1645     1.0  0.60824  0.60550  0.82005  1.0000
  Fe  Fe215     1.0  0.70091  0.67614  0.96468  1.0000
  S   S428      1.0  0.66240  0.65057  0.95072  1.0000
  H   H1646     1.0  0.90686  0.57523  0.96210  1.0000
  H   H1647     1.0  0.63824  0.89926  0.89688  1.0000
  N   N105      1.0  0.59826  0.72159  0.83037  1.0000
  H   H1648     1.0  0.68816  0.60405  0.96031  1.0000
  H   H1649     1.0  0.73727  0.65926  0.84828  1.0000
  H   H1650     1.0  0.61155  0.69224  0.81889  1.0000
  H   H1651     1.0  0.58441  0.67239  0.83013  1.0000
  H   H1652     1.0  0.95246  0.58278  0.95002  1.0000
  H   H1653     1.0  0.68021  0.68990  0.85686  1.0000
  H   H1654     1.0  0.61150  0.54366  0.96697  1.0000
  H   H1655     1.0  0.52028  0.93749  0.88146  1.0000
  H   H1656     1.0  0.71381  0.77279  0.95847  1.0000
  C   C1036     1.0  0.65633  0.64933  0.90877  1.0000
  C   C1037     1.0  0.63003  0.63583  0.91563  1.0000
  C   C1038     1.0  0.63240  0.63662  0.92844  1.0000
  C   C1039     1.0  0.66096  0.65116  0.93456  1.0000
  C   C1040     1.0  0.68722  0.66522  0.92772  1.0000
  C   C1041     1.0  0.68489  0.66412  0.91490  1.0000
  H   H1657     1.0  0.60793  0.62429  0.91108  1.0000
  H   H1658     1.0  0.61192  0.62568  0.93363  1.0000
  H   H1659     1.0  0.70937  0.67641  0.93227  1.0000
  H   H1660     1.0  0.70542  0.67459  0.90971  1.0000
  C   C1042     1.0  0.73225  0.67124  0.87202  1.0000
  C   C1043     1.0  0.64416  0.65139  0.82120  1.0000
  H   H1661     1.0  0.67231  0.72421  0.96445  1.0000
  H   H1662     1.0  0.74295  0.65461  0.87065  1.0000
  H   H1663     1.0  0.68136  0.69612  0.81924  1.0000
  H   H1664     1.0  0.52379  0.86347  0.88993  1.0000
  H   H1665     1.0  0.61642  0.70921  0.84634  1.0000
  H   H1666     1.0  0.67360  0.63105  0.86990  1.0000
  C   C1044     1.0  0.59357  0.78396  0.86296  1.0000
  C   C1045     1.0  0.60850  0.76499  0.86592  1.0000
  C   C1046     1.0  0.59168  0.73379  0.86847  1.0000
  C   C1047     1.0  0.55971  0.72106  0.86796  1.0000
  C   C1048     1.0  0.54465  0.74027  0.86542  1.0000
  C   C1049     1.0  0.56155  0.77172  0.86294  1.0000
  H   H1667     1.0  0.63325  0.77448  0.86617  1.0000
  H   H1668     1.0  0.60358  0.71972  0.87087  1.0000
  H   H1669     1.0  0.51990  0.73071  0.86508  1.0000
  H   H1670     1.0  0.54984  0.78622  0.86066  1.0000
  C   C1050     1.0  0.63073  0.54258  0.97247  1.0000
  N   N106      1.0  0.66955  0.75126  0.94947  1.0000
  H   H1671     1.0  0.49808  0.58036  0.86882  1.0000
  Fe  Fe216     1.0  0.70328  0.94988  0.95628  1.0000
  H   H1672     1.0  0.50181  0.92302  0.85895  1.0000
  C   C1051     1.0  0.63394  0.93983  0.90393  1.0000
  C   C1052     1.0  0.64236  0.91499  0.90461  1.0000
  C   C1053     1.0  0.65628  0.91050  0.91534  1.0000
  C   C1054     1.0  0.53042  0.88155  0.89732  1.0000
  C   C1055     1.0  0.62596  0.62343  0.81520  1.0000
  H   H1673     1.0  0.88304  0.59261  0.93877  1.0000
  H   H1674     1.0  0.55123  0.71571  0.83019  1.0000
  H   H1675     1.0  0.65685  0.97073  0.93268  1.0000
  C   C1056     1.0  0.59125  0.69194  0.82377  1.0000
  C   C1057     1.0  0.62331  0.72733  0.83938  1.0000
  H   H1676     1.0  0.49859  0.62420  0.88906  1.0000
  H   H1677     1.0  0.52642  0.90474  0.87598  1.0000
  C   C1058     1.0  0.57071  0.72015  0.83667  1.0000
  S   S429      1.0  0.81656  0.73068  0.97171  1.0000
  C   C1059     1.0  0.68619  0.63709  0.86126  1.0000
  H   H1678     1.0  0.75095  0.69486  0.87286  1.0000
  H   H1679     1.0  0.64998  0.58342  0.95452  1.0000
  C   C1060     1.0  0.69677  0.69110  0.86425  1.0000
  H   H1680     1.0  0.96137  0.61884  0.81261  1.0000
  H   H1681     1.0  0.69002  0.79315  0.96038  1.0000
  C   C1061     1.0  0.48375  0.88797  0.89326  1.0000
  H   H1682     1.0  0.57229  0.68664  0.81695  1.0000
  H   H1683     1.0  0.91905  0.73085  0.97230  1.0000
  S   S430      1.0  0.68014  0.92385  0.93862  1.0000
  H   H1684     1.0  0.71055  0.67379  0.84260  1.0000
  H   H1685     1.0  0.61316  0.76969  0.82645  1.0000
  C   C1062     1.0  0.64684  0.76086  0.94376  1.0000
  H   H1686     1.0  0.65911  0.71241  0.93708  1.0000
  C   C1063     1.0  0.52490  0.92658  0.90534  1.0000
  H   H1687     1.0  0.94761  0.65794  0.95411  1.0000
  H   H1688     1.0  0.88970  0.60259  0.96118  1.0000
  S   S431      1.0  0.73546  0.72543  0.96509  1.0000
  H   H1689     1.0  0.69580  0.72552  0.94454  1.0000
  H   H1690     1.0  0.55595  0.89285  0.89791  1.0000
  H   H1691     1.0  0.88196  0.75511  0.97120  1.0000
  H   H1692     1.0  0.92661  0.61386  0.96818  1.0000
  C   C1064     1.0  0.72664  0.67567  0.85032  1.0000
  H   H1693     1.0  0.71815  0.97770  0.91724  1.0000
  C   C1065     1.0  0.64641  0.91475  0.81438  1.0000
  H   H1694     1.0  0.90078  0.56585  0.93977  1.0000
  C   C1066     1.0  0.93146  0.64262  0.94701  1.0000
  H   H1695     1.0  0.63734  0.89660  0.82088  1.0000
  H   H1696     1.0  0.55021  0.93894  0.90678  1.0000
  C   C1067     1.0  0.66711  0.67439  0.81472  1.0000
  C   C1068     1.0  0.47772  0.90880  0.85998  1.0000
  C   C1069     1.0  0.65334  0.95544  0.92486  1.0000
  H   H1697     1.0  0.63546  0.71032  0.95705  1.0000
  C   C1070     1.0  0.87373  0.73045  0.97231  1.0000
  H   H1698     1.0  0.65658  0.77582  0.93587  1.0000
  H   H1699     1.0  0.67513  0.56396  0.95596  1.0000
  C   C1071     1.0  0.63949  0.96001  0.91410  1.0000
  H   H1700     1.0  0.64406  0.72720  0.83502  1.0000
  H   H1701     1.0  0.70804  0.79413  0.94613  1.0000
  H   H1702     1.0  0.62994  0.75004  0.84424  1.0000
  H   H1703     1.0  0.71448  0.71526  0.86491  1.0000
  H   H1704     1.0  0.66277  0.89122  0.91574  1.0000
  C   C1072     1.0  0.69652  0.77902  0.95375  1.0000
  C   C1073     1.0  0.66815  0.58126  0.96037  1.0000
  C   C1074     1.0  0.91163  0.59982  0.96052  1.0000
  H   H1705     1.0  0.68976  0.74753  0.93252  1.0000
  H   H1706     1.0  0.90992  0.64612  0.94773  1.0000
  H   H1707     1.0  0.51528  0.91484  0.91391  1.0000
  H   H1708     1.0  0.91564  0.59775  0.92974  1.0000
  H   H1709     1.0  0.57520  0.74226  0.84168  1.0000
  H   H1710     1.0  0.62617  0.74051  0.94041  1.0000
  H   H1711     1.0  0.63921  0.77426  0.95032  1.0000
  C   C1075     1.0  0.67898  0.73349  0.94049  1.0000
  H   H1712     1.0  0.58948  0.74348  0.81475  1.0000
  H   H1713     1.0  0.56303  0.70146  0.84342  1.0000
  H   H1714     1.0  0.64853  0.74434  0.96694  1.0000
  H   H1715     1.0  0.96655  0.61348  0.93945  1.0000
  S   S432      1.0  0.75446  0.96607  0.95685  1.0000
  H   H1716     1.0  0.66919  0.63443  0.85384  1.0000
  H   H1717     1.0  0.62867  0.74886  0.81683  1.0000
  H   H1718     1.0  0.63644  0.52404  0.96838  1.0000
  N   N107      1.0  0.92601  0.60998  0.94868  1.0000
  C   C1076     1.0  0.66198  0.93070  0.92550  1.0000
  C   C1077     1.0  0.60783  0.74702  0.82170  1.0000
  N   N108      1.0  0.51734  0.90427  0.89496  1.0000
  C   C1078     1.0  0.65572  0.73167  0.95990  1.0000
  H   H1719     1.0  0.94129  0.65084  0.93801  1.0000
  H   H1720     1.0  0.55563  0.93448  0.88488  1.0000
  H   H1721     1.0  0.49539  0.61660  0.86692  1.0000
  H   H1722     1.0  0.47761  0.87084  0.88550  1.0000
  C   C1079     1.0  0.48174  0.59150  0.86826  1.0000
  H   H1723     1.0  0.51576  0.94433  0.90378  1.0000
  H   H1724     1.0  0.63283  0.97916  0.91369  1.0000
  H   H1725     1.0  0.47977  0.54005  0.85038  1.0000
  C   C1080     1.0  0.48324  0.51033  0.86426  1.0000
  H   H1726     1.0  0.47287  0.87517  0.90147  1.0000
  H   H1727     1.0  0.47311  0.90426  0.89114  1.0000
  H   H1728     1.0  0.63086  0.59977  0.97274  1.0000
