data_image0
_chemical_formula_structural       HFeS2CFeHFeS2C2S2FeSCFeS2FeSFeCS2FeSFeS2FeSFeS3C6H5FeC3H4C6H5CH9C6H5NH6C2H2CNH2C2SHNHCHCH4C2HC3HSHNC4H11CHC2HSH3FeH6CH5FeS2FeS2FeSFeS2H3CHC6H4C6H7NCSC5H5C2H2C2HC2H2CH3CHCH2CHCNHSH5CHCHNHNSCHC2H8CH4CSH4CHCH2SHFeSHFeS2Fe2S3FeS2FeCFeHS2FeS2FeS2FeSFeS2HC6H4C6H4C6HSH4C3SH4C6H4C2HNC4H16CH4NSCHFeCH7C5HCNH2CH11CNHCHCHC2FeH10CSH3N2CH2FeSFeS2FeSFeS3H3SC3H2C2H3NC6H4C6H10CHCNH2SC2HCHCHSCSHCH3CHCHC4HSH4CH8CFeSFeS2FeSFeS3HSHFeS2HSHFeSHFeSFeHS2C7H4C6H4C6H4C2H4C3H4CHNC4H12NHCS2H3SFeH3CSCHNC3H7NHCHCH2FeCHCHSCH9CH4C2HCHC2FeS2FeS2FeSFeS2C7H4CH2CH3C6H4S2H3CNC2H3CHC2HNH4CH2CNCH5CH5CH7SH2FeS2FeSFeSFeS3FeS2HCSFeSCSHFeSFeH3SC6SH6C6H4C6H4C5H3C2HSHNC3H7CH4CHC2H5C2H2NH3SH2CH5CSH2CHCHFeNHSCHSHNH3FeH2CHC2H3FeS2FeS2HFeS3CHC6H2CHC6H4C2HCH2SNC4H12CH4FeSH3CNHFeS2FeS2FeSFeS3CHCFeS2FeSNH2C3FeC2H2CHC6H4C6H4C6H8CNCH7C2HCHNH2NCH2CHSH7CH8CH5CHC4H2CHSH4FeSFeSHFeSFeS2HFeS2FeSHFeCFeS3HC6HCH2C6H6C3H4C7HCHCH3C2H9SCH3SNHCHCHSCH4CH2NHCSC2SH2CHSCH6S2HCFeS2FeS2FeSFeS4HFeS2FeHS3C6H4C6H4C6H4C6NH7CH4C2H2CH3C2HNH2CH3FeHCH3CH4CH6C2HCH5SH2NHNC2H2NH5SHCH2NCH2Fe2SHS2FeSFeS2H2SCFeS2FeHFeSFeCS3CHC4HNH3C6H4C6H4SCH3SH2CHNH6SCSHCH6C4H7CHCHSCHCHCHNHC2FeH3CH5C2HFeSFeS2FeHS2H2CS2FeS2FeHFeHFe2S2C6H5C4H2C7H4FeHFeHCNCHCH4CHCHNSC3H6CHCSHCSH6CH7CHCH2CSH4CNH4NHCHCH2C2HNHCH3CH5SHFeS2FeS2FeSFeS3H3FeS2H5C6H4C6H4C6H3C6H6CHNH3CHNC4H10SH2CH10NC4H2CH2CHCHC2NCHS2H2SH2CHNCS2CHSFeS2FeSFe2SHSFeS2CFeS3HC3HCH2C6H4CHC2H4C6H5NCHC3HFeH3CH2Fe2HNC4H11CH5SH5NC2H2CHFeH4CH2CSHCNFeS2FeS2FeSFeS3C2H2FeS2CHSC4SH4CNC6H4C6H4C6H4NC4H12NC4H15NHCH4C2H3SHCHSCH9CH2CNHSHC2HSH4FeS2FeS2Fe2S3HC2HCHCHSHC6H4CHCH2C2SH3C2HCH2NH4C2H2CH2NHCHC2H2CH2CH6NCHCHFeS2FeS2FeSHS2FeS2FeSHSFeSHFeS2FeHFeHS2H2C6H5C3HCH4CHSH2C6H4C6H4NC4H13C4HCHNH3CSNH4CNCHC2H6FeSH5FeCH3SC2HCFeH10C2NHCFeS2FeS2HFeSHSC2H3CHCH2C3H4C6H5CH3CNCH6SCH2CSH2CH2CHCH3C2HNCH3C4SCNHCHSH3C2H3FeHCHFeSFeS2FeSFeS3FeH2FeS2FeH2S2FeS2HFeS2HFeC6H5C4HCH2CHC6H4C6H5NHNHC2H7SH3C2HCH2CSH3NH2CH2CHC2HCHNHSCHCH4CH3CH2FeH5CH5C3HSNH2CH2CH5FeS2FeS2Fe2S3H3C2HC4HCHC2NH2C2SC3H4C6H6CH6NH2CHCH3CHC2HCH5NC2HCH2CH2C2H2CH4CHNH3SC3H3CH3NH2CHC3H3SC2HCHSFeS2H2SFeSNFeS2FeSFeCS2FeSFeS2FeSFeS3FeS2Fe3CHSC6H4C6H4C2H3CHCHC6H4CHFeHCH2NHCH5SNC4H12CSHCH2CSHCH7CHCSHCH2S2FeCHC4SH4CHCHNH2CH4CH3C2H2SFeHSFeS2HFeS3H4SH2C2H2C5SH5C6H4C6H3NHSNH2CSH4CH3CHCNC4H13SHCFeSCH3CH2CHNHCHNC2HC2H2CH2C2H3CH2C2H9C2HFeS2FeSFeS2FeSFeS3FeS2FeH2FeS2FeS2FeS2Fe2S3C6H4CHC2H3FeH2C6H8C6H4C3HC2H4NC4H11CNCH3FeH3CSHCH2C2H2FeCHCHNCHSCH3CH5CH2S
_chemical_formula_sum              "H1536 Fe192 S384 C960 N96"
_cell_length_a       57.5137
_cell_length_b       57.7644
_cell_length_c       57.8926
_cell_angle_alpha    87.9315
_cell_angle_beta     88.0914
_cell_angle_gamma    88.7795

_space_group_name_H-M_alt    "P 1"
_space_group_IT_number       1

loop_
  _space_group_symop_operation_xyz
  'x, y, z'

loop_
  _atom_site_type_symbol
  _atom_site_label
  _atom_site_symmetry_multiplicity
  _atom_site_fract_x
  _atom_site_fract_y
  _atom_site_fract_z
  _atom_site_occupancy
  H   H1        1.0  0.33711  0.48614  0.18334  1.0000
  Fe  Fe1       1.0  0.35237  0.40934  0.08650  1.0000
  S   S1        1.0  0.31714  0.39202  0.08410  1.0000
  S   S2        1.0  0.36269  0.49569  0.10150  1.0000
  C   C1        1.0  0.23338  0.33783  0.16242  1.0000
  Fe  Fe2       1.0  0.07213  0.20223  0.25337  1.0000
  H   H2        1.0  0.20121  0.19936  0.15682  1.0000
  Fe  Fe3       1.0  0.09830  0.23236  0.21722  1.0000
  S   S3        1.0  0.12013  0.24831  0.24345  1.0000
  S   S4        1.0  0.10184  0.23851  0.17854  1.0000
  C   C2        1.0  0.35474  0.50530  0.12934  1.0000
  C   C3        1.0  0.29665  0.17615  0.09846  1.0000
  S   S5        1.0  0.10377  0.19572  0.23045  1.0000
  S   S6        1.0  0.06500  0.23764  0.23784  1.0000
  Fe  Fe4       1.0  0.27896  0.08237  0.24584  1.0000
  S   S7        1.0  0.24852  0.06034  0.23836  1.0000
  C   C4        1.0  0.16891  0.17233  0.25851  1.0000
  Fe  Fe5       1.0  0.27213  0.11149  0.20112  1.0000
  S   S8        1.0  0.24129  0.09159  0.19047  1.0000
  S   S9        1.0  0.28420  0.14480  0.18336  1.0000
  Fe  Fe6       1.0  0.23015  0.09344  0.22790  1.0000
  S   S10       1.0  0.19281  0.09921  0.23991  1.0000
  Fe  Fe7       1.0  0.26235  0.06013  0.20166  1.0000
  C   C5        1.0  0.19246  0.16754  0.25341  1.0000
  S   S11       1.0  0.25937  0.11555  0.23781  1.0000
  S   S12       1.0  0.29450  0.07990  0.20974  1.0000
  Fe  Fe8       1.0  0.21088  0.26398  0.05734  1.0000
  S   S13       1.0  0.22286  0.29415  0.07743  1.0000
  Fe  Fe9       1.0  0.22774  0.22835  0.09312  1.0000
  S   S14       1.0  0.24116  0.25514  0.11588  1.0000
  S   S15       1.0  0.22734  0.18989  0.10125  1.0000
  Fe  Fe10      1.0  0.20795  0.27443  0.10838  1.0000
  S   S16       1.0  0.19018  0.29192  0.13847  1.0000
  Fe  Fe11      1.0  0.25524  0.27265  0.08319  1.0000
  S   S17       1.0  0.29256  0.28489  0.08393  1.0000
  S   S18       1.0  0.19328  0.24625  0.08798  1.0000
  S   S19       1.0  0.24458  0.24385  0.06068  1.0000
  C   C6        1.0  0.24056  0.17799  0.12609  1.0000
  C   C7        1.0  0.24081  0.15389  0.12992  1.0000
  C   C8        1.0  0.25329  0.14360  0.14818  1.0000
  C   C9        1.0  0.26589  0.15737  0.16245  1.0000
  C   C10       1.0  0.26511  0.18153  0.15902  1.0000
  C   C11       1.0  0.25213  0.19185  0.14114  1.0000
  H   H3        1.0  0.23184  0.14305  0.11838  1.0000
  H   H4        1.0  0.25399  0.12494  0.15056  1.0000
  H   H5        1.0  0.27473  0.19223  0.17017  1.0000
  H   H6        1.0  0.25158  0.21046  0.13874  1.0000
  H   H7        1.0  0.33946  0.18936  0.08366  1.0000
  Fe  Fe12      1.0  0.08746  0.25043  0.26578  1.0000
  C   C12       1.0  0.16013  0.13241  0.25118  1.0000
  C   C13       1.0  0.18369  0.12767  0.24593  1.0000
  C   C14       1.0  0.19972  0.14547  0.24646  1.0000
  H   H8        1.0  0.26466  0.30957  0.12090  1.0000
  H   H9        1.0  0.27996  0.19980  0.06171  1.0000
  H   H10       1.0  0.14761  0.11872  0.25070  1.0000
  H   H11       1.0  0.20463  0.17061  0.16927  1.0000
  C   C15       1.0  0.16526  0.27761  0.14957  1.0000
  C   C16       1.0  0.15270  0.26356  0.13553  1.0000
  C   C17       1.0  0.13299  0.25205  0.14452  1.0000
  C   C18       1.0  0.12585  0.25431  0.16770  1.0000
  C   C19       1.0  0.13831  0.26846  0.18177  1.0000
  C   C20       1.0  0.15789  0.28024  0.17266  1.0000
  H   H12       1.0  0.15796  0.26188  0.11768  1.0000
  H   H13       1.0  0.12342  0.24104  0.13368  1.0000
  H   H14       1.0  0.13273  0.27059  0.19957  1.0000
  H   H15       1.0  0.16741  0.29123  0.18360  1.0000
  H   H16       1.0  0.29323  0.21587  0.12127  1.0000
  C   C21       1.0  0.33998  0.08526  0.27299  1.0000
  H   H17       1.0  0.29315  0.52432  0.16145  1.0000
  H   H18       1.0  0.13936  0.23373  0.09179  1.0000
  H   H19       1.0  0.18569  0.22178  0.03616  1.0000
  H   H20       1.0  0.35027  0.47136  0.14520  1.0000
  H   H21       1.0  0.22548  0.36135  0.12253  1.0000
  H   H22       1.0  0.33443  0.21994  0.08699  1.0000
  H   H23       1.0  0.22709  0.35591  0.16513  1.0000
  H   H24       1.0  0.21779  0.14216  0.24196  1.0000
  H   H25       1.0  0.30873  0.18901  0.05455  1.0000
  C   C22       1.0  0.31135  0.36208  0.08292  1.0000
  C   C23       1.0  0.28896  0.35542  0.07711  1.0000
  C   C24       1.0  0.28315  0.33186  0.07694  1.0000
  C   C25       1.0  0.29964  0.31468  0.08274  1.0000
  C   C26       1.0  0.32219  0.32130  0.08805  1.0000
  C   C27       1.0  0.32806  0.34489  0.08812  1.0000
  H   H26       1.0  0.27600  0.36859  0.07280  1.0000
  H   H27       1.0  0.26595  0.32698  0.07220  1.0000
  H   H28       1.0  0.33512  0.30813  0.09246  1.0000
  H   H29       1.0  0.34535  0.34978  0.09264  1.0000
  H   H30       1.0  0.14832  0.22683  0.06284  1.0000
  N   N1        1.0  0.30363  0.19945  0.08969  1.0000
  H   H31       1.0  0.30704  0.16222  0.08995  1.0000
  H   H32       1.0  0.10026  0.23177  0.04217  1.0000
  H   H33       1.0  0.29887  0.17392  0.11749  1.0000
  H   H34       1.0  0.08969  0.27208  0.07453  1.0000
  H   H35       1.0  0.29500  0.23512  0.09621  1.0000
  H   H36       1.0  0.27833  0.34977  0.12443  1.0000
  C   C28       1.0  0.34176  0.49826  0.16933  1.0000
  C   C29       1.0  0.29881  0.20207  0.06479  1.0000
  H   H37       1.0  0.21380  0.03972  0.11876  1.0000
  H   H38       1.0  0.20507  0.18108  0.25446  1.0000
  C   C30       1.0  0.25501  0.31180  0.13768  1.0000
  N   N2        1.0  0.24697  0.33605  0.14040  1.0000
  H   H39       1.0  0.14200  0.27591  0.08092  1.0000
  H   H40       1.0  0.30347  0.21962  0.05772  1.0000
  C   C31       1.0  0.23208  0.34321  0.12096  1.0000
  C   C32       1.0  0.32872  0.20239  0.09316  1.0000
  S   S20       1.0  0.35598  0.44155  0.06357  1.0000
  H   H41       1.0  0.26682  0.30595  0.15167  1.0000
  N   N3        1.0  0.12001  0.25163  0.06518  1.0000
  H   H42       1.0  0.27126  0.21557  0.09996  1.0000
  C   C33       1.0  0.09992  0.25671  0.08091  1.0000
  H   H43       1.0  0.33283  0.20036  0.11182  1.0000
  C   C34       1.0  0.26734  0.35125  0.14053  1.0000
  H   H44       1.0  0.08792  0.24182  0.08264  1.0000
  H   H45       1.0  0.33594  0.08597  0.25485  1.0000
  H   H46       1.0  0.21777  0.32665  0.16271  1.0000
  H   H47       1.0  0.24174  0.34218  0.10407  1.0000
  C   C35       1.0  0.23453  0.03375  0.14889  1.0000
  C   C36       1.0  0.13557  0.27172  0.06368  1.0000
  H   H48       1.0  0.27801  0.17305  0.09523  1.0000
  C   C37       1.0  0.29022  0.21730  0.10237  1.0000
  C   C38       1.0  0.13292  0.23100  0.07420  1.0000
  C   C39       1.0  0.11171  0.24708  0.04189  1.0000
  H   H49       1.0  0.24007  0.29986  0.13824  1.0000
  S   S21       1.0  0.16037  0.20048  0.26606  1.0000
  H   H50       1.0  0.18001  0.17790  0.15195  1.0000
  N   N4        1.0  0.17822  0.19164  0.18607  1.0000
  C   C40       1.0  0.16135  0.21031  0.17989  1.0000
  C   C41       1.0  0.16556  0.17157  0.19633  1.0000
  C   C42       1.0  0.19436  0.20019  0.20302  1.0000
  C   C43       1.0  0.19158  0.18457  0.16512  1.0000
  H   H51       1.0  0.15111  0.21615  0.19539  1.0000
  H   H52       1.0  0.14860  0.20452  0.16736  1.0000
  H   H53       1.0  0.17023  0.22576  0.17201  1.0000
  H   H54       1.0  0.17772  0.15727  0.20174  1.0000
  H   H55       1.0  0.15498  0.17650  0.21192  1.0000
  H   H56       1.0  0.15340  0.16449  0.18395  1.0000
  H   H57       1.0  0.20735  0.18654  0.20815  1.0000
  H   H58       1.0  0.18482  0.20568  0.21906  1.0000
  H   H59       1.0  0.20412  0.21541  0.19588  1.0000
  H   H60       1.0  0.23706  0.05197  0.15147  1.0000
  H   H61       1.0  0.27870  0.34665  0.15527  1.0000
  C   C44       1.0  0.34000  0.52218  0.17277  1.0000
  H   H62       1.0  0.21668  0.33189  0.12024  1.0000
  C   C45       1.0  0.34919  0.48983  0.14773  1.0000
  C   C46       1.0  0.15267  0.15481  0.25712  1.0000
  H   H63       1.0  0.10561  0.26045  0.09858  1.0000
  S   S22       1.0  0.04373  0.17609  0.26173  1.0000
  H   H64       1.0  0.24392  0.33225  0.17748  1.0000
  H   H65       1.0  0.26199  0.36980  0.14185  1.0000
  H   H66       1.0  0.13445  0.15839  0.26107  1.0000
  Fe  Fe13      1.0  0.12370  0.21188  0.25804  1.0000
  H   H67       1.0  0.34815  0.38544  0.04497  1.0000
  H   H68       1.0  0.12181  0.21543  0.07530  1.0000
  H   H69       1.0  0.12662  0.28750  0.05643  1.0000
  H   H70       1.0  0.15110  0.26831  0.05225  1.0000
  H   H71       1.0  0.24080  0.09071  0.27703  1.0000
  H   H72       1.0  0.10178  0.26219  0.03451  1.0000
  C   C47       1.0  0.33951  0.37834  0.02991  1.0000
  H   H73       1.0  0.27069  0.51911  0.14167  1.0000
  H   H74       1.0  0.33969  0.35915  0.03241  1.0000
  H   H75       1.0  0.32104  0.38451  0.03088  1.0000
  H   H76       1.0  0.12649  0.24351  0.02958  1.0000
  H   H77       1.0  0.13439  0.45178  0.48126  1.0000
  Fe  Fe14      1.0  0.08709  0.34936  0.39966  1.0000
  S   S23       1.0  0.06336  0.35346  0.43116  1.0000
  S   S24       1.0  0.09159  0.31293  0.38608  1.0000
  Fe  Fe15      1.0  0.10588  0.39850  0.40315  1.0000
  S   S25       1.0  0.08406  0.40555  0.43480  1.0000
  S   S26       1.0  0.13160  0.42464  0.38836  1.0000
  Fe  Fe16      1.0  0.09417  0.36953  0.44670  1.0000
  S   S27       1.0  0.10224  0.36253  0.48429  1.0000
  Fe  Fe17      1.0  0.05541  0.38908  0.41621  1.0000
  S   S28       1.0  0.11837  0.36355  0.41638  1.0000
  S   S29       1.0  0.07683  0.38398  0.38335  1.0000
  H   H78       1.0  0.35491  0.08288  0.33812  1.0000
  H   H79       1.0  0.07625  0.27614  0.46233  1.0000
  H   H80       1.0  0.13340  0.44754  0.45071  1.0000
  C   C48       1.0  0.07598  0.45773  0.36170  1.0000
  H   H81       1.0  0.10502  0.27908  0.49405  1.0000
  C   C49       1.0  0.12773  0.45451  0.39317  1.0000
  C   C50       1.0  0.11059  0.46259  0.40875  1.0000
  C   C51       1.0  0.10701  0.48652  0.41129  1.0000
  C   C52       1.0  0.12054  0.50257  0.39834  1.0000
  C   C53       1.0  0.13814  0.49452  0.38324  1.0000
  C   C54       1.0  0.14170  0.47054  0.38068  1.0000
  H   H82       1.0  0.09990  0.45047  0.41865  1.0000
  H   H83       1.0  0.09358  0.49270  0.42321  1.0000
  H   H84       1.0  0.14865  0.50677  0.37316  1.0000
  H   H85       1.0  0.15506  0.46443  0.36863  1.0000
  C   C55       1.0  0.07983  0.29134  0.31151  1.0000
  C   C56       1.0  0.09034  0.27601  0.32745  1.0000
  C   C57       1.0  0.09388  0.28292  0.35017  1.0000
  C   C58       1.0  0.08722  0.30527  0.35712  1.0000
  C   C59       1.0  0.07682  0.32063  0.34113  1.0000
  C   C60       1.0  0.07300  0.31361  0.31851  1.0000
  H   H86       1.0  0.09568  0.25882  0.32232  1.0000
  H   H87       1.0  0.10195  0.27092  0.36239  1.0000
  H   H88       1.0  0.07156  0.33784  0.34623  1.0000
  H   H89       1.0  0.15384  0.42173  0.50681  1.0000
  H   H90       1.0  0.25581  0.12551  0.32671  1.0000
  H   H91       1.0  0.18954  0.41965  0.46730  1.0000
  H   H92       1.0  0.04529  0.42386  0.36990  1.0000
  N   N5        1.0  0.23074  0.10597  0.30909  1.0000
  C   C61       1.0  0.32785  0.08046  0.31323  1.0000
  S   S30       1.0  0.09282  0.21512  0.28267  1.0000
  C   C62       1.0  0.17234  0.33490  0.51044  1.0000
  C   C63       1.0  0.16933  0.33883  0.48663  1.0000
  C   C64       1.0  0.14808  0.34766  0.47837  1.0000
  C   C65       1.0  0.12954  0.35224  0.49387  1.0000
  C   C66       1.0  0.13258  0.34848  0.51766  1.0000
  H   H93       1.0  0.06485  0.32558  0.30631  1.0000
  H   H94       1.0  0.17726  0.44581  0.47890  1.0000
  H   H95       1.0  0.14611  0.35074  0.46003  1.0000
  H   H96       1.0  0.16391  0.39036  0.45229  1.0000
  H   H97       1.0  0.22540  0.08398  0.33941  1.0000
  C   C67       1.0  0.08583  0.29022  0.45278  1.0000
  C   C68       1.0  0.14955  0.40358  0.45191  1.0000
  H   H98       1.0  0.14023  0.26630  0.45608  1.0000
  H   H99       1.0  0.14151  0.30868  0.44845  1.0000
  C   C69       1.0  0.12140  0.26716  0.45211  1.0000
  C   C70       1.0  0.25500  0.11114  0.31451  1.0000
  H   H100      1.0  0.11489  0.32558  0.44923  1.0000
  C   C71       1.0  0.11322  0.29321  0.48328  1.0000
  C   C72       1.0  0.13310  0.43842  0.46800  1.0000
  H   H101      1.0  0.07732  0.30700  0.45743  1.0000
  H   H102      1.0  0.11997  0.26421  0.43328  1.0000
  C   C73       1.0  0.12262  0.30844  0.44486  1.0000
  H   H103      1.0  0.12102  0.30655  0.42589  1.0000
  H   H104      1.0  0.17613  0.44105  0.44843  1.0000
  H   H105      1.0  0.31426  0.07749  0.32629  1.0000
  C   C74       1.0  0.35090  0.08347  0.31999  1.0000
  H   H106      1.0  0.14960  0.41177  0.43417  1.0000
  C   C75       1.0  0.17478  0.43238  0.46592  1.0000
  H   H107      1.0  0.13402  0.40115  0.49660  1.0000
  H   H108      1.0  0.08438  0.44159  0.36892  1.0000
  C   C76       1.0  0.23067  0.08652  0.29320  1.0000
  H   H109      1.0  0.21272  0.08245  0.28811  1.0000
  C   C77       1.0  0.21977  0.12666  0.29792  1.0000
  N   N6        1.0  0.15217  0.42093  0.46971  1.0000
  H   H110      1.0  0.22966  0.13212  0.28187  1.0000
  S   S31       1.0  0.19907  0.32318  0.51996  1.0000
  H   H111      1.0  0.11280  0.25255  0.46181  1.0000
  H   H112      1.0  0.08343  0.28823  0.43390  1.0000
  H   H113      1.0  0.13186  0.29389  0.48790  1.0000
  H   H114      1.0  0.21714  0.11388  0.34298  1.0000
  H   H115      1.0  0.23883  0.07053  0.30093  1.0000
  C   C78       1.0  0.21752  0.09956  0.33060  1.0000
  H   H116      1.0  0.10484  0.30986  0.48857  1.0000
  C   C79       1.0  0.15119  0.40932  0.49292  1.0000
  H   H117      1.0  0.11577  0.43027  0.47056  1.0000
  N   N7        1.0  0.11076  0.28971  0.45829  1.0000
  H   H118      1.0  0.16474  0.39531  0.49455  1.0000
  N   N8        1.0  0.05163  0.46035  0.37040  1.0000
  S   S32       1.0  0.07388  0.28317  0.28307  1.0000
  C   C80       1.0  0.04148  0.48228  0.36093  1.0000
  H   H119      1.0  0.05924  0.44478  0.40363  1.0000
  C   C81       1.0  0.32227  0.08138  0.28972  1.0000
  C   C82       1.0  0.03798  0.44065  0.36309  1.0000
  H   H120      1.0  0.13290  0.39427  0.45464  1.0000
  H   H121      1.0  0.18356  0.33501  0.47457  1.0000
  H   H122      1.0  0.07709  0.45687  0.34254  1.0000
  H   H123      1.0  0.03497  0.22286  0.31156  1.0000
  H   H124      1.0  0.19916  0.09553  0.32697  1.0000
  H   H125      1.0  0.21905  0.14165  0.30948  1.0000
  H   H126      1.0  0.04040  0.25340  0.31376  1.0000
  H   H127      1.0  0.08671  0.47254  0.36654  1.0000
  C   C83       1.0  0.05105  0.46076  0.39592  1.0000
  H   H128      1.0  0.20164  0.12322  0.29294  1.0000
  H   H129      1.0  0.06041  0.47589  0.40208  1.0000
  H   H130      1.0  0.26411  0.09569  0.32230  1.0000
  H   H131      1.0  0.26533  0.11631  0.29858  1.0000
  C   C84       1.0  0.15393  0.33993  0.52595  1.0000
  S   S33       1.0  0.29312  0.07691  0.28210  1.0000
  H   H132      1.0  0.04160  0.48260  0.34170  1.0000
  H   H133      1.0  0.05013  0.23852  0.28872  1.0000
  H   H134      1.0  0.05145  0.49749  0.36616  1.0000
  H   H135      1.0  0.03777  0.43983  0.34394  1.0000
  C   C85       1.0  0.03562  0.23976  0.30173  1.0000
  H   H136      1.0  0.03287  0.46172  0.40314  1.0000
  C   C86       1.0  0.36306  0.08795  0.27973  1.0000
  H   H137      1.0  0.31886  0.20537  0.63595  1.0000
  H   H138      1.0  0.15602  0.33688  0.54431  1.0000
  S   S34       1.0  0.32703  0.20273  0.55860  1.0000
  H   H139      1.0  0.32868  0.19756  0.60762  1.0000
  Fe  Fe18      1.0  0.27503  0.47529  0.75049  1.0000
  S   S35       1.0  0.24659  0.50123  0.74170  1.0000
  H   H140      1.0  0.19379  0.49097  0.67763  1.0000
  Fe  Fe19      1.0  0.27384  0.45420  0.70317  1.0000
  S   S36       1.0  0.24632  0.47913  0.69035  1.0000
  S   S37       1.0  0.28658  0.42342  0.68305  1.0000
  Fe  Fe20      1.0  0.26619  0.50613  0.70777  1.0000
  Fe  Fe21      1.0  0.22910  0.47209  0.72511  1.0000
  S   S38       1.0  0.19026  0.46746  0.72426  1.0000
  S   S39       1.0  0.29579  0.48191  0.71751  1.0000
  S   S40       1.0  0.25540  0.44554  0.73701  1.0000
  Fe  Fe22      1.0  0.09061  0.34266  0.71800  1.0000
  S   S41       1.0  0.11362  0.32442  0.74371  1.0000
  S   S42       1.0  0.09365  0.34106  0.67921  1.0000
  Fe  Fe23      1.0  0.06558  0.37201  0.75429  1.0000
  C   C87       1.0  0.35426  0.10345  0.64228  1.0000
  Fe  Fe24      1.0  0.11724  0.35986  0.75774  1.0000
  H   H141      1.0  0.28447  0.22765  0.55077  1.0000
  S   S43       1.0  0.09643  0.37820  0.73056  1.0000
  S   S44       1.0  0.05765  0.33786  0.73949  1.0000
  Fe  Fe25      1.0  0.19950  0.30566  0.60763  1.0000
  S   S45       1.0  0.18624  0.33665  0.58711  1.0000
  S   S46       1.0  0.17938  0.28562  0.63545  1.0000
  Fe  Fe26      1.0  0.24942  0.31011  0.58873  1.0000
  S   S47       1.0  0.24007  0.34162  0.56670  1.0000
  S   S48       1.0  0.28712  0.29910  0.59433  1.0000
  Fe  Fe27      1.0  0.21901  0.35323  0.59759  1.0000
  S   S49       1.0  0.21788  0.39035  0.60846  1.0000
  Fe  Fe28      1.0  0.20818  0.32233  0.55791  1.0000
  S   S50       1.0  0.23057  0.32346  0.62028  1.0000
  S   S51       1.0  0.21916  0.28963  0.57770  1.0000
  H   H142      1.0  0.33146  0.48078  0.75767  1.0000
  C   C88       1.0  0.11699  0.32487  0.66722  1.0000
  C   C89       1.0  0.12912  0.30816  0.68042  1.0000
  C   C90       1.0  0.14796  0.29579  0.67040  1.0000
  C   C91       1.0  0.15496  0.30036  0.64729  1.0000
  C   C92       1.0  0.14282  0.31708  0.63412  1.0000
  C   C93       1.0  0.12376  0.32914  0.64401  1.0000
  H   H143      1.0  0.12376  0.30447  0.69821  1.0000
  H   H144      1.0  0.15722  0.28278  0.68063  1.0000
  H   H145      1.0  0.14779  0.32039  0.61618  1.0000
  H   H146      1.0  0.11431  0.34191  0.63367  1.0000
  C   C94       1.0  0.26580  0.41412  0.66400  1.0000
  C   C95       1.0  0.26259  0.39038  0.66136  1.0000
  C   C96       1.0  0.24757  0.38279  0.64465  1.0000
  C   C97       1.0  0.23575  0.39896  0.63053  1.0000
  C   C98       1.0  0.23838  0.42265  0.63373  1.0000
  C   C99       1.0  0.25341  0.43023  0.65036  1.0000
  H   H147      1.0  0.27191  0.37787  0.67213  1.0000
  H   H148      1.0  0.24529  0.36449  0.64264  1.0000
  H   H149      1.0  0.22924  0.43524  0.62289  1.0000
  H   H150      1.0  0.25608  0.44854  0.65198  1.0000
  C   C100      1.0  0.18094  0.44024  0.73502  1.0000
  C   C101      1.0  0.19259  0.42844  0.75283  1.0000
  C   C102      1.0  0.18388  0.40755  0.76239  1.0000
  C   C103      1.0  0.16364  0.39821  0.75402  1.0000
  C   C104      1.0  0.15257  0.40955  0.73554  1.0000
  C   C105      1.0  0.16098  0.43069  0.72628  1.0000
  H   H151      1.0  0.20794  0.43574  0.75978  1.0000
  S   S52       1.0  0.15228  0.37286  0.76751  1.0000
  H   H152      1.0  0.13750  0.40213  0.72845  1.0000
  H   H153      1.0  0.15208  0.43960  0.71228  1.0000
  H   H154      1.0  0.30408  0.36856  0.64235  1.0000
  H   H155      1.0  0.29396  0.05741  0.73850  1.0000
  C   C106      1.0  0.33775  0.06939  0.62622  1.0000
  C   C107      1.0  0.33660  0.05822  0.64818  1.0000
  C   C108      1.0  0.34676  0.09181  0.62322  1.0000
  S   S53       1.0  0.35632  0.14495  0.57227  1.0000
  H   H156      1.0  0.25371  0.09194  0.72886  1.0000
  H   H157      1.0  0.33181  0.06057  0.61140  1.0000
  H   H158      1.0  0.31141  0.16445  0.58875  1.0000
  H   H159      1.0  0.27729  0.03696  0.70593  1.0000
  C   C109      1.0  0.31668  0.22980  0.56852  1.0000
  C   C110      1.0  0.32952  0.24305  0.58311  1.0000
  C   C111      1.0  0.32025  0.26426  0.59095  1.0000
  C   C112      1.0  0.29804  0.27222  0.58448  1.0000
  C   C113      1.0  0.28514  0.25881  0.57012  1.0000
  C   C114      1.0  0.29450  0.23778  0.56209  1.0000
  H   H160      1.0  0.34666  0.23712  0.58811  1.0000
  H   H161      1.0  0.33036  0.27457  0.60201  1.0000
  H   H162      1.0  0.26809  0.26481  0.56491  1.0000
  H   H163      1.0  0.34771  0.10010  0.60617  1.0000
  C   C115      1.0  0.28468  0.35963  0.60209  1.0000
  C   C116      1.0  0.25582  0.07598  0.71872  1.0000
  H   H164      1.0  0.07754  0.42983  0.74311  1.0000
  N   N9        1.0  0.18030  0.36696  0.68160  1.0000
  C   C117      1.0  0.15844  0.37800  0.67359  1.0000
  C   C118      1.0  0.19683  0.38505  0.68720  1.0000
  C   C119      1.0  0.19066  0.35266  0.66309  1.0000
  C   C120      1.0  0.17521  0.35211  0.70243  1.0000
  H   H165      1.0  0.14549  0.36479  0.66949  1.0000
  H   H166      1.0  0.16152  0.38900  0.65763  1.0000
  H   H167      1.0  0.15020  0.38906  0.68703  1.0000
  H   H168      1.0  0.20083  0.39669  0.67187  1.0000
  H   H169      1.0  0.18977  0.39601  0.70132  1.0000
  H   H170      1.0  0.21365  0.37732  0.69299  1.0000
  H   H171      1.0  0.17873  0.33880  0.65847  1.0000
  H   H172      1.0  0.20720  0.34404  0.66842  1.0000
  H   H173      1.0  0.19448  0.36326  0.64701  1.0000
  H   H174      1.0  0.19126  0.34341  0.70898  1.0000
  H   H175      1.0  0.16274  0.33830  0.69876  1.0000
  H   H176      1.0  0.16730  0.36229  0.71677  1.0000
  H   H177      1.0  0.07515  0.47005  0.77658  1.0000
  H   H178      1.0  0.27868  0.20769  0.62295  1.0000
  H   H179      1.0  0.30574  0.39730  0.58390  1.0000
  H   H180      1.0  0.28771  0.19924  0.59454  1.0000
  C   C121      1.0  0.31686  0.38133  0.58563  1.0000
  H   H181      1.0  0.31609  0.37209  0.56911  1.0000
  H   H182      1.0  0.29566  0.08841  0.73719  1.0000
  H   H183      1.0  0.32793  0.38494  0.63014  1.0000
  H   H184      1.0  0.31785  0.33345  0.62160  1.0000
  N   N10       1.0  0.27949  0.07388  0.70815  1.0000
  S   S54       1.0  0.04045  0.40199  0.76121  1.0000
  C   C122      1.0  0.29674  0.07275  0.72655  1.0000
  H   H185      1.0  0.16127  0.50267  0.70379  1.0000
  Fe  Fe29      1.0  0.36024  0.18369  0.56902  1.0000
  C   C123      1.0  0.33583  0.48286  0.77548  1.0000
  H   H186      1.0  0.33623  0.17937  0.63212  1.0000
  H   H187      1.0  0.28321  0.11056  0.70190  1.0000
  H   H188      1.0  0.32009  0.14621  0.61289  1.0000
  H   H189      1.0  0.33511  0.38678  0.58754  1.0000
  H   H190      1.0  0.25177  0.52091  0.65758  1.0000
  H   H191      1.0  0.09035  0.45770  0.73840  1.0000
  H   H192      1.0  0.27264  0.37494  0.60058  1.0000
  C   C124      1.0  0.19077  0.50729  0.66719  1.0000
  C   C125      1.0  0.34438  0.06975  0.66723  1.0000
  C   C126      1.0  0.09331  0.44003  0.74614  1.0000
  C   C127      1.0  0.30996  0.37935  0.62702  1.0000
  C   C128      1.0  0.32390  0.34538  0.60718  1.0000
  H   H193      1.0  0.34230  0.34967  0.61010  1.0000
  C   C129      1.0  0.28240  0.19242  0.61213  1.0000
  N   N11       1.0  0.30888  0.36644  0.60551  1.0000
  H   H194      1.0  0.29858  0.39522  0.62640  1.0000
  H   H195      1.0  0.32353  0.33532  0.59112  1.0000
  C   C130      1.0  0.32205  0.19042  0.62460  1.0000
  H   H196      1.0  0.26923  0.05301  0.68022  1.0000
  H   H197      1.0  0.26586  0.18310  0.61036  1.0000
  H   H198      1.0  0.11560  0.40745  0.77139  1.0000
  H   H199      1.0  0.27675  0.15737  0.64357  1.0000
  H   H200      1.0  0.10800  0.43183  0.73631  1.0000
  H   H201      1.0  0.29030  0.14705  0.60422  1.0000
  H   H202      1.0  0.30643  0.15591  0.65258  1.0000
  H   H203      1.0  0.34388  0.06123  0.68416  1.0000
  H   H204      1.0  0.27143  0.09550  0.67836  1.0000
  H   H205      1.0  0.27806  0.34821  0.61665  1.0000
  H   H206      1.0  0.28348  0.34969  0.58610  1.0000
  C   C131      1.0  0.28132  0.05255  0.69484  1.0000
  N   N12       1.0  0.30074  0.17706  0.62198  1.0000
  H   H207      1.0  0.28894  0.18168  0.65712  1.0000
  C   C132      1.0  0.29281  0.16757  0.64487  1.0000
  H   H208      1.0  0.25199  0.06094  0.73080  1.0000
  C   C133      1.0  0.28416  0.09412  0.69244  1.0000
  H   H209      1.0  0.24232  0.07652  0.70538  1.0000
  C   C134      1.0  0.35289  0.09240  0.66431  1.0000
  C   C135      1.0  0.30584  0.15781  0.60633  1.0000
  Fe  Fe30      1.0  0.08121  0.32225  0.76670  1.0000
  H   H210      1.0  0.20131  0.51507  0.71105  1.0000
  H   H211      1.0  0.31483  0.07133  0.71918  1.0000
  H   H212      1.0  0.17876  0.50333  0.65325  1.0000
  H   H213      1.0  0.29918  0.05000  0.68735  1.0000
  H   H214      1.0  0.30183  0.09275  0.68401  1.0000
  H   H215      1.0  0.14597  0.51501  0.67964  1.0000
  H   H216      1.0  0.29870  0.51866  0.76415  1.0000
  H   H217      1.0  0.20771  0.51207  0.65873  1.0000
  H   H218      1.0  0.19266  0.39878  0.77657  1.0000
  H   H219      1.0  0.03372  0.38472  0.71539  1.0000
  C   C136      1.0  0.15895  0.51871  0.69278  1.0000
  S   S55       1.0  0.32432  0.03039  0.65116  1.0000
  H   H220      1.0  0.33313  0.51808  0.73779  1.0000
  H   H221      1.0  0.13485  0.44535  0.76581  1.0000
  H   H222      1.0  0.35882  0.10125  0.67911  1.0000
  N   N13       1.0  0.09803  0.44069  0.77107  1.0000
  N   N14       1.0  0.18127  0.52601  0.68173  1.0000
  C   C137      1.0  0.11939  0.45386  0.77425  1.0000
  H   H223      1.0  0.11792  0.47179  0.76670  1.0000
  H   H224      1.0  0.11834  0.35204  0.52980  1.0000
  Fe  Fe31      1.0  0.05603  0.20690  0.93584  1.0000
  S   S56       1.0  0.06402  0.19678  0.89926  1.0000
  Fe  Fe32      1.0  0.10669  0.19899  0.95101  1.0000
  S   S57       1.0  0.11861  0.18806  0.91561  1.0000
  S   S58       1.0  0.12941  0.19375  0.98235  1.0000
  Fe  Fe33      1.0  0.09624  0.21802  0.90238  1.0000
  S   S59       1.0  0.11128  0.24629  0.87840  1.0000
  Fe  Fe34      1.0  0.08568  0.16771  0.91541  1.0000
  S   S60       1.0  0.08204  0.12884  0.91248  1.0000
  S   S61       1.0  0.08662  0.23022  0.93805  1.0000
  S   S62       1.0  0.07522  0.17671  0.95176  1.0000
  H   H225      1.0  0.13493  0.09776  0.96441  1.0000
  H   H226      1.0  0.13835  0.08955  0.93476  1.0000
  H   H227      1.0  0.35905  0.41768  0.98905  1.0000
  S   S63       1.0  0.13737  0.05906  0.84719  1.0000
  C   C138      1.0  0.13417  0.10432  0.94615  1.0000
  C   C139      1.0  0.14741  0.21521  0.99291  1.0000
  C   C140      1.0  0.14794  0.23770  0.98313  1.0000
  H   H228      1.0  0.17993  0.10139  0.93545  1.0000
  H   H229      1.0  0.08082  0.45244  0.80217  1.0000
  C   C141      1.0  0.32475  0.48201  0.81613  1.0000
  C   C142      1.0  0.16109  0.20962  0.01208  1.0000
  H   H230      1.0  0.13753  0.24221  0.96834  1.0000
  H   H231      1.0  0.15318  0.11691  0.90502  1.0000
  H   H232      1.0  0.13137  0.13809  0.91267  1.0000
  N   N15       1.0  0.35132  0.38580  0.00791  1.0000
  C   C143      1.0  0.09826  0.11016  0.89426  1.0000
  C   C144      1.0  0.10945  0.11811  0.87376  1.0000
  C   C145      1.0  0.12163  0.10232  0.85955  1.0000
  C   C146      1.0  0.12319  0.07866  0.86603  1.0000
  C   C147      1.0  0.11260  0.07094  0.88690  1.0000
  C   C148      1.0  0.09984  0.08653  0.90070  1.0000
  H   H233      1.0  0.10825  0.13626  0.86856  1.0000
  H   H234      1.0  0.12973  0.10844  0.84339  1.0000
  H   H235      1.0  0.11378  0.05287  0.89220  1.0000
  H   H236      1.0  0.09122  0.08026  0.91654  1.0000
  C   C149      1.0  0.09984  0.25746  0.85216  1.0000
  C   C150      1.0  0.08278  0.24592  0.84065  1.0000
  C   C151      1.0  0.07366  0.25580  0.82017  1.0000
  C   C152      1.0  0.08142  0.27730  0.81109  1.0000
  C   C153      1.0  0.09865  0.28870  0.82249  1.0000
  C   C154      1.0  0.10784  0.27877  0.84290  1.0000
  H   H237      1.0  0.07679  0.22931  0.84739  1.0000
  H   H238      1.0  0.06051  0.24678  0.81128  1.0000
  H   H239      1.0  0.10483  0.30520  0.81562  1.0000
  H   H240      1.0  0.12116  0.28774  0.85161  1.0000
  H   H241      1.0  0.17565  0.11011  0.96482  1.0000
  H   H242      1.0  0.12322  0.45501  0.79289  1.0000
  H   H243      1.0  0.06547  0.27844  0.88265  1.0000
  H   H244      1.0  0.15443  0.15853  0.95262  1.0000
  H   H245      1.0  0.03466  0.24560  0.85705  1.0000
  H   H246      1.0  0.12494  0.14912  0.95313  1.0000
  C   C155      1.0  0.35866  0.48840  0.78108  1.0000
  H   H247      1.0  0.34807  0.38126  0.97151  1.0000
  C   C156      1.0  0.07809  0.45196  0.78326  1.0000
  N   N16       1.0  0.15016  0.12374  0.94137  1.0000
  H   H248      1.0  0.06171  0.44240  0.78095  1.0000
  H   H249      1.0  0.05533  0.26940  0.91124  1.0000
  S   S64       1.0  0.06843  0.28964  0.78611  1.0000
  C   C157      1.0  0.14320  0.14324  0.95613  1.0000
  C   C158      1.0  0.34766  0.48719  0.82177  1.0000
  H   H250      1.0  0.08086  0.05035  0.85392  1.0000
  C   C159      1.0  0.17515  0.22634  0.02147  1.0000
  H   H251      1.0  0.06065  0.04263  0.81770  1.0000
  C   C160      1.0  0.31866  0.48007  0.79298  1.0000
  H   H252      1.0  0.10554  0.41658  0.79926  1.0000
  S   S65       1.0  0.08685  0.35627  0.78308  1.0000
  C   C161      1.0  0.35049  0.41137  0.00557  1.0000
  S   S66       1.0  0.19191  0.27072  0.02400  1.0000
  H   H253      1.0  0.31160  0.47973  0.82979  1.0000
  C   C162      1.0  0.17419  0.11605  0.94641  1.0000
  H   H254      1.0  0.16223  0.27184  0.98498  1.0000
  H   H255      1.0  0.14423  0.13842  0.97486  1.0000
  H   H256      1.0  0.16132  0.14565  0.91238  1.0000
  C   C163      1.0  0.16196  0.25446  0.99259  1.0000
  H   H257      1.0  0.11580  0.10976  0.94312  1.0000
  C   C164      1.0  0.14905  0.13139  0.91679  1.0000
  H   H258      1.0  0.18666  0.13037  0.94308  1.0000
  C   C165      1.0  0.10125  0.41684  0.78065  1.0000
  C   C166      1.0  0.17554  0.24888  0.01183  1.0000
  C   C167      1.0  0.07045  0.03627  0.86261  1.0000
  C   C168      1.0  0.33945  0.37600  0.98835  1.0000
  H   H259      1.0  0.33231  0.41834  0.00615  1.0000
  S   S67       1.0  0.28931  0.47499  0.78669  1.0000
  H   H260      1.0  0.06092  0.24846  0.88958  1.0000
  H   H261      1.0  0.03436  0.03650  0.83426  1.0000
  H   H262      1.0  0.35202  0.48894  0.83965  1.0000
  H   H263      1.0  0.03943  0.27557  0.84946  1.0000
  C   C169      1.0  0.05381  0.26619  0.89251  1.0000
  H   H264      1.0  0.03180  0.30538  0.87844  1.0000
  H   H265      1.0  0.05445  0.04437  0.87038  1.0000
  H   H266      1.0  0.35977  0.41925  0.01976  1.0000
  H   H267      1.0  0.32095  0.38205  0.98786  1.0000
  H   H268      1.0  0.33957  0.35673  0.98965  1.0000
  H   H269      1.0  0.16083  0.19224  0.01969  1.0000
  H   H270      1.0  0.08525  0.40663  0.77918  1.0000
  H   H271      1.0  0.08093  0.02888  0.87703  1.0000
  C   C170      1.0  0.05093  0.02870  0.82741  1.0000
  Fe  Fe35      1.0  0.19024  0.92546  0.05312  1.0000
  S   S68       1.0  0.19386  0.89336  0.07638  1.0000
  Fe  Fe36      1.0  0.20174  0.95765  0.09157  1.0000
  S   S69       1.0  0.20657  0.92818  0.11700  1.0000
  S   S70       1.0  0.20352  0.99502  0.10188  1.0000
  Fe  Fe37      1.0  0.22593  0.91023  0.08833  1.0000
  S   S71       1.0  0.26066  0.89422  0.09846  1.0000
  Fe  Fe38      1.0  0.17406  0.91426  0.10285  1.0000
  S   S72       1.0  0.14829  0.90309  0.13129  1.0000
  S   S73       1.0  0.22368  0.94107  0.06353  1.0000
  S   S74       1.0  0.16795  0.94489  0.07886  1.0000
  H   H272      1.0  0.11831  0.94785  0.14328  1.0000
  S   S75       1.0  0.33164  0.74957  0.11516  1.0000
  H   H273      1.0  0.10484  0.96925  0.12444  1.0000
  Fe  Fe39      1.0  0.32481  0.77349  0.08448  1.0000
  S   S76       1.0  0.28926  0.78983  0.07750  1.0000
  S   S77       1.0  0.33893  0.74753  0.05926  1.0000
  H   H274      1.0  0.15018  0.98801  0.10241  1.0000
  S   S78       1.0  0.31884  0.63477  0.22311  1.0000
  H   H275      1.0  0.33969  0.70015  0.04159  1.0000
  Fe  Fe40      1.0  0.32449  0.56990  0.20799  1.0000
  S   S79       1.0  0.28952  0.58706  0.21503  1.0000
  H   H276      1.0  0.27597  0.56284  0.11161  1.0000
  Fe  Fe41      1.0  0.30411  0.61678  0.19346  1.0000
  S   S80       1.0  0.28364  0.63674  0.16676  1.0000
  Fe  Fe42      1.0  0.30671  0.60356  0.24444  1.0000
  H   H277      1.0  0.34721  0.67003  0.04421  1.0000
  S   S81       1.0  0.33737  0.59833  0.18409  1.0000
  S   S82       1.0  0.34069  0.58380  0.23935  1.0000
  C   C171      1.0  0.34612  0.53763  0.15454  1.0000
  C   C172      1.0  0.30186  0.65078  0.14593  1.0000
  C   C173      1.0  0.32126  0.63912  0.13641  1.0000
  C   C174      1.0  0.26388  0.56318  0.12704  1.0000
  C   C175      1.0  0.33081  0.67326  0.11247  1.0000
  C   C176      1.0  0.31155  0.68506  0.12212  1.0000
  C   C177      1.0  0.29692  0.67370  0.13863  1.0000
  H   H278      1.0  0.32492  0.62131  0.14151  1.0000
  H   H279      1.0  0.25248  0.57363  0.17117  1.0000
  H   H280      1.0  0.30762  0.70273  0.11651  1.0000
  H   H281      1.0  0.28185  0.68275  0.14585  1.0000
  C   C178      1.0  0.11908  0.89774  0.12490  1.0000
  C   C179      1.0  0.10250  0.89481  0.14310  1.0000
  C   C180      1.0  0.07921  0.89000  0.13857  1.0000
  C   C181      1.0  0.07246  0.88773  0.11579  1.0000
  C   C182      1.0  0.08904  0.89084  0.09761  1.0000
  C   C183      1.0  0.11222  0.89604  0.10211  1.0000
  H   H282      1.0  0.10769  0.89607  0.16079  1.0000
  H   H283      1.0  0.06660  0.88753  0.15269  1.0000
  H   H284      1.0  0.08397  0.88909  0.07994  1.0000
  H   H285      1.0  0.12482  0.89827  0.08794  1.0000
  C   C184      1.0  0.26904  0.86560  0.09141  1.0000
  C   C185      1.0  0.25529  0.85225  0.07778  1.0000
  C   C186      1.0  0.26190  0.82917  0.07341  1.0000
  C   C187      1.0  0.28238  0.81930  0.08242  1.0000
  C   C188      1.0  0.29633  0.83279  0.09574  1.0000
  C   C189      1.0  0.28962  0.85583  0.10026  1.0000
  H   H286      1.0  0.23964  0.85972  0.07050  1.0000
  H   H287      1.0  0.25117  0.81889  0.06288  1.0000
  H   H288      1.0  0.31211  0.82535  0.10280  1.0000
  H   H289      1.0  0.30039  0.86602  0.11082  1.0000
  C   C190      1.0  0.29527  0.57054  0.15212  1.0000
  C   C191      1.0  0.25922  0.55569  0.16828  1.0000
  H   H290      1.0  0.31786  0.97942  0.09968  1.0000
  H   H291      1.0  0.26301  0.57212  0.26419  1.0000
  H   H292      1.0  0.31981  0.95374  0.11812  1.0000
  H   H293      1.0  0.12421  0.97799  0.17202  1.0000
  C   C192      1.0  0.21853  0.00314  0.12641  1.0000
  C   C193      1.0  0.22828  0.98656  0.14160  1.0000
  C   C194      1.0  0.12183  0.96133  0.12942  1.0000
  H   H294      1.0  0.30008  0.93095  0.08885  1.0000
  H   H295      1.0  0.35766  0.54127  0.11875  1.0000
  H   H296      1.0  0.22584  0.96838  0.13905  1.0000
  H   H297      1.0  0.12608  0.00541  0.11285  1.0000
  C   C195      1.0  0.24172  0.99354  0.15989  1.0000
  H   H298      1.0  0.25718  0.58134  0.12855  1.0000
  N   N17       1.0  0.20155  0.83810  0.12700  1.0000
  C   C196      1.0  0.20385  0.82052  0.14602  1.0000
  C   C197      1.0  0.20547  0.82692  0.10458  1.0000
  C   C198      1.0  0.21904  0.85619  0.12935  1.0000
  C   C199      1.0  0.17792  0.84872  0.12806  1.0000
  H   H299      1.0  0.20096  0.82837  0.16320  1.0000
  H   H300      1.0  0.22154  0.81223  0.14571  1.0000
  H   H301      1.0  0.19100  0.80652  0.14474  1.0000
  H   H302      1.0  0.20423  0.83975  0.08982  1.0000
  H   H303      1.0  0.22306  0.81850  0.10332  1.0000
  H   H304      1.0  0.19244  0.81335  0.10205  1.0000
  H   H305      1.0  0.21799  0.86965  0.11519  1.0000
  H   H306      1.0  0.23710  0.84880  0.12862  1.0000
  H   H307      1.0  0.21656  0.86519  0.14595  1.0000
  H   H308      1.0  0.17541  0.86180  0.11373  1.0000
  H   H309      1.0  0.17448  0.85783  0.14450  1.0000
  H   H310      1.0  0.16421  0.83558  0.12671  1.0000
  N   N18       1.0  0.27576  0.55511  0.14819  1.0000
  H   H311      1.0  0.12915  0.95205  0.11421  1.0000
  C   C200      1.0  0.28480  0.53116  0.14544  1.0000
  S   S83       1.0  0.32908  0.53197  0.19972  1.0000
  S   S84       1.0  0.35859  0.79213  0.08598  1.0000
  H   H312      1.0  0.15492  0.00948  0.12307  1.0000
  H   H313      1.0  0.24408  0.54446  0.16591  1.0000
  H   H314      1.0  0.30443  0.56493  0.16802  1.0000
  S   S85       1.0  0.04387  0.88011  0.10916  1.0000
  Fe  Fe43      1.0  0.34896  0.72563  0.09013  1.0000
  H   H315      1.0  0.24888  0.55210  0.12360  1.0000
  H   H316      1.0  0.16857  0.95891  0.12833  1.0000
  H   H317      1.0  0.30824  0.57057  0.13742  1.0000
  C   C201      1.0  0.33558  0.65028  0.11958  1.0000
  S   S86       1.0  0.34920  0.68664  0.09141  1.0000
  C   C202      1.0  0.34697  0.68525  0.03183  1.0000
  H   H318      1.0  0.35738  0.70478  0.13874  1.0000
  N   N19       1.0  0.28579  0.96126  0.10516  1.0000
  C   C203      1.0  0.27122  0.98183  0.09896  1.0000
  C   C204      1.0  0.27390  0.94741  0.12380  1.0000
  C   C205      1.0  0.28962  0.94693  0.08467  1.0000
  H   H319      1.0  0.26867  0.99347  0.11381  1.0000
  H   H320      1.0  0.25362  0.97683  0.09364  1.0000
  H   H321      1.0  0.27922  0.99227  0.08439  1.0000
  H   H322      1.0  0.25654  0.94186  0.11845  1.0000
  H   H323      1.0  0.28401  0.93133  0.12835  1.0000
  H   H324      1.0  0.29879  0.95663  0.07027  1.0000
  H   H325      1.0  0.27285  0.94105  0.07809  1.0000
  N   N20       1.0  0.13800  0.97890  0.13704  1.0000
  H   H326      1.0  0.27126  0.95741  0.13978  1.0000
  C   C206      1.0  0.14239  0.99623  0.11804  1.0000
  H   H327      1.0  0.24962  0.98064  0.17133  1.0000
  C   C207      1.0  0.24510  0.01714  0.16349  1.0000
  H   H328      1.0  0.17680  0.65256  0.26674  1.0000
  H   H329      1.0  0.17286  0.98016  0.14937  1.0000
  Fe  Fe44      1.0  0.35116  0.61368  0.21571  1.0000
  C   C208      1.0  0.16022  0.96747  0.14340  1.0000
  H   H330      1.0  0.30605  0.97966  0.12879  1.0000
  C   C209      1.0  0.30841  0.96885  0.11327  1.0000
  H   H331      1.0  0.15762  0.95386  0.15730  1.0000
  S   S87       1.0  0.26410  0.02489  0.18518  1.0000
  C   C210      1.0  0.12764  0.99058  0.15734  1.0000
  H   H332      1.0  0.03590  0.78739  0.22116  1.0000
  H   H333      1.0  0.28913  0.58878  0.15432  1.0000
  H   H334      1.0  0.13942  0.00396  0.16350  1.0000
  H   H335      1.0  0.26773  0.54950  0.18447  1.0000
  H   H336      1.0  0.03290  0.87403  0.05125  1.0000
  H   H337      1.0  0.34519  0.55606  0.15693  1.0000
  H   H338      1.0  0.35040  0.64107  0.11209  1.0000
  H   H339      1.0  0.14606  0.65854  0.27009  1.0000
  H   H340      1.0  0.33943  0.71710  0.17542  1.0000
  C   C211      1.0  0.15978  0.64475  0.27194  1.0000
  H   H341      1.0  0.35358  0.71063  0.20223  1.0000
  H   H342      1.0  0.15632  0.63119  0.25938  1.0000
  H   H343      1.0  0.11080  0.99939  0.15319  1.0000
  H   H344      1.0  0.34040  0.67546  0.16719  1.0000
  C   C212      1.0  0.35782  0.67395  0.17499  1.0000
  C   C213      1.0  0.35669  0.71458  0.18343  1.0000
  H   H345      1.0  0.35517  0.66858  0.19355  1.0000
  C   C214      1.0  0.22138  0.02675  0.13035  1.0000
  H   H346      1.0  0.29820  0.53019  0.13112  1.0000
  C   C215      1.0  0.35327  0.52922  0.13289  1.0000
  C   C216      1.0  0.17852  0.61686  0.29762  1.0000
  Fe  Fe45      1.0  0.17841  0.58961  0.40240  1.0000
  S   S88       1.0  0.13956  0.59324  0.40570  1.0000
  S   S89       1.0  0.20490  0.59492  0.42978  1.0000
  Fe  Fe46      1.0  0.17750  0.57474  0.35233  1.0000
  S   S90       1.0  0.13838  0.57681  0.35165  1.0000
  S   S91       1.0  0.19802  0.56292  0.32060  1.0000
  Fe  Fe47      1.0  0.14176  0.61005  0.37008  1.0000
  S   S92       1.0  0.12529  0.64478  0.35985  1.0000
  Fe  Fe48      1.0  0.13930  0.55957  0.38712  1.0000
  S   S93       1.0  0.18090  0.60919  0.36816  1.0000
  S   S94       1.0  0.17809  0.55471  0.38632  1.0000
  C   C217      1.0  0.24724  0.55428  0.36400  1.0000
  C   C218      1.0  0.09870  0.64667  0.34564  1.0000
  C   C219      1.0  0.09069  0.66843  0.33734  1.0000
  C   C220      1.0  0.06909  0.67079  0.32675  1.0000
  C   C221      1.0  0.05534  0.65140  0.32444  1.0000
  C   C222      1.0  0.06364  0.62954  0.33219  1.0000
  C   C223      1.0  0.08526  0.62715  0.34281  1.0000
  H   H347      1.0  0.10112  0.68356  0.33931  1.0000
  H   H348      1.0  0.05651  0.70002  0.36202  1.0000
  H   H349      1.0  0.35243  0.01805  0.32387  1.0000
  H   H350      1.0  0.09129  0.61030  0.34915  1.0000
  C   C224      1.0  0.22307  0.57693  0.30902  1.0000
  H   H351      1.0  0.24905  0.56442  0.42146  1.0000
  H   H352      1.0  0.25982  0.62087  0.31850  1.0000
  C   C225      1.0  0.23219  0.59606  0.31946  1.0000
  H   H353      1.0  0.22528  0.55471  0.40561  1.0000
  H   H354      1.0  0.28590  0.57580  0.40044  1.0000
  H   H355      1.0  0.22365  0.60284  0.33476  1.0000
  C   C226      1.0  0.18243  0.62983  0.49735  1.0000
  C   C227      1.0  0.20479  0.62010  0.49461  1.0000
  C   C228      1.0  0.21150  0.60943  0.47383  1.0000
  C   C229      1.0  0.19587  0.60825  0.45576  1.0000
  C   C230      1.0  0.17351  0.61791  0.45859  1.0000
  C   C231      1.0  0.16686  0.62870  0.47926  1.0000
  H   H356      1.0  0.21695  0.62093  0.50841  1.0000
  H   H357      1.0  0.22886  0.60205  0.47180  1.0000
  H   H358      1.0  0.16137  0.61725  0.44480  1.0000
  H   H359      1.0  0.14956  0.63622  0.48121  1.0000
  S   S95       1.0  0.11391  0.53238  0.40059  1.0000
  S   S96       1.0  0.17313  0.64385  0.52284  1.0000
  H   H360      1.0  0.06308  0.68760  0.32035  1.0000
  H   H361      1.0  0.22623  0.59157  0.38216  1.0000
  H   H362      1.0  0.25269  0.60034  0.36726  1.0000
  C   C232      1.0  0.23418  0.56850  0.28896  1.0000
  N   N21       1.0  0.25435  0.56669  0.38445  1.0000
  C   C233      1.0  0.04890  0.70459  0.37919  1.0000
  C   C234      1.0  0.05544  0.66569  0.39472  1.0000
  H   H363      1.0  0.25293  0.53575  0.36489  1.0000
  H   H364      1.0  0.12278  0.63767  0.30077  1.0000
  H   H365      1.0  0.06265  0.65947  0.37795  1.0000
  C   C235      1.0  0.16455  0.65346  0.31198  1.0000
  H   H366      1.0  0.32823  0.89772  0.52151  1.0000
  C   C236      1.0  0.13723  0.62457  0.30192  1.0000
  C   C237      1.0  0.24552  0.59089  0.38291  1.0000
  H   H367      1.0  0.25481  0.56214  0.34767  1.0000
  N   N22       1.0  0.03785  0.68441  0.39116  1.0000
  H   H368      1.0  0.07036  0.67160  0.40461  1.0000
  H   H369      1.0  0.18117  0.66228  0.30742  1.0000
  H   H370      1.0  0.22797  0.55472  0.36244  1.0000
  H   H371      1.0  0.15026  0.66678  0.31216  1.0000
  C   C238      1.0  0.28001  0.56656  0.38519  1.0000
  H   H372      1.0  0.03608  0.71902  0.37617  1.0000
  H   H373      1.0  0.06314  0.71141  0.38938  1.0000
  C   C239      1.0  0.25263  0.60626  0.31020  1.0000
  N   N23       1.0  0.16002  0.63492  0.29585  1.0000
  C   C240      1.0  0.26387  0.59772  0.29021  1.0000
  H   H374      1.0  0.16584  0.64640  0.33007  1.0000
  H   H375      1.0  0.04788  0.65042  0.40427  1.0000
  H   H376      1.0  0.05310  0.61445  0.33035  1.0000
  H   H377      1.0  0.25000  0.60063  0.39837  1.0000
  H   H378      1.0  0.28787  0.57528  0.36940  1.0000
  C   C241      1.0  0.24462  0.55510  0.40571  1.0000
  H   H379      1.0  0.12483  0.65954  0.52351  1.0000
  H   H380      1.0  0.17917  0.60923  0.31551  1.0000
  H   H381      1.0  0.25113  0.53690  0.40775  1.0000
  H   H382      1.0  0.28730  0.54856  0.38629  1.0000
  H   H383      1.0  0.13335  0.61023  0.29041  1.0000
  C   C242      1.0  0.25444  0.57891  0.27951  1.0000
  H   H384      1.0  0.13676  0.61728  0.31996  1.0000
  H   H385      1.0  0.35529  0.87450  0.49734  1.0000
  H   H386      1.0  0.19603  0.62391  0.29311  1.0000
  H   H387      1.0  0.04150  0.69779  0.42500  1.0000
  H   H388      1.0  0.22721  0.55371  0.28078  1.0000
  H   H389      1.0  0.17565  0.60229  0.28602  1.0000
  H   H390      1.0  0.35926  0.91779  0.49805  1.0000
  S   S97       1.0  0.28995  0.61059  0.27971  1.0000
  H   H391      1.0  0.10603  0.68430  0.52783  1.0000
  H   H392      1.0  0.08913  0.69165  0.56724  1.0000
  Fe  Fe49      1.0  0.21023  0.61908  0.59891  1.0000
  S   S98       1.0  0.21955  0.65158  0.61638  1.0000
  S   S99       1.0  0.21137  0.58192  0.61306  1.0000
  Fe  Fe50      1.0  0.19461  0.64529  0.55502  1.0000
  S   S100      1.0  0.20326  0.67991  0.56879  1.0000
  Fe  Fe51      1.0  0.23567  0.66230  0.58178  1.0000
  S   S101      1.0  0.27182  0.67727  0.58219  1.0000
  Fe  Fe52      1.0  0.18646  0.66690  0.60220  1.0000
  S   S102      1.0  0.16327  0.69322  0.62054  1.0000
  S   S103      1.0  0.22861  0.62852  0.56505  1.0000
  S   S104      1.0  0.17559  0.63356  0.58777  1.0000
  Fe  Fe53      1.0  0.32613  0.80084  0.58551  1.0000
  S   S105      1.0  0.33596  0.83030  0.56079  1.0000
  S   S106      1.0  0.29047  0.78532  0.58209  1.0000
  H   H393      1.0  0.12279  0.63866  0.58486  1.0000
  C   C243      1.0  0.17735  0.54725  0.66723  1.0000
  S   S107      1.0  0.33499  0.82007  0.61707  1.0000
  Fe  Fe54      1.0  0.32497  0.00812  0.68426  1.0000
  S   S108      1.0  0.29261  0.98853  0.69451  1.0000
  C   C244      1.0  0.11919  0.64036  0.56608  1.0000
  S   S109      1.0  0.32067  0.96697  0.73919  1.0000
  H   H394      1.0  0.24880  0.69715  0.62489  1.0000
  Fe  Fe55      1.0  0.31659  0.95834  0.70203  1.0000
  S   S110      1.0  0.30877  0.92129  0.69482  1.0000
  Fe  Fe56      1.0  0.29921  0.99884  0.73069  1.0000
  H   H395      1.0  0.22858  0.53651  0.62490  1.0000
  H   H396      1.0  0.15009  0.67358  0.55317  1.0000
  H   H397      1.0  0.29876  0.57215  0.72695  1.0000
  S   S111      1.0  0.05934  0.66658  0.64939  1.0000
  C   C245      1.0  0.33440  0.89607  0.62411  1.0000
  C   C246      1.0  0.33499  0.91969  0.62881  1.0000
  C   C247      1.0  0.32744  0.92759  0.65056  1.0000
  C   C248      1.0  0.31907  0.91188  0.66766  1.0000
  C   C249      1.0  0.31864  0.88826  0.66305  1.0000
  C   C250      1.0  0.32637  0.88037  0.64138  1.0000
  S   S112      1.0  0.27179  0.54351  0.69603  1.0000
  H   H398      1.0  0.32767  0.94588  0.65386  1.0000
  H   H399      1.0  0.31212  0.87602  0.67616  1.0000
  H   H400      1.0  0.32559  0.86222  0.63796  1.0000
  H   H401      1.0  0.19387  0.55367  0.65915  1.0000
  H   H402      1.0  0.22045  0.92073  0.75298  1.0000
  H   H403      1.0  0.21982  0.96506  0.72120  1.0000
  C   C251      1.0  0.13432  0.68580  0.62831  1.0000
  C   C252      1.0  0.11741  0.70338  0.63166  1.0000
  C   C253      1.0  0.09420  0.69785  0.63775  1.0000
  C   C254      1.0  0.08792  0.67467  0.64098  1.0000
  C   C255      1.0  0.10486  0.65713  0.63758  1.0000
  C   C256      1.0  0.12790  0.66264  0.63103  1.0000
  H   H404      1.0  0.12226  0.72135  0.62956  1.0000
  H   H405      1.0  0.08130  0.71148  0.64044  1.0000
  H   H406      1.0  0.10012  0.63916  0.64015  1.0000
  H   H407      1.0  0.14080  0.64895  0.62867  1.0000
  C   C257      1.0  0.27728  0.70728  0.58025  1.0000
  C   C258      1.0  0.29919  0.71511  0.58619  1.0000
  C   C259      1.0  0.30368  0.73898  0.58632  1.0000
  C   C260      1.0  0.28626  0.75519  0.58051  1.0000
  C   C261      1.0  0.26449  0.74734  0.57417  1.0000
  C   C262      1.0  0.26003  0.72347  0.57391  1.0000
  H   H408      1.0  0.31264  0.70266  0.59103  1.0000
  H   H409      1.0  0.32049  0.74482  0.59125  1.0000
  H   H410      1.0  0.25103  0.75981  0.56938  1.0000
  H   H411      1.0  0.24328  0.71760  0.56886  1.0000
  C   C263      1.0  0.25730  0.55436  0.67137  1.0000
  C   C264      1.0  0.25370  0.57836  0.66804  1.0000
  C   C265      1.0  0.24061  0.58725  0.64946  1.0000
  C   C266      1.0  0.23119  0.57215  0.63407  1.0000
  C   C267      1.0  0.23562  0.54824  0.63692  1.0000
  H   H412      1.0  0.26255  0.94621  0.69574  1.0000
  H   H413      1.0  0.26053  0.59008  0.68015  1.0000
  H   H414      1.0  0.23725  0.60570  0.64743  1.0000
  C   C268      1.0  0.32825  0.53600  0.73189  1.0000
  C   C269      1.0  0.31037  0.57257  0.74199  1.0000
  H   H415      1.0  0.16549  0.54419  0.65289  1.0000
  S   S113      1.0  0.26836  0.01487  0.75030  1.0000
  H   H416      1.0  0.25552  0.91628  0.69783  1.0000
  N   N24       1.0  0.22611  0.72432  0.63768  1.0000
  C   C270      1.0  0.21202  0.70886  0.65319  1.0000
  C   C271      1.0  0.21461  0.72756  0.61531  1.0000
  C   C272      1.0  0.24956  0.71386  0.63388  1.0000
  H   H417      1.0  0.21000  0.69163  0.64556  1.0000
  H   H418      1.0  0.19410  0.71608  0.65620  1.0000
  H   H419      1.0  0.22410  0.73999  0.60352  1.0000
  H   H420      1.0  0.19641  0.73424  0.61762  1.0000
  H   H421      1.0  0.21373  0.71090  0.60635  1.0000
  H   H422      1.0  0.25844  0.71028  0.65044  1.0000
  H   H423      1.0  0.26094  0.72551  0.62299  1.0000
  C   C273      1.0  0.22823  0.74705  0.64827  1.0000
  H   H424      1.0  0.21086  0.75548  0.65125  1.0000
  H   H425      1.0  0.23883  0.75907  0.63690  1.0000
  H   H426      1.0  0.22007  0.70593  0.67027  1.0000
  H   H427      1.0  0.26110  0.93195  0.75893  1.0000
  C   C274      1.0  0.26445  0.93053  0.73998  1.0000
  H   H428      1.0  0.15136  0.53233  0.70404  1.0000
  C   C275      1.0  0.22488  0.91965  0.73415  1.0000
  C   C276      1.0  0.24878  0.93397  0.70184  1.0000
  H   H429      1.0  0.23686  0.74528  0.66518  1.0000
  H   H430      1.0  0.23324  0.93768  0.69129  1.0000
  H   H431      1.0  0.33587  0.87950  0.54598  1.0000
  H   H432      1.0  0.16971  0.56159  0.67753  1.0000
  H   H433      1.0  0.28250  0.53632  0.74408  1.0000
  C   C277      1.0  0.19798  0.53074  0.69978  1.0000
  C   C278      1.0  0.10957  0.66612  0.53392  1.0000
  H   H434      1.0  0.09667  0.67273  0.59111  1.0000
  H   H435      1.0  0.23024  0.96193  0.75002  1.0000
  N   N25       1.0  0.24333  0.93604  0.72684  1.0000
  H   H436      1.0  0.27868  0.94252  0.73477  1.0000
  H   H437      1.0  0.24911  0.97274  0.72702  1.0000
  H   H438      1.0  0.34113  0.93198  0.61556  1.0000
  S   S114      1.0  0.36110  0.78304  0.58241  1.0000
  H   H439      1.0  0.23042  0.90143  0.73089  1.0000
  H   H440      1.0  0.13470  0.63332  0.55638  1.0000
  C   C279      1.0  0.24859  0.53936  0.65550  1.0000
  H   H441      1.0  0.10435  0.62901  0.56287  1.0000
  H   H442      1.0  0.28587  0.54557  0.77301  1.0000
  H   H443      1.0  0.31680  0.53456  0.71686  1.0000
  H   H444      1.0  0.07800  0.66274  0.56958  1.0000
  H   H445      1.0  0.27609  0.97089  0.77587  1.0000
  C   C280      1.0  0.13439  0.67906  0.56344  1.0000
  S   S115      1.0  0.34834  0.97665  0.68848  1.0000
  H   H446      1.0  0.27126  0.91270  0.73671  1.0000
  H   H447      1.0  0.33820  0.91013  0.54744  1.0000
  C   C281      1.0  0.29494  0.53687  0.75833  1.0000
  H   H448      1.0  0.19149  0.54482  0.71106  1.0000
  C   C282      1.0  0.23526  0.95997  0.73143  1.0000
  H   H449      1.0  0.30107  0.58270  0.75557  1.0000
  Fe  Fe57      1.0  0.34751  0.84810  0.59222  1.0000
  N   N26       1.0  0.11416  0.66473  0.55891  1.0000
  H   H450      1.0  0.13900  0.67758  0.58189  1.0000
  S   S116      1.0  0.34344  0.88672  0.59645  1.0000
  C   C283      1.0  0.09356  0.67334  0.57222  1.0000
  H   H451      1.0  0.13098  0.69770  0.55910  1.0000
  S   S117      1.0  0.33015  0.02054  0.71994  1.0000
  H   H452      1.0  0.21507  0.53615  0.69206  1.0000
  N   N27       1.0  0.31642  0.54889  0.75067  1.0000
  H   H453      1.0  0.32617  0.58222  0.73615  1.0000
  H   H454      1.0  0.20862  0.92335  0.72465  1.0000
  H   H455      1.0  0.33631  0.53248  0.77773  1.0000
  Fe  Fe58      1.0  0.35095  0.98744  0.72507  1.0000
  H   H456      1.0  0.34442  0.54468  0.72547  1.0000
  H   H457      1.0  0.35688  0.89168  0.70485  1.0000
  C   C284      1.0  0.33200  0.55007  0.77038  1.0000
  H   H458      1.0  0.34871  0.55845  0.76516  1.0000
  C   C285      1.0  0.25309  0.00070  0.77365  1.0000
  C   C286      1.0  0.34076  0.89538  0.53566  1.0000
  H   H459      1.0  0.22708  0.02803  0.77612  1.0000
  H   H460      1.0  0.09439  0.65555  0.52984  1.0000
  H   H461      1.0  0.36211  0.94893  0.76688  1.0000
  Fe  Fe59      1.0  0.16446  0.99244  0.90024  1.0000
  S   S118      1.0  0.12888  0.00487  0.89009  1.0000
  S   S119      1.0  0.17967  0.99685  0.93551  1.0000
  Fe  Fe60      1.0  0.17937  0.98095  0.85071  1.0000
  S   S120      1.0  0.14493  0.99230  0.83614  1.0000
  S   S121      1.0  0.21122  0.96432  0.83303  1.0000
  H   H462      1.0  0.33462  0.68164  0.01810  1.0000
  Fe  Fe61      1.0  0.12879  0.97392  0.86748  1.0000
  S   S122      1.0  0.09516  0.95390  0.87059  1.0000
  S   S123      1.0  0.18263  0.01273  0.87136  1.0000
  S   S124      1.0  0.16297  0.95995  0.88035  1.0000
  C   C287      1.0  0.23285  0.01130  0.78300  1.0000
  H   H463      1.0  0.35677  0.70797  0.99205  1.0000
  C   C288      1.0  0.08013  0.94149  0.84803  1.0000
  C   C289      1.0  0.05948  0.92963  0.85357  1.0000
  C   C290      1.0  0.04676  0.91967  0.83624  1.0000
  C   C291      1.0  0.05451  0.92159  0.81312  1.0000
  C   C292      1.0  0.07505  0.93367  0.80752  1.0000
  C   C293      1.0  0.08786  0.94354  0.82489  1.0000
  H   H464      1.0  0.05337  0.92796  0.87143  1.0000
  H   H465      1.0  0.04645  0.01549  0.81482  1.0000
  C   C294      1.0  0.05157  0.99969  0.85856  1.0000
  H   H466      1.0  0.10378  0.95252  0.82040  1.0000
  C   C295      1.0  0.17862  0.97539  0.95808  1.0000
  C   C296      1.0  0.16942  0.95356  0.95496  1.0000
  C   C297      1.0  0.16982  0.93661  0.97305  1.0000
  C   C298      1.0  0.17916  0.94141  0.99445  1.0000
  C   C299      1.0  0.18825  0.96329  0.99761  1.0000
  C   C300      1.0  0.18808  0.98016  0.97943  1.0000
  H   H467      1.0  0.16193  0.94971  0.93867  1.0000
  H   H468      1.0  0.16269  0.91974  0.97052  1.0000
  H   H469      1.0  0.19549  0.96716  0.01401  1.0000
  H   H470      1.0  0.19523  0.99701  0.98198  1.0000
  C   C301      1.0  0.22709  0.97873  0.81025  1.0000
  C   C302      1.0  0.21992  0.00040  0.80124  1.0000
  H   H471      1.0  0.08117  0.93518  0.78966  1.0000
  C   C303      1.0  0.24736  0.96811  0.80089  1.0000
  H   H472      1.0  0.20436  0.00876  0.80829  1.0000
  H   H473      1.0  0.06148  0.99179  0.87319  1.0000
  S   S125      1.0  0.03897  0.90929  0.79081  1.0000
  N   N28       1.0  0.23604  0.95890  0.90631  1.0000
  C   C304      1.0  0.21490  0.94502  0.90491  1.0000
  C   C305      1.0  0.23221  0.98185  0.89477  1.0000
  C   C306      1.0  0.25576  0.94681  0.89459  1.0000
  C   C307      1.0  0.24112  0.96193  0.93087  1.0000
  H   H474      1.0  0.21697  0.92765  0.91364  1.0000
  H   H475      1.0  0.21055  0.94233  0.88659  1.0000
  H   H476      1.0  0.19967  0.95376  0.91347  1.0000
  H   H477      1.0  0.22776  0.98021  0.87632  1.0000
  H   H478      1.0  0.21762  0.99156  0.90334  1.0000
  H   H479      1.0  0.24789  0.99272  0.89514  1.0000
  H   H480      1.0  0.25226  0.94447  0.87598  1.0000
  H   H481      1.0  0.25902  0.92933  0.90269  1.0000
  H   H482      1.0  0.27206  0.95677  0.89529  1.0000
  H   H483      1.0  0.25700  0.97227  0.93268  1.0000
  H   H484      1.0  0.24369  0.94495  0.94026  1.0000
  H   H485      1.0  0.22647  0.97116  0.94000  1.0000
  C   C308      1.0  0.26038  0.97908  0.78274  1.0000
  H   H486      1.0  0.25309  0.95140  0.80785  1.0000
  H   H487      1.0  0.09715  0.99984  0.85013  1.0000
  H   H488      1.0  0.04792  0.98534  0.84692  1.0000
  H   H489      1.0  0.32377  0.56005  0.78469  1.0000
  Fe  Fe62      1.0  0.14683  0.02253  0.85968  1.0000
  S   S126      1.0  0.17954  0.91945  0.01654  1.0000
  H   H490      1.0  0.08332  0.99492  0.82364  1.0000
  H   H491      1.0  0.03099  0.91043  0.84078  1.0000
  H   H492      1.0  0.03468  0.00632  0.86583  1.0000
  C   C309      1.0  0.08670  0.00837  0.83635  1.0000
  N   N29       1.0  0.06486  0.01828  0.84624  1.0000
  H   H493      1.0  0.09768  0.02193  0.82757  1.0000
  Fe  Fe63      1.0  0.56319  0.38564  0.12697  1.0000
  S   S127      1.0  0.56377  0.38365  0.16577  1.0000
  S   S128      1.0  0.53363  0.38736  0.10188  1.0000
  Fe  Fe64      1.0  0.61614  0.37990  0.12130  1.0000
  S   S129      1.0  0.62139  0.37739  0.15975  1.0000
  S   S130      1.0  0.64442  0.38248  0.09302  1.0000
  Fe  Fe65      1.0  0.59002  0.35457  0.16139  1.0000
  S   S131      1.0  0.58600  0.31853  0.17781  1.0000
  Fe  Fe66      1.0  0.59499  0.40676  0.16146  1.0000
  S   S132      1.0  0.59771  0.43715  0.18489  1.0000
  S   S133      1.0  0.58705  0.35479  0.12278  1.0000
  S   S134      1.0  0.59212  0.41105  0.12307  1.0000
  C   C310      1.0  0.52705  0.32646  0.18470  1.0000
  H   H494      1.0  0.53678  0.31093  0.17840  1.0000
  C   C311      1.0  0.63366  0.25277  0.25115  1.0000
  Fe  Fe67      1.0  0.40088  0.41511  0.10573  1.0000
  S   S135      1.0  0.40786  0.44737  0.08417  1.0000
  S   S136      1.0  0.42721  0.40227  0.13188  1.0000
  Fe  Fe68      1.0  0.39219  0.42850  0.05545  1.0000
  S   S137      1.0  0.38779  0.39505  0.07631  1.0000
  N   N30       1.0  0.58708  0.38647  0.04812  1.0000
  H   H495      1.0  0.61972  0.51830  0.19003  1.0000
  H   H496      1.0  0.50453  0.34467  0.13335  1.0000
  C   C312      1.0  0.65205  0.36008  0.07393  1.0000
  C   C313      1.0  0.64217  0.33816  0.07626  1.0000
  C   C314      1.0  0.64768  0.32130  0.05987  1.0000
  Fe  Fe69      1.0  0.37111  0.45787  0.09430  1.0000
  C   C315      1.0  0.66317  0.32615  0.04110  1.0000
  C   C316      1.0  0.66763  0.36487  0.05524  1.0000
  H   H497      1.0  0.63037  0.33415  0.09072  1.0000
  H   H498      1.0  0.38045  0.52172  0.20683  1.0000
  C   C317      1.0  0.49588  0.35429  0.17817  1.0000
  H   H499      1.0  0.60185  0.36474  0.07476  1.0000
  C   C318      1.0  0.61216  0.46239  0.17472  1.0000
  C   C319      1.0  0.61013  0.48253  0.18760  1.0000
  C   C320      1.0  0.62176  0.50280  0.18019  1.0000
  C   C321      1.0  0.63579  0.50296  0.15998  1.0000
  C   C322      1.0  0.63783  0.48284  0.14710  1.0000
  C   C323      1.0  0.62600  0.46264  0.15439  1.0000
  H   H500      1.0  0.59930  0.48249  0.20325  1.0000
  H   H501      1.0  0.40053  0.51792  0.18289  1.0000
  H   H502      1.0  0.64869  0.48277  0.13149  1.0000
  H   H503      1.0  0.62779  0.44717  0.14442  1.0000
  C   C324      1.0  0.58907  0.30113  0.25565  1.0000
  C   C325      1.0  0.58357  0.28419  0.24018  1.0000
  C   C326      1.0  0.58265  0.28984  0.21638  1.0000
  C   C327      1.0  0.58697  0.31248  0.20788  1.0000
  C   C328      1.0  0.59206  0.32953  0.22336  1.0000
  C   C329      1.0  0.59314  0.32384  0.24716  1.0000
  H   H504      1.0  0.58009  0.26674  0.24653  1.0000
  H   H505      1.0  0.57857  0.27659  0.20449  1.0000
  H   H506      1.0  0.59538  0.34704  0.21700  1.0000
  H   H507      1.0  0.59736  0.33705  0.25904  1.0000
  C   C330      1.0  0.50436  0.39335  0.11035  1.0000
  C   C331      1.0  0.49778  0.39733  0.13336  1.0000
  C   C332      1.0  0.47409  0.40049  0.13970  1.0000
  C   C333      1.0  0.45689  0.40012  0.12305  1.0000
  C   C334      1.0  0.46357  0.39689  0.09992  1.0000
  C   C335      1.0  0.48720  0.39334  0.09365  1.0000
  H   H508      1.0  0.51093  0.39797  0.14622  1.0000
  H   H509      1.0  0.46904  0.40337  0.15755  1.0000
  H   H510      1.0  0.45047  0.39663  0.08695  1.0000
  H   H511      1.0  0.49214  0.39040  0.07579  1.0000
  H   H512      1.0  0.63902  0.51333  0.23005  1.0000
  H   H513      1.0  0.67540  0.38176  0.05334  1.0000
  H   H514      1.0  0.57073  0.36497  0.07475  1.0000
  H   H515      1.0  0.58084  0.15486  0.26953  1.0000
  C   C336      1.0  0.66932  0.47796  0.22352  1.0000
  N   N31       1.0  0.67483  0.50176  0.22989  1.0000
  C   C337      1.0  0.66668  0.26385  0.27245  1.0000
  H   H516      1.0  0.50781  0.36914  0.17919  1.0000
  H   H517      1.0  0.62437  0.25422  0.23458  1.0000
  H   H518      1.0  0.37667  0.09070  0.26663  1.0000
  H   H519      1.0  0.62147  0.25904  0.26496  1.0000
  H   H520      1.0  0.57262  0.40810  0.07468  1.0000
  H   H521      1.0  0.63734  0.23405  0.25503  1.0000
  H   H522      1.0  0.53997  0.34040  0.18610  1.0000
  C   C338      1.0  0.69448  0.50110  0.24574  1.0000
  C   C339      1.0  0.67312  0.34803  0.03885  1.0000
  H   H523      1.0  0.68448  0.46929  0.21476  1.0000
  C   C340      1.0  0.58788  0.40716  0.06235  1.0000
  H   H524      1.0  0.48382  0.30984  0.18494  1.0000
  N   N32       1.0  0.50823  0.33369  0.16906  1.0000
  H   H525      1.0  0.66512  0.30174  0.24327  1.0000
  H   H526      1.0  0.52822  0.32439  0.13852  1.0000
  N   N33       1.0  0.65516  0.26633  0.25001  1.0000
  C   C341      1.0  0.51826  0.33936  0.14572  1.0000
  H   H527      1.0  0.47723  0.31953  0.15597  1.0000
  H   H528      1.0  0.65466  0.47798  0.21140  1.0000
  C   C342      1.0  0.49169  0.31459  0.16763  1.0000
  H   H529      1.0  0.63809  0.29834  0.25923  1.0000
  S   S138      1.0  0.36490  0.42680  0.11793  1.0000
  H   H530      1.0  0.68336  0.27329  0.27211  1.0000
  H   H531      1.0  0.58740  0.34934  0.05332  1.0000
  H   H532      1.0  0.66413  0.46703  0.23898  1.0000
  H   H533      1.0  0.50049  0.29878  0.16079  1.0000
  H   H534      1.0  0.61174  0.12428  0.26491  1.0000
  H   H535      1.0  0.52025  0.32212  0.20252  1.0000
  H   H536      1.0  0.66671  0.51689  0.19663  1.0000
  C   C343      1.0  0.67089  0.25756  0.23146  1.0000
  H   H537      1.0  0.69649  0.50783  0.19930  1.0000
  H   H538      1.0  0.69027  0.49085  0.26193  1.0000
  H   H539      1.0  0.53047  0.35398  0.14599  1.0000
  H   H540      1.0  0.64004  0.30436  0.06178  1.0000
  H   H541      1.0  0.67549  0.23890  0.23470  1.0000
  H   H542      1.0  0.60386  0.40690  0.07275  1.0000
  H   H543      1.0  0.48834  0.35074  0.19587  1.0000
  H   H544      1.0  0.48134  0.36003  0.16694  1.0000
  C   C344      1.0  0.68127  0.51560  0.20876  1.0000
  H   H545      1.0  0.66263  0.25922  0.21433  1.0000
  H   H546      1.0  0.41019  0.51354  0.21201  1.0000
  H   H547      1.0  0.63948  0.29347  0.22883  1.0000
  H   H548      1.0  0.58794  0.42344  0.05151  1.0000
  H   H549      1.0  0.64890  0.50251  0.25755  1.0000
  C   C345      1.0  0.65422  0.51247  0.24150  1.0000
  H   H550      1.0  0.68739  0.26731  0.23012  1.0000
  C   C346      1.0  0.60793  0.38566  0.03249  1.0000
  C   C347      1.0  0.58670  0.36542  0.06336  1.0000
  C   C348      1.0  0.56580  0.38761  0.03448  1.0000
  C   C349      1.0  0.64928  0.29103  0.24507  1.0000
  H   H551      1.0  0.62417  0.38543  0.04248  1.0000
  H   H552      1.0  0.54988  0.38833  0.04603  1.0000
  C   C350      1.0  0.39881  0.52453  0.20074  1.0000
  H   H553      1.0  0.67049  0.24530  0.27718  1.0000
  S   S139      1.0  0.65142  0.52777  0.15055  1.0000
  H   H554      1.0  0.49157  0.18025  0.35999  1.0000
  H   H555      1.0  0.68296  0.19376  0.49839  1.0000
  H   H556      1.0  0.57186  0.11404  0.27969  1.0000
  H   H557      1.0  0.66393  0.24572  0.44150  1.0000
  Fe  Fe70      1.0  0.59105  0.25780  0.30103  1.0000
  S   S140      1.0  0.56672  0.24700  0.33067  1.0000
  Fe  Fe71      1.0  0.61657  0.21133  0.30155  1.0000
  S   S141      1.0  0.59433  0.19654  0.33067  1.0000
  H   H558      1.0  0.47532  0.19266  0.42091  1.0000
  Fe  Fe72      1.0  0.56453  0.21343  0.31236  1.0000
  S   S142      1.0  0.53110  0.19520  0.30559  1.0000
  Fe  Fe73      1.0  0.59866  0.23089  0.34664  1.0000
  S   S143      1.0  0.60630  0.22834  0.38464  1.0000
  S   S144      1.0  0.62318  0.24440  0.31871  1.0000
  H   H559      1.0  0.43667  0.17782  0.41157  1.0000
  Fe  Fe74      1.0  0.46179  0.09613  0.36604  1.0000
  S   S145      1.0  0.43219  0.12070  0.35824  1.0000
  S   S146      1.0  0.49997  0.10501  0.36322  1.0000
  Fe  Fe75      1.0  0.42933  0.05911  0.38678  1.0000
  S   S147      1.0  0.39707  0.08113  0.38105  1.0000
  H   H560      1.0  0.62946  0.22585  0.42771  1.0000
  Fe  Fe76      1.0  0.41380  0.08949  0.34612  1.0000
  C   C351      1.0  0.68355  0.14522  0.33751  1.0000
  Fe  Fe77      1.0  0.41825  0.11011  0.39383  1.0000
  S   S148      1.0  0.40661  0.13825  0.41820  1.0000
  S   S149      1.0  0.44487  0.06548  0.35119  1.0000
  S   S150      1.0  0.44898  0.08751  0.40228  1.0000
  H   H561      1.0  0.46630  0.14102  0.38592  1.0000
  C   C352      1.0  0.40332  0.12293  0.49672  1.0000
  C   C353      1.0  0.39691  0.14482  0.48761  1.0000
  C   C354      1.0  0.39805  0.14932  0.46353  1.0000
  C   C355      1.0  0.40550  0.13200  0.44837  1.0000
  C   C356      1.0  0.41208  0.11018  0.45751  1.0000
  C   C357      1.0  0.41103  0.10571  0.48158  1.0000
  H   H562      1.0  0.40197  0.03015  0.36063  1.0000
  C   C358      1.0  0.44724  0.15949  0.52781  1.0000
  H   H563      1.0  0.41770  0.09664  0.44605  1.0000
  H   H564      1.0  0.41593  0.08870  0.48847  1.0000
  C   C359      1.0  0.50864  0.12975  0.34674  1.0000
  C   C360      1.0  0.52961  0.14031  0.35158  1.0000
  C   C361      1.0  0.53669  0.16044  0.33913  1.0000
  C   C362      1.0  0.52307  0.16982  0.32140  1.0000
  C   C363      1.0  0.50232  0.15899  0.31629  1.0000
  C   C364      1.0  0.49503  0.13911  0.32902  1.0000
  H   H565      1.0  0.54018  0.13315  0.36532  1.0000
  H   H566      1.0  0.55247  0.16886  0.34347  1.0000
  H   H567      1.0  0.49172  0.16616  0.30256  1.0000
  H   H568      1.0  0.47894  0.13095  0.32503  1.0000
  H   H569      1.0  0.57159  0.16330  0.29790  1.0000
  H   H570      1.0  0.50243  0.14041  0.51612  1.0000
  C   C365      1.0  0.67958  0.15962  0.29787  1.0000
  C   C366      1.0  0.66187  0.17509  0.30503  1.0000
  C   C367      1.0  0.65583  0.17630  0.32854  1.0000
  H   H571      1.0  0.47954  0.14637  0.49619  1.0000
  H   H572      1.0  0.47006  0.15047  0.41456  1.0000
  H   H573      1.0  0.58836  0.14363  0.33252  1.0000
  H   H574      1.0  0.61042  0.12136  0.32916  1.0000
  C   C368      1.0  0.67013  0.26512  0.40954  1.0000
  C   C369      1.0  0.66230  0.26978  0.38714  1.0000
  C   C370      1.0  0.64282  0.25850  0.37928  1.0000
  C   C371      1.0  0.63094  0.24260  0.39385  1.0000
  C   C372      1.0  0.63873  0.23798  0.41629  1.0000
  C   C373      1.0  0.65827  0.24919  0.42412  1.0000
  C   C374      1.0  0.69194  0.21039  0.37635  1.0000
  H   H575      1.0  0.63669  0.26255  0.36216  1.0000
  C   C375      1.0  0.60322  0.13772  0.32124  1.0000
  H   H576      1.0  0.62405  0.11029  0.29013  1.0000
  C   C376      1.0  0.47252  0.18196  0.36377  1.0000
  H   H577      1.0  0.39280  0.16621  0.45659  1.0000
  H   H578      1.0  0.66500  0.21251  0.51582  1.0000
  H   H579      1.0  0.65812  0.25904  0.51787  1.0000
  C   C377      1.0  0.48605  0.15058  0.51342  1.0000
  C   C378      1.0  0.58677  0.15670  0.28745  1.0000
  H   H580      1.0  0.61704  0.15085  0.32173  1.0000
  H   H581      1.0  0.45489  0.11592  0.51558  1.0000
  H   H582      1.0  0.38666  0.05098  0.34268  1.0000
  H   H583      1.0  0.66068  0.16139  0.36267  1.0000
  H   H584      1.0  0.67371  0.20469  0.37978  1.0000
  H   H585      1.0  0.43504  0.19817  0.38742  1.0000
  H   H586      1.0  0.46373  0.16924  0.35319  1.0000
  H   H587      1.0  0.60021  0.17031  0.28671  1.0000
  H   H588      1.0  0.49043  0.16930  0.51275  1.0000
  S   S151      1.0  0.39825  0.08902  0.31047  1.0000
  C   C379      1.0  0.47466  0.15437  0.39601  1.0000
  H   H589      1.0  0.49380  0.15180  0.39334  1.0000
  H   H590      1.0  0.46693  0.19960  0.35755  1.0000
  H   H591      1.0  0.39080  0.15819  0.49907  1.0000
  S   S152      1.0  0.59244  0.29439  0.28540  1.0000
  N   N34       1.0  0.46697  0.17802  0.38869  1.0000
  H   H592      1.0  0.64276  0.18865  0.33435  1.0000
  C   C380      1.0  0.44157  0.18063  0.39291  1.0000
  H   H593      1.0  0.43186  0.16777  0.38330  1.0000
  C   C381      1.0  0.47913  0.19515  0.40202  1.0000
  H   H594      1.0  0.47375  0.21319  0.39690  1.0000
  S   S153      1.0  0.69502  0.27914  0.41849  1.0000
  C   C382      1.0  0.66622  0.16104  0.34464  1.0000
  H   H595      1.0  0.67127  0.28225  0.37585  1.0000
  H   H596      1.0  0.49835  0.19368  0.39910  1.0000
  H   H597      1.0  0.41120  0.04020  0.30898  1.0000
  H   H598      1.0  0.58398  0.10002  0.30495  1.0000
  C   C383      1.0  0.36865  0.08709  0.30321  1.0000
  H   H599      1.0  0.44000  0.15629  0.51064  1.0000
  H   H600      1.0  0.56207  0.12247  0.30798  1.0000
  N   N35       1.0  0.59602  0.13454  0.29731  1.0000
  H   H601      1.0  0.69057  0.16665  0.39388  1.0000
  C   C384      1.0  0.57771  0.11695  0.29747  1.0000
  S   S154      1.0  0.69489  0.12538  0.35810  1.0000
  C   C385      1.0  0.61641  0.12686  0.28312  1.0000
  C   C386      1.0  0.67230  0.19457  0.51478  1.0000
  S   S155      1.0  0.40259  0.11649  0.52685  1.0000
  H   H602      1.0  0.68217  0.19952  0.42067  1.0000
  H   H603      1.0  0.69178  0.03596  0.50908  1.0000
  C   C387      1.0  0.69065  0.14487  0.31417  1.0000
  H   H604      1.0  0.63045  0.13994  0.28273  1.0000
  S   S156      1.0  0.58645  0.22547  0.28148  1.0000
  C   C388      1.0  0.38710  0.03252  0.34885  1.0000
  H   H605      1.0  0.69179  0.22961  0.37741  1.0000
  H   H606      1.0  0.65543  0.27098  0.28666  1.0000
  H   H607      1.0  0.36878  0.03869  0.30657  1.0000
  H   H608      1.0  0.68450  0.15875  0.27972  1.0000
  H   H609      1.0  0.65741  0.18279  0.51339  1.0000
  H   H610      1.0  0.37088  0.02944  0.35941  1.0000
  S   S157      1.0  0.64620  0.19168  0.28451  1.0000
  S   S158      1.0  0.69631  0.24293  0.47884  1.0000
  H   H611      1.0  0.69685  0.20602  0.35823  1.0000
  C   C389      1.0  0.53847  0.09329  0.65429  1.0000
  Fe  Fe78      1.0  0.60039  0.21332  0.61550  1.0000
  S   S159      1.0  0.62868  0.20363  0.64005  1.0000
  S   S160      1.0  0.60519  0.22905  0.57931  1.0000
  Fe  Fe79      1.0  0.56268  0.18943  0.64543  1.0000
  S   S161      1.0  0.58807  0.17809  0.67247  1.0000
  S   S162      1.0  0.52633  0.17547  0.65130  1.0000
  Fe  Fe80      1.0  0.60228  0.21404  0.66777  1.0000
  S   S163      1.0  0.61322  0.23025  0.70092  1.0000
  Fe  Fe81      1.0  0.61211  0.16868  0.64293  1.0000
  S   S164      1.0  0.63170  0.13485  0.63686  1.0000
  S   S165      1.0  0.57485  0.22627  0.64293  1.0000
  S   S166      1.0  0.58574  0.17757  0.61627  1.0000
  S   S167      1.0  0.57426  0.32280  0.74593  1.0000
  H   H612      1.0  0.59269  0.09851  0.62957  1.0000
  Fe  Fe82      1.0  0.41196  0.18003  0.58079  1.0000
  S   S168      1.0  0.41102  0.14148  0.58603  1.0000
  S   S169      1.0  0.44649  0.19842  0.57997  1.0000
  Fe  Fe83      1.0  0.39095  0.14279  0.55324  1.0000
  H   H613      1.0  0.56262  0.22429  0.69324  1.0000
  S   S170      1.0  0.39316  0.18121  0.54717  1.0000
  S   S171      1.0  0.37913  0.18639  0.60213  1.0000
  S   S172      1.0  0.62585  0.04583  0.70431  1.0000
  C   C390      1.0  0.63099  0.11072  0.65646  1.0000
  C   C391      1.0  0.63925  0.08919  0.64881  1.0000
  C   C392      1.0  0.63780  0.06922  0.66335  1.0000
  C   C393      1.0  0.62823  0.07067  0.68577  1.0000
  C   C394      1.0  0.62019  0.09226  0.69356  1.0000
  C   C395      1.0  0.62163  0.11226  0.67897  1.0000
  H   H614      1.0  0.64656  0.08786  0.63143  1.0000
  H   H615      1.0  0.64392  0.05269  0.65711  1.0000
  H   H616      1.0  0.61286  0.09351  0.71094  1.0000
  H   H617      1.0  0.61551  0.12884  0.68514  1.0000
  C   C396      1.0  0.60267  0.25636  0.71284  1.0000
  C   C397      1.0  0.58821  0.27183  0.70062  1.0000
  C   C398      1.0  0.57963  0.29209  0.71106  1.0000
  C   C399      1.0  0.58553  0.29710  0.73370  1.0000
  C   C400      1.0  0.60026  0.28180  0.74578  1.0000
  C   C401      1.0  0.60880  0.26153  0.73536  1.0000
  H   H618      1.0  0.58373  0.26823  0.68313  1.0000
  H   H619      1.0  0.56841  0.30399  0.70152  1.0000
  H   H620      1.0  0.65356  0.36967  0.73812  1.0000
  H   H621      1.0  0.61997  0.24960  0.74492  1.0000
  C   C402      1.0  0.50450  0.18160  0.63102  1.0000
  C   C403      1.0  0.48285  0.17087  0.63402  1.0000
  C   C404      1.0  0.46494  0.17572  0.61843  1.0000
  C   C405      1.0  0.46851  0.19155  0.59986  1.0000
  C   C406      1.0  0.49023  0.20211  0.59678  1.0000
  C   C407      1.0  0.50821  0.19710  0.61222  1.0000
  H   H622      1.0  0.47981  0.15888  0.64854  1.0000
  H   H623      1.0  0.44828  0.16749  0.62098  1.0000
  H   H624      1.0  0.49313  0.21437  0.58244  1.0000
  H   H625      1.0  0.52480  0.20548  0.60971  1.0000
  C   C408      1.0  0.67307  0.26146  0.55127  1.0000
  C   C409      1.0  0.51630  0.22074  0.68816  1.0000
  C   C410      1.0  0.63490  0.24600  0.54520  1.0000
  C   C411      1.0  0.63142  0.24168  0.56908  1.0000
  C   C412      1.0  0.64890  0.24723  0.58407  1.0000
  C   C413      1.0  0.66956  0.25733  0.57518  1.0000
  N   N36       1.0  0.52822  0.23124  0.70732  1.0000
  H   H626      1.0  0.47834  0.10923  0.53476  1.0000
  H   H627      1.0  0.64636  0.24403  0.60249  1.0000
  H   H628      1.0  0.40204  0.42711  0.77253  1.0000
  H   H629      1.0  0.64484  0.30661  0.74616  1.0000
  H   H630      1.0  0.65245  0.33275  0.75993  1.0000
  H   H631      1.0  0.37172  0.49101  0.76740  1.0000
  H   H632      1.0  0.46448  0.14805  0.56888  1.0000
  C   C414      1.0  0.65573  0.25563  0.53629  1.0000
  H   H633      1.0  0.51247  0.26492  0.70107  1.0000
  H   H634      1.0  0.56130  0.22809  0.72374  1.0000
  H   H635      1.0  0.64783  0.37111  0.70767  1.0000
  H   H636      1.0  0.67708  0.34013  0.69993  1.0000
  C   C415      1.0  0.67153  0.18939  0.55639  1.0000
  C   C416      1.0  0.46273  0.12056  0.53211  1.0000
  H   H637      1.0  0.53885  0.26497  0.71684  1.0000
  H   H638      1.0  0.60480  0.28537  0.76327  1.0000
  C   C417      1.0  0.51484  0.22688  0.72922  1.0000
  H   H639      1.0  0.61372  0.33118  0.70976  1.0000
  H   H640      1.0  0.49858  0.22839  0.68582  1.0000
  H   H641      1.0  0.66591  0.06402  0.72775  1.0000
  C   C418      1.0  0.41464  0.44088  0.77582  1.0000
  C   C419      1.0  0.55183  0.22086  0.70924  1.0000
  H   H642      1.0  0.63438  0.30800  0.70525  1.0000
  N   N37       1.0  0.55855  0.10600  0.64404  1.0000
  H   H643      1.0  0.57176  0.07649  0.62562  1.0000
  H   H644      1.0  0.54336  0.08308  0.67015  1.0000
  C   C420      1.0  0.64180  0.32571  0.74616  1.0000
  H   H645      1.0  0.55316  0.13508  0.66590  1.0000
  H   H646      1.0  0.53733  0.13221  0.62716  1.0000
  H   H647      1.0  0.52335  0.23468  0.74402  1.0000
  Fe  Fe84      1.0  0.37647  0.14746  0.60447  1.0000
  H   H648      1.0  0.51333  0.20796  0.73328  1.0000
  C   C421      1.0  0.67214  0.33201  0.71707  1.0000
  H   H649      1.0  0.54002  0.26037  0.68628  1.0000
  H   H650      1.0  0.52396  0.10542  0.65923  1.0000
  H   H651      1.0  0.55132  0.20172  0.71214  1.0000
  C   C422      1.0  0.64322  0.36204  0.72441  1.0000
  H   H652      1.0  0.52619  0.22322  0.67140  1.0000
  H   H653      1.0  0.57238  0.11280  0.67711  1.0000
  H   H654      1.0  0.67582  0.31304  0.71616  1.0000
  H   H655      1.0  0.53161  0.08098  0.64195  1.0000
  C   C423      1.0  0.57752  0.08942  0.63789  1.0000
  H   H656      1.0  0.58212  0.13188  0.65377  1.0000
  H   H657      1.0  0.43347  0.15505  0.54096  1.0000
  H   H658      1.0  0.49688  0.23438  0.72836  1.0000
  H   H659      1.0  0.54487  0.10772  0.60987  1.0000
  H   H660      1.0  0.62456  0.36613  0.72854  1.0000
  H   H661      1.0  0.58401  0.07973  0.65348  1.0000
  C   C424      1.0  0.67020  0.05303  0.74331  1.0000
  C   C425      1.0  0.56689  0.12214  0.66098  1.0000
  H   H662      1.0  0.51434  0.20173  0.69126  1.0000
  C   C426      1.0  0.55140  0.11928  0.62305  1.0000
  H   H663      1.0  0.45039  0.17839  0.52884  1.0000
  H   H664      1.0  0.56623  0.12907  0.61496  1.0000
  H   H665      1.0  0.48237  0.16966  0.55498  1.0000
  H   H666      1.0  0.63663  0.33461  0.68820  1.0000
  H   H667      1.0  0.68174  0.15166  0.53180  1.0000
  S   S173      1.0  0.59823  0.37599  0.77220  1.0000
  H   H668      1.0  0.65636  0.17778  0.55594  1.0000
  H   H669      1.0  0.66434  0.06261  0.75884  1.0000
  N   N38       1.0  0.46848  0.14540  0.53198  1.0000
  H   H670      1.0  0.68290  0.26183  0.58687  1.0000
  N   N39       1.0  0.64742  0.33675  0.72332  1.0000
  C   C427      1.0  0.52995  0.25649  0.70268  1.0000
  C   C428      1.0  0.63246  0.32723  0.70582  1.0000
  H   H671      1.0  0.68379  0.33891  0.73009  1.0000
  H   H672      1.0  0.44964  0.11609  0.54613  1.0000
  N   N40       1.0  0.68634  0.18821  0.53507  1.0000
  H   H673      1.0  0.42669  0.44263  0.76045  1.0000
  H   H674      1.0  0.49346  0.14046  0.55872  1.0000
  H   H675      1.0  0.62320  0.32877  0.75116  1.0000
  H   H676      1.0  0.65949  0.03720  0.74280  1.0000
  H   H677      1.0  0.62137  0.24189  0.53353  1.0000
  S   S174      1.0  0.36433  0.13218  0.63944  1.0000
  H   H678      1.0  0.68143  0.18443  0.57207  1.0000
  C   C429      1.0  0.47769  0.15105  0.55460  1.0000
  H   H679      1.0  0.66448  0.20723  0.55878  1.0000
  H   H680      1.0  0.40450  0.45750  0.77713  1.0000
  N   N41       1.0  0.69531  0.04706  0.74364  1.0000
  C   C430      1.0  0.69587  0.16441  0.53278  1.0000
  H   H681      1.0  0.69533  0.46634  0.76636  1.0000
  H   H682      1.0  0.69422  0.50052  0.73885  1.0000
  Fe  Fe85      1.0  0.58634  0.33935  0.77851  1.0000
  Fe  Fe86      1.0  0.62649  0.36630  0.79657  1.0000
  S   S175      1.0  0.60610  0.37797  0.82762  1.0000
  H   H683      1.0  0.45366  0.52024  0.93349  1.0000
  S   S176      1.0  0.69031  0.29221  0.90379  1.0000
  S   S177      1.0  0.56235  0.34850  0.80870  1.0000
  Fe  Fe87      1.0  0.57645  0.38429  0.80389  1.0000
  S   S178      1.0  0.55654  0.41832  0.80646  1.0000
  Fe  Fe88      1.0  0.59379  0.34150  0.83037  1.0000
  S   S179      1.0  0.59255  0.32762  0.86724  1.0000
  S   S180      1.0  0.61643  0.32900  0.80085  1.0000
  H   H684      1.0  0.42901  0.50467  0.94534  1.0000
  H   H685      1.0  0.39833  0.52507  0.96796  1.0000
  S   S181      1.0  0.40680  0.51944  0.87615  1.0000
  C   C431      1.0  0.44072  0.51932  0.94825  1.0000
  Fe  Fe89      1.0  0.44304  0.46224  0.86886  1.0000
  S   S182      1.0  0.40389  0.46341  0.86874  1.0000
  S   S183      1.0  0.46027  0.42717  0.86256  1.0000
  Fe  Fe90      1.0  0.44555  0.51441  0.87738  1.0000
  H   H686      1.0  0.43447  0.47146  0.80204  1.0000
  Fe  Fe91      1.0  0.40586  0.48681  0.89878  1.0000
  S   S184      1.0  0.38293  0.48758  0.93141  1.0000
  Fe  Fe92      1.0  0.40846  0.49549  0.84616  1.0000
  C   C432      1.0  0.65491  0.41926  0.80332  1.0000
  S   S185      1.0  0.44448  0.48264  0.90103  1.0000
  S   S186      1.0  0.44771  0.49349  0.84531  1.0000
  S   S187      1.0  0.40976  0.42571  0.01989  1.0000
  C   C433      1.0  0.39092  0.47075  0.95607  1.0000
  H   H687      1.0  0.69131  0.34449  0.89927  1.0000
  C   C434      1.0  0.38480  0.46069  0.99717  1.0000
  C   C435      1.0  0.40268  0.44394  0.99589  1.0000
  C   C436      1.0  0.41478  0.44084  0.97473  1.0000
  C   C437      1.0  0.40902  0.45426  0.95491  1.0000
  H   H688      1.0  0.53601  0.41519  0.86963  1.0000
  N   N42       1.0  0.55413  0.38676  0.88660  1.0000
  H   H689      1.0  0.52060  0.39271  0.90312  1.0000
  H   H690      1.0  0.41836  0.45158  0.93867  1.0000
  H   H691      1.0  0.53847  0.37102  0.91735  1.0000
  C   C438      1.0  0.52909  0.42049  0.82081  1.0000
  C   C439      1.0  0.52019  0.44246  0.82647  1.0000
  C   C440      1.0  0.49903  0.44477  0.83915  1.0000
  C   C441      1.0  0.48659  0.42508  0.84618  1.0000
  C   C442      1.0  0.49525  0.40312  0.84014  1.0000
  C   C443      1.0  0.51641  0.40082  0.82743  1.0000
  H   H692      1.0  0.52991  0.45776  0.82137  1.0000
  H   H693      1.0  0.49257  0.46177  0.84375  1.0000
  H   H694      1.0  0.48558  0.38784  0.84537  1.0000
  H   H695      1.0  0.52296  0.38386  0.82283  1.0000
  C   C444      1.0  0.61965  0.31754  0.87737  1.0000
  C   C445      1.0  0.63707  0.30953  0.86203  1.0000
  C   C446      1.0  0.65853  0.30144  0.87038  1.0000
  C   C447      1.0  0.66296  0.30189  0.89402  1.0000
  C   C448      1.0  0.64567  0.31020  0.90934  1.0000
  C   C449      1.0  0.62396  0.31773  0.90107  1.0000
  H   H696      1.0  0.63384  0.30898  0.84381  1.0000
  H   H697      1.0  0.67175  0.29485  0.85845  1.0000
  H   H698      1.0  0.64880  0.31029  0.92765  1.0000
  H   H699      1.0  0.61053  0.32372  0.91307  1.0000
  S   S188      1.0  0.68196  0.33211  0.95902  1.0000
  C   C450      1.0  0.66137  0.44136  0.80989  1.0000
  H   H700      1.0  0.56455  0.37212  0.02373  1.0000
  H   H701      1.0  0.65494  0.35244  0.87833  1.0000
  H   H702      1.0  0.56452  0.40904  0.85759  1.0000
  S   S189      1.0  0.39318  0.49899  0.81031  1.0000
  H   H703      1.0  0.64819  0.45484  0.81208  1.0000
  H   H704      1.0  0.63681  0.41583  0.80049  1.0000
  C   C451      1.0  0.68476  0.44617  0.81346  1.0000
  H   H705      1.0  0.52714  0.37258  0.86684  1.0000
  N   N43       1.0  0.42745  0.43560  0.79715  1.0000
  H   H706      1.0  0.58529  0.39347  0.90463  1.0000
  H   H707      1.0  0.38579  0.38420  0.99225  1.0000
  H   H708      1.0  0.60862  0.40101  0.02037  1.0000
  H   H709      1.0  0.54635  0.35135  0.87996  1.0000
  H   H710      1.0  0.65336  0.38143  0.88834  1.0000
  H   H711      1.0  0.45329  0.45131  0.81708  1.0000
  S   S190      1.0  0.69237  0.47456  0.82024  1.0000
  C   C452      1.0  0.37584  0.37757  0.00787  1.0000
  S   S191      1.0  0.66438  0.37441  0.79063  1.0000
  H   H712      1.0  0.57891  0.36324  0.90244  1.0000
  C   C453      1.0  0.37886  0.47395  0.97726  1.0000
  H   H713      1.0  0.68511  0.35194  0.02451  1.0000
  H   H714      1.0  0.37543  0.46329  0.01342  1.0000
  H   H715      1.0  0.42861  0.42789  0.97362  1.0000
  H   H716      1.0  0.37723  0.35833  0.00851  1.0000
  H   H717      1.0  0.54483  0.40125  0.91941  1.0000
  H   H718      1.0  0.55614  0.36817  0.85513  1.0000
  C   C454      1.0  0.53886  0.38798  0.90759  1.0000
  C   C455      1.0  0.54550  0.36896  0.87149  1.0000
  C   C456      1.0  0.55399  0.40954  0.87410  1.0000
  C   C457      1.0  0.57813  0.38050  0.89320  1.0000
  H   H719      1.0  0.58999  0.37929  0.87768  1.0000
  H   H720      1.0  0.56117  0.42328  0.88461  1.0000
  H   H721      1.0  0.68926  0.37323  0.90993  1.0000
  H   H722      1.0  0.36483  0.48669  0.97828  1.0000
  H   H723      1.0  0.56542  0.40331  0.02278  1.0000
  H   H724      1.0  0.39800  0.41973  0.81479  1.0000
  H   H725      1.0  0.41975  0.42961  0.83343  1.0000
  C   C458      1.0  0.41071  0.43365  0.81701  1.0000
  H   H726      1.0  0.40055  0.45008  0.81924  1.0000
  C   C459      1.0  0.69546  0.35678  0.85419  1.0000
  H   H727      1.0  0.38492  0.38372  0.02314  1.0000
  S   S192      1.0  0.66942  0.30464  0.02070  1.0000
  C   C460      1.0  0.67190  0.40196  0.79976  1.0000
  H   H728      1.0  0.45040  0.51486  0.96417  1.0000
  C   C461      1.0  0.44377  0.45443  0.80081  1.0000
  H   H729      1.0  0.45364  0.41438  0.78036  1.0000
  C   C462      1.0  0.66078  0.37041  0.87443  1.0000
  H   H730      1.0  0.45048  0.40927  0.81106  1.0000
  N   N44       1.0  0.68644  0.37141  0.87303  1.0000
  H   H731      1.0  0.60851  0.36978  0.02212  1.0000
  C   C463      1.0  0.44069  0.41352  0.79507  1.0000
  C   C464      1.0  0.69527  0.40669  0.80336  1.0000
  Fe  Fe93      1.0  0.69445  0.31211  0.99036  1.0000
  H   H732      1.0  0.65301  0.37637  0.85781  1.0000
  H   H733      1.0  0.42897  0.39885  0.79236  1.0000
  H   H734      1.0  0.45701  0.45609  0.78643  1.0000
  C   C465      1.0  0.36462  0.49075  0.80423  1.0000
  H   H735      1.0  0.69596  0.04217  0.78071  1.0000
  H   H736      1.0  0.69060  0.33835  0.85740  1.0000
  H   H737      1.0  0.68744  0.40705  0.88242  1.0000
  H   H738      1.0  0.68837  0.36262  0.83721  1.0000
  H   H739      1.0  0.68596  0.40286  0.85199  1.0000
  C   C466      1.0  0.69346  0.39563  0.86825  1.0000
  C   C467      1.0  0.69600  0.36283  0.89523  1.0000
  H   H740      1.0  0.43218  0.54641  0.17516  1.0000
  Fe  Fe94      1.0  0.51898  0.71454  0.25362  1.0000
  S   S193      1.0  0.55573  0.69974  0.25559  1.0000
  Fe  Fe95      1.0  0.48422  0.73718  0.22102  1.0000
  S   S194      1.0  0.45902  0.74538  0.24987  1.0000
  S   S195      1.0  0.47889  0.74767  0.18356  1.0000
  Fe  Fe96      1.0  0.46723  0.70962  0.26355  1.0000
  H   H741      1.0  0.39110  0.55729  0.16771  1.0000
  S   S196      1.0  0.51465  0.75096  0.23909  1.0000
  S   S197      1.0  0.49043  0.70031  0.23308  1.0000
  H   H742      1.0  0.40426  0.69790  0.03435  1.0000
  H   H743      1.0  0.66194  0.54137  0.06760  1.0000
  C   C468      1.0  0.63222  0.55636  0.10095  1.0000
  S   S198      1.0  0.37720  0.77283  0.15134  1.0000
  S   S199      1.0  0.38442  0.74060  0.09202  1.0000
  Fe  Fe97      1.0  0.62230  0.59677  0.19818  1.0000
  S   S200      1.0  0.65378  0.61744  0.20479  1.0000
  S   S201      1.0  0.58467  0.60641  0.20623  1.0000
  Fe  Fe98      1.0  0.65065  0.55987  0.17190  1.0000
  H   H744      1.0  0.40522  0.57632  0.22587  1.0000
  Fe  Fe99      1.0  0.67153  0.58292  0.21264  1.0000
  H   H745      1.0  0.57782  0.69123  0.16797  1.0000
  Fe  Fe100     1.0  0.66389  0.61077  0.16754  1.0000
  Fe  Fe101     1.0  0.37329  0.76438  0.06272  1.0000
  S   S202      1.0  0.63881  0.56272  0.20883  1.0000
  S   S203      1.0  0.63132  0.59211  0.16063  1.0000
  C   C469      1.0  0.56333  0.67333  0.24250  1.0000
  C   C470      1.0  0.58620  0.66446  0.24403  1.0000
  C   C471      1.0  0.59293  0.64378  0.23325  1.0000
  C   C472      1.0  0.57682  0.63188  0.22082  1.0000
  C   C473      1.0  0.55395  0.64064  0.21946  1.0000
  C   C474      1.0  0.54724  0.66131  0.23019  1.0000
  H   H746      1.0  0.59870  0.67355  0.25371  1.0000
  H   H747      1.0  0.61046  0.63690  0.23482  1.0000
  H   H748      1.0  0.54135  0.63145  0.20999  1.0000
  H   H749      1.0  0.52959  0.66785  0.22895  1.0000
  H   H750      1.0  0.40380  0.67875  0.17595  1.0000
  C   C475      1.0  0.43275  0.66821  0.23758  1.0000
  C   C476      1.0  0.65814  0.56036  0.06739  1.0000
  C   C477      1.0  0.40026  0.64432  0.22828  1.0000
  C   C478      1.0  0.38928  0.64944  0.24947  1.0000
  H   H751      1.0  0.62781  0.56203  0.11878  1.0000
  H   H752      1.0  0.36756  0.65953  0.16650  1.0000
  C   C479      1.0  0.38940  0.56297  0.18587  1.0000
  C   C480      1.0  0.45017  0.75215  0.17440  1.0000
  C   C481      1.0  0.44621  0.75665  0.15087  1.0000
  C   C482      1.0  0.42368  0.76217  0.14341  1.0000
  C   C483      1.0  0.40520  0.76394  0.15959  1.0000
  C   C484      1.0  0.40912  0.75922  0.18306  1.0000
  C   C485      1.0  0.43141  0.75279  0.19037  1.0000
  H   H753      1.0  0.46063  0.75607  0.13839  1.0000
  H   H754      1.0  0.42077  0.76586  0.12526  1.0000
  H   H755      1.0  0.39486  0.76053  0.19565  1.0000
  H   H756      1.0  0.43408  0.74882  0.20843  1.0000
  Fe  Fe102     1.0  0.36652  0.76631  0.11505  1.0000
  H   H757      1.0  0.64515  0.60062  0.10752  1.0000
  Fe  Fe103     1.0  0.48979  0.75656  0.26918  1.0000
  H   H758      1.0  0.67653  0.54428  0.10757  1.0000
  C   C486      1.0  0.42929  0.55228  0.19317  1.0000
  N   N45       1.0  0.37050  0.69594  0.17232  1.0000
  C   C487      1.0  0.63106  0.67474  0.18739  1.0000
  H   H759      1.0  0.66998  0.56982  0.12335  1.0000
  C   C488      1.0  0.37421  0.70208  0.14748  1.0000
  H   H760      1.0  0.44952  0.67520  0.23285  1.0000
  H   H761      1.0  0.68514  0.65652  0.05878  1.0000
  H   H762      1.0  0.38666  0.68051  0.05416  1.0000
  H   H763      1.0  0.66628  0.66364  0.09722  1.0000
  C   C489      1.0  0.39325  0.69322  0.18339  1.0000
  H   H764      1.0  0.43060  0.64981  0.20607  1.0000
  C   C490      1.0  0.67302  0.56328  0.10562  1.0000
  H   H765      1.0  0.62512  0.66401  0.20270  1.0000
  N   N46       1.0  0.47356  0.81512  0.20957  1.0000
  S   S204      1.0  0.67037  0.64064  0.14180  1.0000
  C   C491      1.0  0.46926  0.81637  0.18450  1.0000
  C   C492      1.0  0.47170  0.83852  0.21904  1.0000
  C   C493      1.0  0.49712  0.80528  0.21338  1.0000
  H   H766      1.0  0.45148  0.82335  0.18097  1.0000
  H   H767      1.0  0.48207  0.82755  0.17488  1.0000
  H   H768      1.0  0.47063  0.79887  0.17697  1.0000
  H   H769      1.0  0.45405  0.84635  0.21663  1.0000
  H   H770      1.0  0.48460  0.85038  0.21046  1.0000
  H   H771      1.0  0.62645  0.70894  0.15512  1.0000
  C   C494      1.0  0.67885  0.64957  0.09543  1.0000
  H   H772      1.0  0.39105  0.68927  0.20231  1.0000
  C   C495      1.0  0.42876  0.73898  0.03334  1.0000
  S   S205      1.0  0.68440  0.57805  0.17589  1.0000
  H   H773      1.0  0.38031  0.71083  0.05020  1.0000
  C   C496      1.0  0.68417  0.63529  0.11478  1.0000
  S   S206      1.0  0.38751  0.62637  0.20851  1.0000
  H   H774      1.0  0.45842  0.71565  0.03639  1.0000
  H   H775      1.0  0.39331  0.58179  0.18582  1.0000
  H   H776      1.0  0.36568  0.73146  0.18157  1.0000
  H   H777      1.0  0.64705  0.66618  0.18003  1.0000
  H   H778      1.0  0.45761  0.78224  0.21504  1.0000
  H   H779      1.0  0.63241  0.59816  0.07977  1.0000
  C   C497      1.0  0.40030  0.66367  0.26486  1.0000
  H   H780      1.0  0.63609  0.69182  0.19374  1.0000
  H   H781      1.0  0.50063  0.80326  0.23219  1.0000
  H   H782      1.0  0.43807  0.80648  0.21852  1.0000
  H   H783      1.0  0.60023  0.64293  0.17724  1.0000
  H   H784      1.0  0.59244  0.65528  0.14971  1.0000
  H   H785      1.0  0.38409  0.68823  0.13828  1.0000
  H   H786      1.0  0.61664  0.55968  0.09036  1.0000
  C   C498      1.0  0.42198  0.65373  0.22241  1.0000
  H   H787      1.0  0.64332  0.56396  0.05584  1.0000
  C   C499      1.0  0.60651  0.65415  0.16244  1.0000
  H   H788      1.0  0.62173  0.64505  0.15427  1.0000
  H   H789      1.0  0.66289  0.60318  0.08154  1.0000
  C   C500      1.0  0.68954  0.64559  0.07365  1.0000
  S   S207      1.0  0.69038  0.57009  0.24476  1.0000
  H   H790      1.0  0.51084  0.81641  0.20516  1.0000
  H   H791      1.0  0.42665  0.74122  0.05178  1.0000
  H   H792      1.0  0.58463  0.67822  0.19548  1.0000
  H   H793      1.0  0.40362  0.70924  0.18115  1.0000
  C   C501      1.0  0.42211  0.67308  0.25896  1.0000
  N   N47       1.0  0.65284  0.56842  0.09098  1.0000
  H   H794      1.0  0.59601  0.70600  0.18718  1.0000
  H   H795      1.0  0.47494  0.83793  0.23795  1.0000
  H   H796      1.0  0.45865  0.79890  0.24049  1.0000
  H   H797      1.0  0.60828  0.69348  0.13649  1.0000
  N   N48       1.0  0.61275  0.67727  0.17010  1.0000
  H   H798      1.0  0.49924  0.78783  0.20586  1.0000
  C   C502      1.0  0.45616  0.80009  0.22147  1.0000
  H   H799      1.0  0.37090  0.56103  0.19165  1.0000
  C   C503      1.0  0.62156  0.69136  0.14999  1.0000
  H   H800      1.0  0.63734  0.68306  0.14182  1.0000
  H   H801      1.0  0.68909  0.57135  0.09818  1.0000
  C   C504      1.0  0.64807  0.59368  0.08992  1.0000
  C   C505      1.0  0.59193  0.68874  0.18058  1.0000
  H   H802      1.0  0.43429  0.57081  0.19337  1.0000
  N   N49       1.0  0.40485  0.54927  0.20123  1.0000
  H   H803      1.0  0.37248  0.64223  0.25413  1.0000
  C   C506      1.0  0.38615  0.69503  0.04100  1.0000
  H   H804      1.0  0.67364  0.56921  0.05939  1.0000
  H   H805      1.0  0.63533  0.53725  0.10233  1.0000
  H   H806      1.0  0.38366  0.55473  0.23190  1.0000
  C   C507      1.0  0.40176  0.55742  0.22508  1.0000
  H   H807      1.0  0.38402  0.71846  0.14488  1.0000
  H   H808      1.0  0.68586  0.53357  0.21291  1.0000
  H   H809      1.0  0.41368  0.54801  0.23710  1.0000
  H   H810      1.0  0.65777  0.53049  0.24653  1.0000
  H   H811      1.0  0.44149  0.54215  0.20436  1.0000
  S   S208      1.0  0.43593  0.69066  0.27849  1.0000
  H   H812      1.0  0.51710  0.96697  0.37531  1.0000
  Fe  Fe104     1.0  0.52385  0.89600  0.42043  1.0000
  S   S209      1.0  0.51362  0.88735  0.38482  1.0000
  S   S210      1.0  0.55635  0.91720  0.42318  1.0000
  Fe  Fe105     1.0  0.47756  0.87888  0.44231  1.0000
  S   S211      1.0  0.46364  0.86904  0.40802  1.0000
  S   S212      1.0  0.45989  0.88091  0.47794  1.0000
  Fe  Fe106     1.0  0.49986  0.85441  0.40110  1.0000
  S   S213      1.0  0.51073  0.81994  0.38565  1.0000
  Fe  Fe107     1.0  0.47864  0.90283  0.39431  1.0000
  S   S214      1.0  0.46428  0.92889  0.36800  1.0000
  S   S215      1.0  0.51280  0.86191  0.43653  1.0000
  S   S216      1.0  0.48975  0.91369  0.42879  1.0000
  H   H813      1.0  0.40569  0.74341  0.34277  1.0000
  H   H814      1.0  0.48526  0.99500  0.40655  1.0000
  H   H815      1.0  0.44082  0.77251  0.31460  1.0000
  Fe  Fe108     1.0  0.68202  0.89977  0.46929  1.0000
  S   S217      1.0  0.67924  0.93249  0.48921  1.0000
  S   S218      1.0  0.65142  0.87706  0.46250  1.0000
  H   H816      1.0  0.61290  0.83209  0.39464  1.0000
  H   H817      1.0  0.59738  0.81172  0.37851  1.0000
  H   H818      1.0  0.59722  0.87153  0.39947  1.0000
  H   H819      1.0  0.45716  0.70998  0.32081  1.0000
  H   H820      1.0  0.54763  0.85175  0.36578  1.0000
  C   C508      1.0  0.50316  0.81249  0.35748  1.0000
  C   C509      1.0  0.51169  0.79153  0.34851  1.0000
  C   C510      1.0  0.50598  0.78503  0.32618  1.0000
  C   C511      1.0  0.49151  0.79938  0.31270  1.0000
  C   C512      1.0  0.48311  0.82038  0.32162  1.0000
  C   C513      1.0  0.48891  0.82694  0.34389  1.0000
  H   H821      1.0  0.52283  0.78029  0.35887  1.0000
  H   H822      1.0  0.51285  0.76897  0.31939  1.0000
  H   H823      1.0  0.47198  0.83167  0.31130  1.0000
  H   H824      1.0  0.48225  0.84313  0.35057  1.0000
  C   C514      1.0  0.58223  0.90607  0.43532  1.0000
  C   C515      1.0  0.60184  0.92016  0.43506  1.0000
  C   C516      1.0  0.62304  0.91163  0.44376  1.0000
  C   C517      1.0  0.62482  0.88883  0.45254  1.0000
  C   C518      1.0  0.60516  0.87474  0.45286  1.0000
  C   C519      1.0  0.58385  0.88340  0.44451  1.0000
  H   H825      1.0  0.60073  0.93772  0.42797  1.0000
  H   H826      1.0  0.63810  0.92257  0.44335  1.0000
  H   H827      1.0  0.60641  0.85714  0.45982  1.0000
  H   H828      1.0  0.56873  0.87256  0.44514  1.0000
  C   C520      1.0  0.43739  0.99833  0.39511  1.0000
  C   C521      1.0  0.43669  0.97825  0.40945  1.0000
  C   C522      1.0  0.44504  0.95693  0.40131  1.0000
  C   C523      1.0  0.45362  0.95545  0.37854  1.0000
  C   C524      1.0  0.45440  0.97554  0.36415  1.0000
  C   C525      1.0  0.44664  0.99703  0.37253  1.0000
  H   H829      1.0  0.42965  0.97919  0.42698  1.0000
  H   H830      1.0  0.44440  0.94154  0.41253  1.0000
  H   H831      1.0  0.46138  0.97451  0.34662  1.0000
  C   C526      1.0  0.37083  0.91511  0.51299  1.0000
  C   C527      1.0  0.41153  0.82733  0.51344  1.0000
  C   C528      1.0  0.41887  0.82485  0.49026  1.0000
  C   C529      1.0  0.43402  0.84090  0.47919  1.0000
  C   C530      1.0  0.44194  0.85953  0.49130  1.0000
  C   C531      1.0  0.43489  0.86178  0.51461  1.0000
  H   H832      1.0  0.57817  0.83769  0.42030  1.0000
  H   H833      1.0  0.41262  0.81060  0.48072  1.0000
  H   H834      1.0  0.43936  0.83901  0.46125  1.0000
  H   H835      1.0  0.47986  0.74223  0.33554  1.0000
  H   H836      1.0  0.38911  0.91441  0.50597  1.0000
  H   H837      1.0  0.44369  0.70569  0.34902  1.0000
  C   C532      1.0  0.38993  0.99259  0.33816  1.0000
  H   H838      1.0  0.39196  0.98024  0.32388  1.0000
  N   N50       1.0  0.44253  0.74097  0.33557  1.0000
  H   H839      1.0  0.38559  0.87249  0.50351  1.0000
  H   H840      1.0  0.59351  0.87605  0.36900  1.0000
  H   H841      1.0  0.55911  0.82313  0.36210  1.0000
  C   C533      1.0  0.42242  0.74775  0.35058  1.0000
  H   H842      1.0  0.56919  0.87977  0.38890  1.0000
  N   N51       1.0  0.51883  0.97847  0.41023  1.0000
  C   C534      1.0  0.50407  0.99919  0.40511  1.0000
  C   C535      1.0  0.51435  0.96049  0.39350  1.0000
  C   C536      1.0  0.51319  0.96948  0.43395  1.0000
  C   C537      1.0  0.54364  0.98464  0.40837  1.0000
  H   H843      1.0  0.42659  0.01926  0.32657  1.0000
  H   H844      1.0  0.41328  0.01055  0.30069  1.0000
  H   H845      1.0  0.54855  0.99122  0.39061  1.0000
  H   H846      1.0  0.52583  0.94496  0.39613  1.0000
  H   H847      1.0  0.49620  0.95446  0.39539  1.0000
  H   H848      1.0  0.50697  0.01321  0.41732  1.0000
  H   H849      1.0  0.51667  0.98245  0.44707  1.0000
  H   H850      1.0  0.52371  0.95357  0.43828  1.0000
  H   H851      1.0  0.49450  0.96487  0.43602  1.0000
  H   H852      1.0  0.42208  0.76673  0.35341  1.0000
  S   S219      1.0  0.49625  0.72118  0.28543  1.0000
  H   H853      1.0  0.54770  0.99824  0.42066  1.0000
  H   H854      1.0  0.44120  0.87602  0.52412  1.0000
  C   C538      1.0  0.44238  0.71569  0.33231  1.0000
  H   H855      1.0  0.55085  0.84612  0.40809  1.0000
  H   H856      1.0  0.40470  0.98928  0.34989  1.0000
  H   H857      1.0  0.42617  0.71041  0.32407  1.0000
  H   H858      1.0  0.56224  0.81755  0.40411  1.0000
  H   H859      1.0  0.61078  0.83625  0.36387  1.0000
  H   H860      1.0  0.46615  0.73813  0.36367  1.0000
  H   H861      1.0  0.42300  0.73868  0.36786  1.0000
  H   H862      1.0  0.44775  0.01253  0.36159  1.0000
  H   H863      1.0  0.67588  0.98835  0.49462  1.0000
  H   H864      1.0  0.57273  0.84733  0.34703  1.0000
  N   N52       1.0  0.57939  0.84425  0.38343  1.0000
  C   C539      1.0  0.56415  0.84152  0.36367  1.0000
  C   C540      1.0  0.60108  0.83046  0.37993  1.0000
  C   C541      1.0  0.56723  0.83602  0.40497  1.0000
  C   C542      1.0  0.58507  0.86896  0.38523  1.0000
  H   H865      1.0  0.36896  0.93065  0.52380  1.0000
  H   H866      1.0  0.50755  0.00635  0.38725  1.0000
  C   C543      1.0  0.46434  0.74711  0.34647  1.0000
  H   H867      1.0  0.45617  0.74905  0.30137  1.0000
  H   H868      1.0  0.42511  0.74864  0.30375  1.0000
  C   C544      1.0  0.44099  0.75336  0.31287  1.0000
  H   H869      1.0  0.46507  0.76610  0.34908  1.0000
  C   C545      1.0  0.36924  0.02069  0.31415  1.0000
  H   H870      1.0  0.55511  0.96927  0.41235  1.0000
  C   C546      1.0  0.41106  0.02188  0.31577  1.0000
  C   C547      1.0  0.67457  0.99304  0.51313  1.0000
  N   N53       1.0  0.38933  0.01689  0.32922  1.0000
  C   C548      1.0  0.36778  0.87356  0.51161  1.0000
  H   H871      1.0  0.36486  0.85693  0.52155  1.0000
  S   S220      1.0  0.48332  0.79182  0.28475  1.0000
  S   S221      1.0  0.42655  0.02456  0.40614  1.0000
  H   H872      1.0  0.39193  0.66735  0.28137  1.0000
  H   H873      1.0  0.66088  0.00683  0.51472  1.0000
  S   S222      1.0  0.39180  0.80734  0.52639  1.0000
  H   H874      1.0  0.66835  0.97751  0.52319  1.0000
  H   H875      1.0  0.37370  0.98826  0.34827  1.0000
  C   C549      1.0  0.41983  0.84568  0.52570  1.0000
  H   H876      1.0  0.36998  0.00878  0.29945  1.0000
  N   N54       1.0  0.36506  0.89372  0.52658  1.0000
  C   C550      1.0  0.38561  0.91933  0.76807  1.0000
  S   S223      1.0  0.38413  0.83430  0.58897  1.0000
  S   S224      1.0  0.39032  0.79011  0.64232  1.0000
  C   C551      1.0  0.44731  0.76503  0.61123  1.0000
  H   H877      1.0  0.43611  0.77125  0.62592  1.0000
  S   S225      1.0  0.51035  0.84217  0.73813  1.0000
  Fe  Fe109     1.0  0.45095  0.86756  0.76000  1.0000
  S   S226      1.0  0.47198  0.88418  0.73120  1.0000
  S   S227      1.0  0.52468  0.90822  0.75900  1.0000
  Fe  Fe110     1.0  0.47746  0.84836  0.71856  1.0000
  S   S228      1.0  0.47342  0.84656  0.68004  1.0000
  Fe  Fe111     1.0  0.50261  0.87689  0.75335  1.0000
  Fe  Fe112     1.0  0.68518  0.98202  0.69312  1.0000
  S   S229      1.0  0.45400  0.83196  0.74583  1.0000
  H   H878      1.0  0.46465  0.76695  0.56747  1.0000
  S   S230      1.0  0.67329  0.01082  0.66866  1.0000
  Fe  Fe113     1.0  0.63757  0.95905  0.69489  1.0000
  S   S231      1.0  0.66986  0.95438  0.67233  1.0000
  S   S232      1.0  0.61976  0.92474  0.70228  1.0000
  C   C552      1.0  0.38089  0.89089  0.54612  1.0000
  Fe  Fe114     1.0  0.65506  0.98318  0.65018  1.0000
  S   S233      1.0  0.64918  0.98092  0.61175  1.0000
  S   S234      1.0  0.65414  0.98454  0.71760  1.0000
  S   S235      1.0  0.62196  0.98660  0.67158  1.0000
  H   H879      1.0  0.49992  0.95452  0.76393  1.0000
  C   C553      1.0  0.66673  0.96213  0.59502  1.0000
  C   C554      1.0  0.65971  0.95679  0.57286  1.0000
  C   C555      1.0  0.67390  0.94276  0.55863  1.0000
  H   H880      1.0  0.45596  0.73780  0.57487  1.0000
  C   C556      1.0  0.37869  0.94183  0.76089  1.0000
  H   H881      1.0  0.64335  0.96368  0.56663  1.0000
  H   H882      1.0  0.66835  0.93859  0.54164  1.0000
  C   C557      1.0  0.55043  0.91307  0.74215  1.0000
  C   C558      1.0  0.56068  0.89565  0.72885  1.0000
  C   C559      1.0  0.58185  0.89960  0.71664  1.0000
  C   C560      1.0  0.59273  0.92111  0.71725  1.0000
  C   C561      1.0  0.58220  0.93876  0.73005  1.0000
  C   C562      1.0  0.56121  0.93466  0.74264  1.0000
  H   H883      1.0  0.55259  0.87893  0.72845  1.0000
  H   H884      1.0  0.58998  0.88578  0.70695  1.0000
  H   H885      1.0  0.59051  0.95534  0.73072  1.0000
  H   H886      1.0  0.41406  0.79489  0.59735  1.0000
  C   C563      1.0  0.44934  0.75567  0.57079  1.0000
  H   H887      1.0  0.61007  0.87970  0.63965  1.0000
  C   C564      1.0  0.41517  0.94621  0.73938  1.0000
  C   C565      1.0  0.39368  0.95547  0.74690  1.0000
  H   H888      1.0  0.42129  0.89713  0.70322  1.0000
  H   H889      1.0  0.38076  0.90649  0.71651  1.0000
  H   H890      1.0  0.60263  0.89745  0.66372  1.0000
  H   H891      1.0  0.41338  0.90322  0.67380  1.0000
  C   C566      1.0  0.41259  0.80674  0.65315  1.0000
  C   C567      1.0  0.42025  0.80193  0.67558  1.0000
  C   C568      1.0  0.43866  0.81432  0.68423  1.0000
  C   C569      1.0  0.44977  0.83127  0.67027  1.0000
  C   C570      1.0  0.44214  0.83604  0.64784  1.0000
  C   C571      1.0  0.42350  0.82397  0.63937  1.0000
  H   H892      1.0  0.41205  0.78847  0.68628  1.0000
  H   H893      1.0  0.44467  0.81026  0.70142  1.0000
  H   H894      1.0  0.45074  0.84910  0.63696  1.0000
  H   H895      1.0  0.41800  0.82778  0.62205  1.0000
  H   H896      1.0  0.41465  0.84747  0.54367  1.0000
  N   N55       1.0  0.43411  0.76439  0.58976  1.0000
  C   C572      1.0  0.41404  0.74898  0.59363  1.0000
  H   H897      1.0  0.39943  0.89018  0.54002  1.0000
  C   C573      1.0  0.40742  0.91027  0.76111  1.0000
  C   C574      1.0  0.42564  0.78799  0.58340  1.0000
  C   C575      1.0  0.68773  0.95293  0.60310  1.0000
  H   H898      1.0  0.44020  0.80025  0.58048  1.0000
  Fe  Fe115     1.0  0.48631  0.82795  0.76679  1.0000
  H   H899      1.0  0.36447  0.86192  0.67539  1.0000
  H   H900      1.0  0.46225  0.77696  0.60919  1.0000
  H   H901      1.0  0.42674  0.87582  0.68187  1.0000
  C   C576      1.0  0.41405  0.88944  0.68770  1.0000
  H   H902      1.0  0.40351  0.74829  0.57786  1.0000
  H   H903      1.0  0.45421  0.74756  0.61648  1.0000
  Fe  Fe116     1.0  0.37092  0.80495  0.61178  1.0000
  Fe  Fe117     1.0  0.64135  0.01188  0.69188  1.0000
  H   H904      1.0  0.37872  0.90541  0.55822  1.0000
  N   N56       1.0  0.61399  0.91631  0.63284  1.0000
  C   C577      1.0  0.63865  0.91583  0.63928  1.0000
  C   C578      1.0  0.61274  0.91473  0.60749  1.0000
  C   C579      1.0  0.60268  0.93821  0.64009  1.0000
  C   C580      1.0  0.60194  0.89655  0.64453  1.0000
  H   H905      1.0  0.64027  0.91622  0.65836  1.0000
  H   H906      1.0  0.64806  0.93100  0.63154  1.0000
  H   H907      1.0  0.64795  0.89990  0.63344  1.0000
  H   H908      1.0  0.59439  0.91508  0.60194  1.0000
  H   H909      1.0  0.62175  0.92950  0.59835  1.0000
  H   H910      1.0  0.62119  0.89846  0.60135  1.0000
  H   H911      1.0  0.58406  0.93919  0.63547  1.0000
  H   H912      1.0  0.61145  0.95353  0.63183  1.0000
  H   H913      1.0  0.60324  0.93995  0.65913  1.0000
  H   H914      1.0  0.58324  0.89637  0.64018  1.0000
  H   H915      1.0  0.39933  0.86866  0.72760  1.0000
  C   C581      1.0  0.42197  0.92364  0.74639  1.0000
  H   H916      1.0  0.55344  0.94819  0.75296  1.0000
  H   H917      1.0  0.39375  0.85546  0.66565  1.0000
  H   H918      1.0  0.43864  0.91689  0.74069  1.0000
  H   H919      1.0  0.41554  0.78825  0.56729  1.0000
  H   H920      1.0  0.68097  0.01995  0.54889  1.0000
  S   S236      1.0  0.38645  0.98449  0.73994  1.0000
  H   H921      1.0  0.37269  0.91236  0.68712  1.0000
  H   H922      1.0  0.68977  0.01666  0.76547  1.0000
  H   H923      1.0  0.38013  0.88278  0.65765  1.0000
  H   H924      1.0  0.40218  0.75513  0.60787  1.0000
  H   H925      1.0  0.40495  0.84732  0.70627  1.0000
  N   N57       1.0  0.39080  0.87974  0.69297  1.0000
  C   C582      1.0  0.37461  0.89837  0.70071  1.0000
  C   C583      1.0  0.39271  0.86156  0.71149  1.0000
  H   H926      1.0  0.41970  0.73098  0.59848  1.0000
  H   H927      1.0  0.68998  0.99098  0.55697  1.0000
  C   C584      1.0  0.38193  0.86954  0.67199  1.0000
  H   H928      1.0  0.42664  0.95661  0.72826  1.0000
  Fe  Fe118     1.0  0.37166  0.81387  0.55987  1.0000
  H   H929      1.0  0.43983  0.75526  0.55434  1.0000
  H   H930      1.0  0.69246  0.01744  0.72266  1.0000
  H   H931      1.0  0.45781  0.96176  0.75816  1.0000
  H   H932      1.0  0.37732  0.87468  0.55646  1.0000
  C   C585      1.0  0.69527  0.93420  0.56642  1.0000
  H   H933      1.0  0.47366  0.92173  0.76397  1.0000
  H   H934      1.0  0.37556  0.85373  0.71596  1.0000
  C   C586      1.0  0.45519  0.96252  0.77727  1.0000
  S   S237      1.0  0.41613  0.88258  0.77168  1.0000
  H   H935      1.0  0.69327  0.95695  0.62016  1.0000
  C   C587      1.0  0.69473  0.00644  0.54595  1.0000
  N   N58       1.0  0.37051  0.69014  0.02209  1.0000
  Fe  Fe119     1.0  0.48217  0.70177  0.95198  1.0000
  S   S238      1.0  0.45612  0.70694  0.92433  1.0000
  S   S239      1.0  0.47359  0.70475  0.99030  1.0000
  Fe  Fe120     1.0  0.52219  0.69255  0.91718  1.0000
  S   S240      1.0  0.49882  0.69672  0.88673  1.0000
  S   S241      1.0  0.56084  0.68799  0.90861  1.0000
  Fe  Fe121     1.0  0.48362  0.72750  0.90478  1.0000
  S   S242      1.0  0.47747  0.76427  0.89055  1.0000
  Fe  Fe122     1.0  0.47350  0.67548  0.90874  1.0000
  S   S243      1.0  0.44924  0.64912  0.89485  1.0000
  S   S244      1.0  0.50856  0.72472  0.93386  1.0000
  S   S245      1.0  0.49802  0.66891  0.93781  1.0000
  C   C588      1.0  0.41070  0.53940  0.97016  1.0000
  C   C589      1.0  0.49625  0.95582  0.78288  1.0000
  H   H936      1.0  0.54387  0.73245  0.89203  1.0000
  H   H937      1.0  0.55396  0.71444  0.83136  1.0000
  Fe  Fe123     1.0  0.67025  0.66441  0.98325  1.0000
  S   S246      1.0  0.63334  0.67815  0.98904  1.0000
  S   S247      1.0  0.67566  0.62700  0.99391  1.0000
  C   C590      1.0  0.54485  0.71955  0.84771  1.0000
  H   H938      1.0  0.54893  0.76263  0.88576  1.0000
  S   S248      1.0  0.69048  0.59399  0.93928  1.0000
  C   C591      1.0  0.55269  0.76003  0.83971  1.0000
  C   C592      1.0  0.44992  0.72179  0.00068  1.0000
  C   C593      1.0  0.43473  0.73328  0.98557  1.0000
  C   C594      1.0  0.41722  0.74829  0.99427  1.0000
  S   S249      1.0  0.48106  0.86227  0.78351  1.0000
  H   H939      1.0  0.56035  0.77612  0.84589  1.0000
  H   H940      1.0  0.40519  0.56328  0.92926  1.0000
  H   H941      1.0  0.43675  0.73089  0.96719  1.0000
  H   H942      1.0  0.40576  0.75749  0.98248  1.0000
  C   C595      1.0  0.44366  0.56036  0.95359  1.0000
  N   N59       1.0  0.42741  0.54136  0.95027  1.0000
  C   C596      1.0  0.48074  0.77187  0.86072  1.0000
  C   C597      1.0  0.47969  0.79536  0.85353  1.0000
  C   C598      1.0  0.48332  0.80209  0.83006  1.0000
  C   C599      1.0  0.48820  0.78535  0.81362  1.0000
  C   C600      1.0  0.48895  0.76184  0.82081  1.0000
  C   C601      1.0  0.48509  0.75510  0.84422  1.0000
  H   H943      1.0  0.47622  0.80846  0.86614  1.0000
  H   H944      1.0  0.48273  0.82023  0.82473  1.0000
  H   H945      1.0  0.49250  0.74879  0.80814  1.0000
  H   H946      1.0  0.48540  0.73695  0.84947  1.0000
  C   C602      1.0  0.58078  0.68697  0.93120  1.0000
  C   C603      1.0  0.57321  0.68533  0.95438  1.0000
  C   C604      1.0  0.58954  0.68305  0.97194  1.0000
  C   C605      1.0  0.61351  0.68222  0.96648  1.0000
  C   C606      1.0  0.62110  0.68431  0.94331  1.0000
  C   C607      1.0  0.60478  0.68673  0.92573  1.0000
  H   H947      1.0  0.55478  0.68550  0.95880  1.0000
  H   H948      1.0  0.58354  0.68161  0.98985  1.0000
  H   H949      1.0  0.63954  0.68419  0.93899  1.0000
  H   H950      1.0  0.61077  0.68815  0.90784  1.0000
  C   C608      1.0  0.46513  0.57111  0.88926  1.0000
  C   C609      1.0  0.44402  0.58077  0.88189  1.0000
  C   C610      1.0  0.43944  0.60468  0.88376  1.0000
  C   C611      1.0  0.45589  0.61917  0.89292  1.0000
  C   C612      1.0  0.47698  0.60950  0.90035  1.0000
  C   C613      1.0  0.48156  0.58557  0.89850  1.0000
  H   H951      1.0  0.43131  0.56989  0.87454  1.0000
  H   H952      1.0  0.42314  0.61206  0.87787  1.0000
  H   H953      1.0  0.48978  0.62049  0.90740  1.0000
  H   H954      1.0  0.49794  0.57824  0.90421  1.0000
  N   N60       1.0  0.62329  0.61450  0.92829  1.0000
  C   C614      1.0  0.59893  0.62205  0.92455  1.0000
  C   C615      1.0  0.62637  0.58990  0.92244  1.0000
  C   C616      1.0  0.62873  0.61724  0.95281  1.0000
  C   C617      1.0  0.63918  0.62877  0.91338  1.0000
  H   H955      1.0  0.58644  0.61118  0.93498  1.0000
  H   H956      1.0  0.59441  0.62119  0.90606  1.0000
  H   H957      1.0  0.59578  0.64022  0.92972  1.0000
  H   H958      1.0  0.54614  0.70456  0.86033  1.0000
  H   H959      1.0  0.62230  0.58719  0.90408  1.0000
  H   H960      1.0  0.64466  0.58375  0.92487  1.0000
  H   H961      1.0  0.61672  0.60728  0.96465  1.0000
  H   H962      1.0  0.62740  0.63570  0.95767  1.0000
  H   H963      1.0  0.64675  0.61110  0.95634  1.0000
  H   H964      1.0  0.63575  0.62701  0.89474  1.0000
  H   H965      1.0  0.58185  0.72143  0.87450  1.0000
  H   H966      1.0  0.63736  0.64742  0.91725  1.0000
  N   N61       1.0  0.47060  0.78803  0.95689  1.0000
  C   C618      1.0  0.45259  0.77626  0.94428  1.0000
  C   C619      1.0  0.46126  0.81064  0.96451  1.0000
  C   C620      1.0  0.49125  0.79170  0.94139  1.0000
  C   C621      1.0  0.47728  0.77357  0.97731  1.0000
  H   H967      1.0  0.45870  0.75875  0.93901  1.0000
  H   H968      1.0  0.44795  0.78614  0.92814  1.0000
  H   H969      1.0  0.43635  0.77411  0.95500  1.0000
  H   H970      1.0  0.44560  0.80842  0.97620  1.0000
  H   H971      1.0  0.47436  0.82002  0.97413  1.0000
  H   H972      1.0  0.45602  0.82194  0.94950  1.0000
  H   H973      1.0  0.49872  0.77493  0.93546  1.0000
  H   H974      1.0  0.50517  0.80079  0.95012  1.0000
  H   H975      1.0  0.48672  0.80209  0.92551  1.0000
  H   H976      1.0  0.49172  0.78129  0.98654  1.0000
  H   H977      1.0  0.46244  0.77151  0.99001  1.0000
  H   H978      1.0  0.58778  0.75150  0.86880  1.0000
  H   H979      1.0  0.61494  0.57854  0.93356  1.0000
  H   H980      1.0  0.39750  0.67294  0.00216  1.0000
  H   H981      1.0  0.68854  0.55632  0.90853  1.0000
  N   N62       1.0  0.55487  0.74058  0.85688  1.0000
  H   H982      1.0  0.47006  0.96744  0.82030  1.0000
  C   C622      1.0  0.41411  0.75111  0.01816  1.0000
  H   H983      1.0  0.48313  0.75583  0.97239  1.0000
  H   H984      1.0  0.45651  0.56200  0.93879  1.0000
  H   H985      1.0  0.53413  0.76417  0.83612  1.0000
  H   H986      1.0  0.52337  0.74945  0.87575  1.0000
  C   C623      1.0  0.44672  0.72451  0.02459  1.0000
  C   C624      1.0  0.54224  0.74657  0.87856  1.0000
  H   H987      1.0  0.45271  0.91677  0.78728  1.0000
  H   H988      1.0  0.65772  0.62365  0.91598  1.0000
  H   H989      1.0  0.52612  0.72228  0.84395  1.0000
  S   S250      1.0  0.47137  0.54100  0.88805  1.0000
  H   H990      1.0  0.58980  0.73152  0.84565  1.0000
  C   C625      1.0  0.57969  0.73609  0.86163  1.0000
  H   H991      1.0  0.38657  0.71375  0.99729  1.0000
  S   S251      1.0  0.49497  0.79298  0.78431  1.0000
  C   C626      1.0  0.47036  0.92354  0.78286  1.0000
  H   H992      1.0  0.56152  0.75595  0.82290  1.0000
  H   H993      1.0  0.48144  0.93836  0.82429  1.0000
  H   H994      1.0  0.42658  0.54666  0.91346  1.0000
  H   H995      1.0  0.37420  0.90907  0.77940  1.0000
  H   H996      1.0  0.40020  0.55565  0.97211  1.0000
  H   H997      1.0  0.48329  0.91202  0.79173  1.0000
  H   H998      1.0  0.45089  0.94322  0.82009  1.0000
  H   H999      1.0  0.38079  0.65419  0.02143  1.0000
  H   H1000     1.0  0.41974  0.53561  0.98662  1.0000
  C   C627      1.0  0.46857  0.94933  0.81468  1.0000
  H   H1001     1.0  0.50983  0.94493  0.79160  1.0000
  H   H1002     1.0  0.45365  0.55736  0.96959  1.0000
  C   C628      1.0  0.41458  0.54625  0.92890  1.0000
  N   N63       1.0  0.47258  0.94784  0.78943  1.0000
  H   H1003     1.0  0.43432  0.57737  0.95478  1.0000
  S   S252      1.0  0.69020  0.66144  0.94943  1.0000
  H   H1004     1.0  0.40151  0.53276  0.92624  1.0000
  C   C629      1.0  0.37967  0.66981  0.00964  1.0000
  C   C630      1.0  0.36935  0.71047  0.00589  1.0000
  H   H1005     1.0  0.36840  0.66568  0.99515  1.0000
  S   S253      1.0  0.39237  0.77060  0.02819  1.0000
  H   H1006     1.0  0.49869  0.97412  0.78744  1.0000
  H   H1007     1.0  0.36393  0.72652  0.01497  1.0000
  H   H1008     1.0  0.43712  0.95680  0.78161  1.0000
  H   H1009     1.0  0.45621  0.98100  0.78184  1.0000
  Fe  Fe124     1.0  0.90783  0.09012  0.21260  1.0000
  S   S254      1.0  0.94718  0.09052  0.21032  1.0000
  S   S255      1.0  0.89183  0.07928  0.24780  1.0000
  Fe  Fe125     1.0  0.90362  0.10462  0.16137  1.0000
  S   S256      1.0  0.94215  0.10714  0.15599  1.0000
  S   S257      1.0  0.87891  0.10746  0.13154  1.0000
  Fe  Fe126     1.0  0.94378  0.07327  0.17629  1.0000
  Fe  Fe127     1.0  0.94201  0.12413  0.19029  1.0000
  S   S258      1.0  0.96113  0.15773  0.19457  1.0000
  S   S259      1.0  0.90512  0.06995  0.18033  1.0000
  S   S260      1.0  0.90279  0.12466  0.19406  1.0000
  H   H1010     1.0  0.85916  0.20060  0.04086  1.0000
  C   C631      1.0  0.98527  0.16158  0.21218  1.0000
  C   C632      1.0  0.99210  0.14480  0.22875  1.0000
  H   H1011     1.0  0.84996  0.16281  0.07764  1.0000
  C   C633      1.0  0.81259  0.19782  0.04733  1.0000
  H   H1012     1.0  0.81786  0.12421  0.24568  1.0000
  C   C634      1.0  0.99724  0.18255  0.21016  1.0000
  H   H1013     1.0  0.98340  0.12841  0.23007  1.0000
  S   S261      1.0  0.96558  0.04626  0.15743  1.0000
  H   H1014     1.0  0.99217  0.19556  0.19726  1.0000
  C   C635      1.0  0.88860  0.11939  0.10448  1.0000
  C   C636      1.0  0.87528  0.11652  0.08490  1.0000
  C   C637      1.0  0.88254  0.12596  0.06314  1.0000
  C   C638      1.0  0.90301  0.13861  0.06095  1.0000
  C   C639      1.0  0.91637  0.14132  0.08048  1.0000
  C   C640      1.0  0.90925  0.13168  0.10214  1.0000
  H   H1015     1.0  0.85933  0.10690  0.08658  1.0000
  H   H1016     1.0  0.87237  0.12341  0.04811  1.0000
  H   H1017     1.0  0.93220  0.15112  0.07895  1.0000
  H   H1018     1.0  0.91955  0.13418  0.11712  1.0000
  C   C641      1.0  0.86431  0.08909  0.25875  1.0000
  H   H1019     1.0  0.69892  0.51890  0.25082  1.0000
  C   C642      1.0  0.94388  0.10936  0.27163  1.0000
  H   H1020     1.0  0.86450  0.17022  0.03729  1.0000
  H   H1021     1.0  0.85609  0.11094  0.22912  1.0000
  C   C643      1.0  0.01581  0.18681  0.22457  1.0000
  C   C644      1.0  0.02217  0.17035  0.24165  1.0000
  S   S262      1.0  0.91241  0.15168  0.03431  1.0000
  H   H1022     1.0  0.91249  0.15422  0.24783  1.0000
  H   H1023     1.0  0.94197  0.05809  0.11059  1.0000
  H   H1024     1.0  0.83306  0.14227  0.04536  1.0000
  C   C645      1.0  0.92224  0.13738  0.24851  1.0000
  C   C646      1.0  0.83653  0.17675  0.07490  1.0000
  H   H1025     1.0  0.82122  0.17244  0.08640  1.0000
  C   C647      1.0  0.92328  0.06247  0.11415  1.0000
  H   H1026     1.0  0.80439  0.15241  0.05379  1.0000
  H   H1027     1.0  0.92210  0.06993  0.13155  1.0000
  N   N64       1.0  0.83012  0.17895  0.05037  1.0000
  H   H1028     1.0  0.91785  0.07644  0.10158  1.0000
  H   H1029     1.0  0.93703  0.13870  0.23565  1.0000
  H   H1030     1.0  0.91035  0.12404  0.24266  1.0000
  H   H1031     1.0  0.02182  0.22456  0.26116  1.0000
  C   C648      1.0  0.91009  0.03287  0.08964  1.0000
  C   C649      1.0  0.88411  0.04851  0.11904  1.0000
  H   H1032     1.0  0.02497  0.20295  0.22264  1.0000
  H   H1033     1.0  0.95933  0.11060  0.25961  1.0000
  C   C650      1.0  0.01018  0.14936  0.24371  1.0000
  H   H1034     1.0  0.93322  0.09496  0.26575  1.0000
  H   H1035     1.0  0.90401  0.04609  0.07659  1.0000
  N   N65       1.0  0.93036  0.13142  0.27195  1.0000
  H   H1036     1.0  0.96056  0.15256  0.26736  1.0000
  C   C651      1.0  0.82033  0.15692  0.04332  1.0000
  H   H1037     1.0  0.84387  0.19311  0.08084  1.0000
  C   C652      1.0  0.85035  0.10477  0.24619  1.0000
  C   C653      1.0  0.82868  0.11227  0.25561  1.0000
  H   H1038     1.0  0.02980  0.26641  0.26321  1.0000
  H   H1039     1.0  0.79653  0.19448  0.05807  1.0000
  C   C654      1.0  0.85105  0.18429  0.03584  1.0000
  H   H1040     1.0  0.81944  0.21480  0.05215  1.0000
  H   H1041     1.0  0.87754  0.06241  0.10695  1.0000
  C   C655      1.0  0.00796  0.22677  0.27481  1.0000
  H   H1042     1.0  0.71042  0.49329  0.23753  1.0000
  H   H1043     1.0  0.88232  0.05541  0.13674  1.0000
  H   H1044     1.0  0.91615  0.03026  0.14792  1.0000
  H   H1045     1.0  0.87239  0.03349  0.11841  1.0000
  H   H1046     1.0  0.99940  0.27270  0.26822  1.0000
  H   H1047     1.0  0.01515  0.13645  0.25673  1.0000
  N   N66       1.0  0.90853  0.04191  0.11321  1.0000
  C   C656      1.0  0.82077  0.10428  0.27769  1.0000
  H   H1048     1.0  0.99138  0.23038  0.26588  1.0000
  C   C657      1.0  0.01578  0.26760  0.27689  1.0000
  H   H1049     1.0  0.80734  0.19973  0.02896  1.0000
  Fe  Fe128     1.0  0.89746  0.40461  0.46771  1.0000
  S   S263      1.0  0.90630  0.43767  0.48390  1.0000
  S   S264      1.0  0.92367  0.37791  0.45474  1.0000
  Fe  Fe129     1.0  0.84580  0.40986  0.48071  1.0000
  S   S265      1.0  0.85060  0.44353  0.49855  1.0000
  S   S266      1.0  0.81037  0.39408  0.47658  1.0000
  Fe  Fe130     1.0  0.87395  0.45250  0.46757  1.0000
  S   S267      1.0  0.87787  0.48817  0.45038  1.0000
  H   H1050     1.0  0.77656  0.34540  0.51776  1.0000
  S   S268      1.0  0.86707  0.42012  0.44875  1.0000
  S   S269      1.0  0.87557  0.39188  0.49810  1.0000
  Fe  Fe131     1.0  0.75759  0.27091  0.47561  1.0000
  S   S270      1.0  0.74647  0.24556  0.50404  1.0000
  S   S271      1.0  0.79382  0.28559  0.47732  1.0000
  Fe  Fe132     1.0  0.73131  0.22521  0.47621  1.0000
  S   S272      1.0  0.72991  0.18630  0.47587  1.0000
  H   H1051     1.0  0.71749  0.20369  0.52068  1.0000
  S   S273      1.0  0.74556  0.24838  0.44757  1.0000
  Fe  Fe133     1.0  0.77694  0.10521  0.32414  1.0000
  S   S274      1.0  0.74556  0.08252  0.33017  1.0000
  H   H1052     1.0  0.01962  0.44176  0.36982  1.0000
  Fe  Fe134     1.0  0.77725  0.11795  0.37488  1.0000
  S   S275      1.0  0.74642  0.09652  0.38481  1.0000
  S   S276      1.0  0.79564  0.13859  0.40078  1.0000
  Fe  Fe135     1.0  0.76326  0.06966  0.36253  1.0000
  H   H1053     1.0  0.81344  0.03495  0.44743  1.0000
  Fe  Fe136     1.0  0.73139  0.11136  0.35212  1.0000
  H   H1054     1.0  0.77932  0.04789  0.42551  1.0000
  S   S277      1.0  0.79568  0.09020  0.35471  1.0000
  S   S278      1.0  0.76111  0.13498  0.34386  1.0000
  H   H1055     1.0  0.86718  0.06907  0.29074  1.0000
  H   H1056     1.0  0.81626  0.06396  0.45713  1.0000
  C   C658      1.0  0.74812  0.17350  0.45470  1.0000
  C   C659      1.0  0.74276  0.15163  0.44691  1.0000
  C   C660      1.0  0.75696  0.14110  0.42994  1.0000
  C   C661      1.0  0.77690  0.15217  0.42105  1.0000
  C   C662      1.0  0.78236  0.17398  0.42899  1.0000
  C   C663      1.0  0.76781  0.18480  0.44554  1.0000
  H   H1057     1.0  0.72754  0.14282  0.45393  1.0000
  H   H1058     1.0  0.75278  0.12416  0.42422  1.0000
  H   H1059     1.0  0.79784  0.18256  0.42227  1.0000
  H   H1060     1.0  0.77219  0.20159  0.45162  1.0000
  H   H1061     1.0  0.73826  0.20392  0.37052  1.0000
  C   C664      1.0  0.86560  0.51901  0.41562  1.0000
  C   C665      1.0  0.70036  0.20499  0.41676  1.0000
  C   C666      1.0  0.83488  0.08880  0.29036  1.0000
  H   H1062     1.0  0.98721  0.37947  0.52468  1.0000
  C   C667      1.0  0.85947  0.49878  0.42838  1.0000
  H   H1063     1.0  0.71404  0.16902  0.37284  1.0000
  H   H1064     1.0  0.83986  0.04184  0.40131  1.0000
  H   H1065     1.0  0.80781  0.48922  0.40352  1.0000
  H   H1066     1.0  0.78208  0.07048  0.40394  1.0000
  C   C668      1.0  0.83868  0.48796  0.42380  1.0000
  H   H1067     1.0  0.72883  0.04891  0.40252  1.0000
  S   S279      1.0  0.79319  0.11408  0.28855  1.0000
  H   H1068     1.0  0.77176  0.36766  0.46329  1.0000
  H   H1069     1.0  0.83378  0.47239  0.43356  1.0000
  C   C669      1.0  0.95117  0.38733  0.44430  1.0000
  C   C670      1.0  0.95484  0.41057  0.43797  1.0000
  C   C671      1.0  0.97680  0.41755  0.42928  1.0000
  C   C672      1.0  0.99531  0.40144  0.42711  1.0000
  C   C673      1.0  0.99176  0.37825  0.43382  1.0000
  C   C674      1.0  0.96968  0.37120  0.44223  1.0000
  H   H1070     1.0  0.94066  0.42312  0.43938  1.0000
  H   H1071     1.0  0.97940  0.43551  0.42406  1.0000
  H   H1072     1.0  0.00589  0.36570  0.43212  1.0000
  H   H1073     1.0  0.96694  0.35318  0.44709  1.0000
  C   C675      1.0  0.79803  0.31581  0.47722  1.0000
  C   C676      1.0  0.78096  0.33158  0.46951  1.0000
  C   C677      1.0  0.78492  0.35554  0.46958  1.0000
  C   C678      1.0  0.80592  0.36392  0.47738  1.0000
  C   C679      1.0  0.82285  0.34815  0.48539  1.0000
  C   C680      1.0  0.81895  0.32418  0.48518  1.0000
  H   H1074     1.0  0.76488  0.32534  0.46310  1.0000
  H   H1075     1.0  0.95012  0.10418  0.28907  1.0000
  H   H1076     1.0  0.83891  0.35444  0.49179  1.0000
  H   H1077     1.0  0.83213  0.31206  0.49139  1.0000
  N   N67       1.0  0.86481  0.34979  0.42503  1.0000
  C   C681      1.0  0.88123  0.36548  0.41244  1.0000
  C   C682      1.0  0.86338  0.32799  0.41259  1.0000
  C   C683      1.0  0.84148  0.36102  0.42659  1.0000
  C   C684      1.0  0.87318  0.34459  0.44855  1.0000
  H   H1078     1.0  0.88295  0.38194  0.42156  1.0000
  H   H1079     1.0  0.87546  0.37003  0.39467  1.0000
  H   H1080     1.0  0.89905  0.35760  0.41108  1.0000
  H   H1081     1.0  0.85107  0.31580  0.42168  1.0000
  H   H1082     1.0  0.85713  0.33128  0.39475  1.0000
  H   H1083     1.0  0.88066  0.31900  0.41123  1.0000
  H   H1084     1.0  0.82850  0.34932  0.43531  1.0000
  H   H1085     1.0  0.83491  0.36599  0.40922  1.0000
  H   H1086     1.0  0.84161  0.37705  0.43672  1.0000
  H   H1087     1.0  0.86181  0.33205  0.45828  1.0000
  H   H1088     1.0  0.87361  0.36055  0.45870  1.0000
  H   H1089     1.0  0.89120  0.33713  0.44808  1.0000
  H   H1090     1.0  0.74437  0.19986  0.40063  1.0000
  C   C685      1.0  0.83007  0.51785  0.39415  1.0000
  C   C686      1.0  0.82400  0.49754  0.40680  1.0000
  C   C687      1.0  0.91000  0.12885  0.28806  1.0000
  C   C688      1.0  0.82072  0.04498  0.40223  1.0000
  H   H1091     1.0  0.94025  0.43783  0.52274  1.0000
  C   C689      1.0  0.97033  0.41306  0.49617  1.0000
  H   H1092     1.0  0.76574  0.30437  0.51273  1.0000
  N   N68       1.0  0.70806  0.19930  0.39299  1.0000
  H   H1093     1.0  0.88173  0.52739  0.41898  1.0000
  H   H1094     1.0  0.97589  0.39724  0.48684  1.0000
  H   H1095     1.0  0.82896  0.08245  0.30730  1.0000
  C   C690      1.0  0.99470  0.24783  0.30824  1.0000
  S   S280      1.0  0.02227  0.41098  0.41526  1.0000
  N   N69       1.0  0.01349  0.24549  0.29040  1.0000
  H   H1096     1.0  0.99268  0.23148  0.31882  1.0000
  H   H1097     1.0  0.02062  0.28196  0.28804  1.0000
  H   H1098     1.0  0.70423  0.02944  0.43310  1.0000
  H   H1099     1.0  0.72017  0.16493  0.40284  1.0000
  C   C691      1.0  0.85653  0.08125  0.28091  1.0000
  N   N70       1.0  0.81381  0.06138  0.42040  1.0000
  C   C692      1.0  0.73109  0.33476  0.51961  1.0000
  H   H1100     1.0  0.81934  0.09155  0.39816  1.0000
  C   C693      1.0  0.82140  0.05204  0.44307  1.0000
  C   C694      1.0  0.73238  0.03102  0.40757  1.0000
  H   H1101     1.0  0.91535  0.12455  0.30602  1.0000
  H   H1102     1.0  0.81951  0.09699  0.42823  1.0000
  H   H1103     1.0  0.70101  0.22398  0.41935  1.0000
  H   H1104     1.0  0.89902  0.14495  0.28832  1.0000
  H   H1105     1.0  0.84403  0.08247  0.41450  1.0000
  H   H1106     1.0  0.70408  0.13270  0.30859  1.0000
  Fe  Fe137     1.0  0.71250  0.26534  0.50449  1.0000
  S   S281      1.0  0.72455  0.29211  0.47774  1.0000
  H   H1107     1.0  0.94706  0.37522  0.51088  1.0000
  H   H1108     1.0  0.71166  0.19631  0.42980  1.0000
  H   H1109     1.0  0.84063  0.04954  0.44318  1.0000
  H   H1110     1.0  0.81542  0.05161  0.38483  1.0000
  H   H1111     1.0  0.97772  0.25215  0.30031  1.0000
  Fe  Fe138     1.0  0.71147  0.26762  0.45186  1.0000
  C   C695      1.0  0.78825  0.06447  0.42111  1.0000
  H   H1112     1.0  0.78226  0.07753  0.43378  1.0000
  H   H1113     1.0  0.99846  0.26185  0.32024  1.0000
  H   H1114     1.0  0.89861  0.11467  0.28286  1.0000
  S   S282      1.0  0.76893  0.03224  0.37510  1.0000
  C   C696      1.0  0.82473  0.08401  0.41516  1.0000
  C   C697      1.0  0.70819  0.17391  0.39058  1.0000
  H   H1115     1.0  0.71660  0.32221  0.51991  1.0000
  C   C698      1.0  0.73183  0.20795  0.38831  1.0000
  Fe  Fe139     1.0  0.88251  0.42615  0.51340  1.0000
  H   H1116     1.0  0.73862  0.33585  0.50163  1.0000
  H   H1117     1.0  0.73242  0.22708  0.39006  1.0000
  H   H1118     1.0  0.95204  0.14602  0.29699  1.0000
  H   H1119     1.0  0.00660  0.20971  0.28429  1.0000
  H   H1120     1.0  0.72337  0.35209  0.52341  1.0000
  H   H1121     1.0  0.95630  0.42175  0.48606  1.0000
  H   H1122     1.0  0.02313  0.48482  0.36726  1.0000
  H   H1123     1.0  0.92752  0.39969  0.51037  1.0000
  H   H1124     1.0  0.93555  0.16690  0.28003  1.0000
  H   H1125     1.0  0.98534  0.42492  0.49570  1.0000
  C   C699      1.0  0.94528  0.15006  0.27949  1.0000
  C   C700      1.0  0.94229  0.39152  0.51973  1.0000
  N   N71       1.0  0.96218  0.40729  0.52014  1.0000
  H   H1126     1.0  0.70713  0.16301  0.51680  1.0000
  C   C701      1.0  0.93851  0.43584  0.73598  1.0000
  Fe  Fe140     1.0  0.91310  0.49453  0.65718  1.0000
  S   S283      1.0  0.95194  0.49608  0.65244  1.0000
  S   S284      1.0  0.88900  0.49711  0.62703  1.0000
  Fe  Fe141     1.0  0.91450  0.49346  0.70975  1.0000
  S   S285      1.0  0.95353  0.49487  0.70894  1.0000
  S   S286      1.0  0.79135  0.49705  0.77292  1.0000
  H   H1127     1.0  0.85852  0.49855  0.71834  1.0000
  Fe  Fe142     1.0  0.95272  0.46900  0.68131  1.0000
  S   S287      1.0  0.97615  0.43700  0.67953  1.0000
  H   H1128     1.0  0.99657  0.40717  0.53360  1.0000
  S   S288      1.0  0.91379  0.46534  0.68398  1.0000
  C   C702      1.0  0.99591  0.42913  0.70138  1.0000
  C   C703      1.0  0.00943  0.40876  0.69919  1.0000
  H   H1129     1.0  0.96933  0.44117  0.53231  1.0000
  H   H1130     1.0  0.96572  0.39912  0.74447  1.0000
  H   H1131     1.0  0.72369  0.31393  0.56119  1.0000
  C   C704      1.0  0.99698  0.44154  0.72163  1.0000
  H   H1132     1.0  0.94812  0.37779  0.73188  1.0000
  C   C705      1.0  0.70890  0.06848  0.74363  1.0000
  H   H1133     1.0  0.81640  0.50087  0.72931  1.0000
  H   H1134     1.0  0.98692  0.45741  0.72343  1.0000
  C   C706      1.0  0.86934  0.49289  0.75338  1.0000
  C   C707      1.0  0.85290  0.49665  0.73632  1.0000
  C   C708      1.0  0.01081  0.43315  0.73983  1.0000
  H   H1135     1.0  0.75864  0.46494  0.75189  1.0000
  H   H1136     1.0  0.95090  0.43823  0.75001  1.0000
  H   H1137     1.0  0.70669  0.15909  0.54773  1.0000
  H   H1138     1.0  0.97562  0.39123  0.55111  1.0000
  C   C709      1.0  0.89540  0.44378  0.57007  1.0000
  C   C710      1.0  0.88111  0.46351  0.56731  1.0000
  C   C711      1.0  0.87936  0.47981  0.58484  1.0000
  C   C712      1.0  0.89210  0.47666  0.60506  1.0000
  C   C713      1.0  0.90668  0.45711  0.60762  1.0000
  C   C714      1.0  0.90819  0.44068  0.59024  1.0000
  H   H1139     1.0  0.87116  0.46605  0.55186  1.0000
  H   H1140     1.0  0.86806  0.49489  0.58277  1.0000
  H   H1141     1.0  0.91656  0.45452  0.62311  1.0000
  H   H1142     1.0  0.91922  0.42543  0.59255  1.0000
  H   H1143     1.0  0.94714  0.44195  0.71951  1.0000
  C   C715      1.0  0.72897  0.49724  0.76850  1.0000
  H   H1144     1.0  0.71640  0.20061  0.55165  1.0000
  H   H1145     1.0  0.76132  0.36231  0.53896  1.0000
  H   H1146     1.0  0.94849  0.42507  0.54987  1.0000
  C   C716      1.0  0.70197  0.03397  0.72291  1.0000
  N   N72       1.0  0.72514  0.48196  0.74916  1.0000
  C   C717      1.0  0.70019  0.03271  0.76466  1.0000
  H   H1147     1.0  0.01122  0.44260  0.75560  1.0000
  H   H1148     1.0  0.91024  0.39103  0.71386  1.0000
  H   H1149     1.0  0.70889  0.44940  0.74393  1.0000
  H   H1150     1.0  0.74586  0.46324  0.72406  1.0000
  H   H1151     1.0  0.90363  0.41556  0.76000  1.0000
  H   H1152     1.0  0.70424  0.07886  0.75900  1.0000
  S   S289      1.0  0.89752  0.42226  0.54909  1.0000
  C   C718      1.0  0.98126  0.39577  0.53294  1.0000
  H   H1153     1.0  0.72089  0.02934  0.72233  1.0000
  H   H1154     1.0  0.90014  0.42053  0.71718  1.0000
  C   C719      1.0  0.76790  0.34453  0.53524  1.0000
  S   S290      1.0  0.89948  0.49147  0.74650  1.0000
  H   H1155     1.0  0.71228  0.50289  0.77710  1.0000
  H   H1156     1.0  0.73082  0.34369  0.56486  1.0000
  C   C720      1.0  0.82148  0.49539  0.76586  1.0000
  H   H1157     1.0  0.93552  0.38693  0.53753  1.0000
  H   H1158     1.0  0.96104  0.40016  0.71402  1.0000
  C   C721      1.0  0.91595  0.40919  0.71528  1.0000
  H   H1159     1.0  0.93082  0.40577  0.77169  1.0000
  C   C722      1.0  0.95484  0.42877  0.53174  1.0000
  H   H1160     1.0  0.69803  0.04395  0.70666  1.0000
  H   H1161     1.0  0.70575  0.07961  0.72789  1.0000
  H   H1162     1.0  0.73877  0.51297  0.76275  1.0000
  C   C723      1.0  0.02354  0.40057  0.71723  1.0000
  C   C724      1.0  0.73818  0.32652  0.55994  1.0000
  H   H1163     1.0  0.74484  0.29109  0.53214  1.0000
  N   N73       1.0  0.93158  0.41144  0.73482  1.0000
  C   C725      1.0  0.86180  0.49046  0.77665  1.0000
  H   H1164     1.0  0.78160  0.33980  0.54779  1.0000
  H   H1165     1.0  0.91357  0.38612  0.75642  1.0000
  H   H1166     1.0  0.69921  0.22269  0.53736  1.0000
  C   C726      1.0  0.91934  0.40437  0.75671  1.0000
  C   C727      1.0  0.82904  0.49793  0.74258  1.0000
  C   C728      1.0  0.95249  0.39646  0.73124  1.0000
  C   C729      1.0  0.74790  0.47463  0.73891  1.0000
  S   S291      1.0  0.69930  0.27382  0.54059  1.0000
  C   C730      1.0  0.70571  0.20449  0.53627  1.0000
  N   N74       1.0  0.74892  0.32759  0.53639  1.0000
  H   H1167     1.0  0.75106  0.32088  0.57302  1.0000
  C   C731      1.0  0.75847  0.30446  0.53072  1.0000
  H   H1168     1.0  0.00873  0.39904  0.68360  1.0000
  S   S292      1.0  0.91055  0.52264  0.68336  1.0000
  H   H1169     1.0  0.92319  0.44755  0.73911  1.0000
  H   H1170     1.0  0.72240  0.45145  0.77130  1.0000
  H   H1171     1.0  0.77267  0.29880  0.54235  1.0000
  C   C732      1.0  0.71142  0.49468  0.73150  1.0000
  C   C733      1.0  0.02402  0.41257  0.73774  1.0000
  H   H1172     1.0  0.75832  0.48982  0.73273  1.0000
  H   H1173     1.0  0.92487  0.41434  0.69851  1.0000
  H   H1174     1.0  0.72065  0.51037  0.72465  1.0000
  Fe  Fe143     1.0  0.94953  0.52198  0.68053  1.0000
  H   H1175     1.0  0.72792  0.06444  0.74399  1.0000
  C   C734      1.0  0.71236  0.46136  0.75797  1.0000
  H   H1176     1.0  0.70816  0.48366  0.71661  1.0000
  Fe  Fe144     1.0  0.89223  0.15010  0.00146  1.0000
  S   S293      1.0  0.88483  0.18348  0.98151  1.0000
  Fe  Fe145     1.0  0.87318  0.12004  0.96382  1.0000
  S   S294      1.0  0.86404  0.15104  0.94114  1.0000
  S   S295      1.0  0.87299  0.08201  0.95511  1.0000
  Fe  Fe146     1.0  0.89891  0.16462  0.95055  1.0000
  S   S296      1.0  0.92574  0.17623  0.92321  1.0000
  Fe  Fe147     1.0  0.85068  0.16729  0.97409  1.0000
  S   S297      1.0  0.81434  0.18296  0.98042  1.0000
  S   S298      1.0  0.90877  0.13263  0.97104  1.0000
  S   S299      1.0  0.85738  0.13496  0.99626  1.0000
  Fe  Fe148     1.0  0.77724  0.49164  0.80980  1.0000
  H   H1177     1.0  0.01033  0.26534  0.85416  1.0000
  H   H1178     1.0  0.86848  0.07305  0.88256  1.0000
  Fe  Fe149     1.0  0.77099  0.46107  0.85399  1.0000
  S   S300      1.0  0.74031  0.48196  0.86709  1.0000
  S   S301      1.0  0.78451  0.42996  0.87446  1.0000
  Fe  Fe150     1.0  0.72915  0.48157  0.83033  1.0000
  H   H1179     1.0  0.74322  0.28566  0.90098  1.0000
  H   H1180     1.0  0.96312  0.13102  0.02797  1.0000
  S   S302      1.0  0.75840  0.45858  0.81803  1.0000
  S   S303      1.0  0.79331  0.49173  0.84462  1.0000
  Fe  Fe151     1.0  0.71666  0.34900  0.95916  1.0000
  S   S304      1.0  0.73419  0.32326  0.93630  1.0000
  S   S305      1.0  0.71463  0.38716  0.95002  1.0000
  H   H1181     1.0  0.00742  0.16831  0.99738  1.0000
  Fe  Fe152     1.0  0.74285  0.30296  0.96890  1.0000
  S   S306      1.0  0.78003  0.28826  0.96842  1.0000
  S   S307      1.0  0.72821  0.33091  0.99201  1.0000
  H   H1182     1.0  0.78178  0.48531  0.96716  1.0000
  Fe  Fe153     1.0  0.70038  0.30484  0.93849  1.0000
  C   C735      1.0  0.76435  0.41617  0.89365  1.0000
  C   C736      1.0  0.77160  0.39748  0.90798  1.0000
  C   C737      1.0  0.75618  0.38773  0.92484  1.0000
  C   C738      1.0  0.73376  0.39723  0.92785  1.0000
  C   C739      1.0  0.72642  0.41557  0.91327  1.0000
  C   C740      1.0  0.74142  0.42449  0.89576  1.0000
  H   H1183     1.0  0.78928  0.39080  0.90635  1.0000
  H   H1184     1.0  0.76194  0.37354  0.93611  1.0000
  H   H1185     1.0  0.76806  0.28327  0.91898  1.0000
  H   H1186     1.0  0.73530  0.43813  0.88426  1.0000
  H   H1187     1.0  0.71273  0.39699  0.86646  1.0000
  C   C741      1.0  0.85308  0.07012  0.93639  1.0000
  C   C742      1.0  0.83489  0.08341  0.92699  1.0000
  C   C743      1.0  0.81937  0.07329  0.91218  1.0000
  C   C744      1.0  0.82208  0.04994  0.90639  1.0000
  H   H1188     1.0  0.83232  0.48967  0.80086  1.0000
  C   C745      1.0  0.85567  0.04670  0.93078  1.0000
  H   H1189     1.0  0.83266  0.10141  0.93129  1.0000
  H   H1190     1.0  0.80527  0.08365  0.90505  1.0000
  C   C746      1.0  0.76411  0.46520  0.93065  1.0000
  H   H1191     1.0  0.00270  0.29513  0.88350  1.0000
  C   C747      1.0  0.95223  0.18806  0.93118  1.0000
  C   C748      1.0  0.95315  0.20255  0.94993  1.0000
  C   C749      1.0  0.97435  0.21239  0.95543  1.0000
  C   C750      1.0  0.99493  0.20714  0.94281  1.0000
  C   C751      1.0  0.99406  0.19261  0.92406  1.0000
  C   C752      1.0  0.97270  0.18339  0.91807  1.0000
  H   H1192     1.0  0.93739  0.20661  0.95984  1.0000
  H   H1193     1.0  0.97485  0.22392  0.96973  1.0000
  H   H1194     1.0  0.00979  0.18849  0.91415  1.0000
  H   H1195     1.0  0.97205  0.17233  0.90342  1.0000
  C   C753      1.0  0.80543  0.21245  0.97756  1.0000
  C   C754      1.0  0.82085  0.22985  0.97038  1.0000
  C   C755      1.0  0.81287  0.25306  0.96821  1.0000
  C   C756      1.0  0.78944  0.25908  0.97314  1.0000
  C   C757      1.0  0.77412  0.24170  0.98069  1.0000
  C   C758      1.0  0.78208  0.21851  0.98280  1.0000
  H   H1196     1.0  0.83888  0.22545  0.96637  1.0000
  H   H1197     1.0  0.82488  0.26640  0.96243  1.0000
  H   H1198     1.0  0.75614  0.24611  0.98495  1.0000
  H   H1199     1.0  0.77005  0.20517  0.98852  1.0000
  H   H1200     1.0  0.73571  0.23021  0.93505  1.0000
  N   N75       1.0  0.75457  0.25072  0.90918  1.0000
  H   H1201     1.0  0.95824  0.17257  0.02158  1.0000
  N   N76       1.0  0.97532  0.14989  0.99735  1.0000
  H   H1202     1.0  0.75219  0.46511  0.91593  1.0000
  C   C759      1.0  0.73896  0.24863  0.92988  1.0000
  C   C760      1.0  0.97669  0.14696  0.97207  1.0000
  H   H1203     1.0  0.75430  0.24241  0.87330  1.0000
  H   H1204     1.0  0.80172  0.50535  0.90809  1.0000
  H   H1205     1.0  0.74658  0.25690  0.94484  1.0000
  H   H1206     1.0  0.76977  0.52370  0.93089  1.0000
  H   H1207     1.0  0.98550  0.16179  0.96300  1.0000
  H   H1208     1.0  0.94689  0.12657  0.00284  1.0000
  H   H1209     1.0  0.90530  0.04312  0.83770  1.0000
  S   S308      1.0  0.70989  0.28274  0.96966  1.0000
  H   H1210     1.0  0.84671  0.18647  0.01730  1.0000
  H   H1211     1.0  0.77351  0.21924  0.91812  1.0000
  H   H1212     1.0  0.86437  0.07090  0.81817  1.0000
  C   C761      1.0  0.77659  0.23783  0.91348  1.0000
  C   C762      1.0  0.89717  0.05735  0.84791  1.0000
  H   H1213     1.0  0.95910  0.14590  0.96473  1.0000
  C   C763      1.0  0.01478  0.25231  0.89900  1.0000
  H   H1214     1.0  0.98665  0.13096  0.96747  1.0000
  H   H1215     1.0  0.86776  0.03984  0.81770  1.0000
  C   C764      1.0  0.86741  0.03191  0.86334  1.0000
  S   S309      1.0  0.74712  0.51492  0.82042  1.0000
  H   H1216     1.0  0.70906  0.42290  0.91552  1.0000
  H   H1217     1.0  0.77601  0.44981  0.92904  1.0000
  H   H1218     1.0  0.84232  0.07184  0.86674  1.0000
  N   N77       1.0  0.87181  0.05431  0.85105  1.0000
  H   H1219     1.0  0.75331  0.46266  0.94682  1.0000
  H   H1220     1.0  0.86520  0.09058  0.85650  1.0000
  C   C765      1.0  0.74308  0.24108  0.88930  1.0000
  H   H1221     1.0  0.78868  0.23864  0.89809  1.0000
  H   H1222     1.0  0.80489  0.47200  0.95032  1.0000
  C   C766      1.0  0.86158  0.07331  0.86477  1.0000
  H   H1223     1.0  0.73897  0.22249  0.89263  1.0000
  C   C767      1.0  0.84025  0.03663  0.91583  1.0000
  C   C768      1.0  0.79220  0.48684  0.95064  1.0000
  H   H1224     1.0  0.01041  0.13753  0.00216  1.0000
  C   C769      1.0  0.96477  0.12922  0.00888  1.0000
  H   H1225     1.0  0.70849  0.39335  0.80075  1.0000
  N   N78       1.0  0.77714  0.48700  0.93046  1.0000
  H   H1226     1.0  0.02114  0.23407  0.89731  1.0000
  S   S310      1.0  0.80295  0.03855  0.88658  1.0000
  C   C770      1.0  0.79169  0.48904  0.90899  1.0000
  H   H1227     1.0  0.78080  0.48948  0.89354  1.0000
  C   C771      1.0  0.96085  0.17061  0.00260  1.0000
  H   H1228     1.0  0.99638  0.25315  0.89361  1.0000
  H   H1229     1.0  0.78583  0.24511  0.92808  1.0000
  H   H1230     1.0  0.80229  0.50307  0.95094  1.0000
  H   H1231     1.0  0.99859  0.15523  0.02486  1.0000
  C   C772      1.0  0.76056  0.50690  0.93146  1.0000
  H   H1232     1.0  0.94326  0.16963  0.99524  1.0000
  H   H1233     1.0  0.84842  0.02910  0.86594  1.0000
  H   H1234     1.0  0.77133  0.27779  0.88871  1.0000
  C   C773      1.0  0.75952  0.27544  0.90418  1.0000
  H   H1235     1.0  0.72178  0.25730  0.92687  1.0000
  H   H1236     1.0  0.01478  0.25604  0.91774  1.0000
  Fe  Fe154     1.0  0.76164  0.51262  0.85596  1.0000
  H   H1237     1.0  0.87442  0.48757  0.78994  1.0000
  H   H1238     1.0  0.74892  0.50746  0.91644  1.0000
  H   H1239     1.0  0.71961  0.43186  0.81352  1.0000
  H   H1240     1.0  0.90120  0.07405  0.83862  1.0000
  H   H1241     1.0  0.72637  0.25054  0.88577  1.0000
  C   C774      1.0  0.02839  0.26358  0.86039  1.0000
  H   H1242     1.0  0.80413  0.47411  0.90727  1.0000
  H   H1243     1.0  0.97519  0.11321  0.00542  1.0000
  H   H1244     1.0  0.87521  0.03107  0.88068  1.0000
  H   H1245     1.0  0.90575  0.05726  0.86489  1.0000
  H   H1246     1.0  0.71478  0.35729  0.85252  1.0000
  C   C775      1.0  0.99899  0.15284  0.00586  1.0000
  C   C776      1.0  0.70162  0.42859  0.81056  1.0000
  C   C777      1.0  0.86101  0.05448  0.82822  1.0000
  H   H1247     1.0  0.86958  0.03627  0.93818  1.0000
  S   S311      1.0  0.02127  0.21895  0.95118  1.0000
  N   N79       1.0  0.02949  0.26868  0.88517  1.0000
  H   H1248     1.0  0.74931  0.50611  0.94746  1.0000
  H   H1249     1.0  0.71533  0.36372  0.89500  1.0000
  C   C778      1.0  0.83795  0.49164  0.78289  1.0000
  H   H1250     1.0  0.84180  0.05264  0.83012  1.0000
  H   H1251     1.0  0.96897  0.18670  0.99543  1.0000
  C   C779      1.0  0.02105  0.29266  0.88876  1.0000
  H   H1252     1.0  0.02183  0.29712  0.90727  1.0000
  H   H1253     1.0  0.81548  0.15792  0.02482  1.0000
  H   H1254     1.0  0.73942  0.48807  0.78186  1.0000
  H   H1255     1.0  0.95368  0.70498  0.24704  1.0000
  H   H1256     1.0  0.98374  0.92827  0.23598  1.0000
  Fe  Fe155     1.0  0.97929  0.91070  0.16366  1.0000
  S   S312      1.0  0.98685  0.90959  0.12551  1.0000
  S   S313      1.0  0.97081  0.93965  0.18821  1.0000
  Fe  Fe156     1.0  0.97936  0.85817  0.17024  1.0000
  S   S314      1.0  0.98686  0.85212  0.13237  1.0000
  S   S315      1.0  0.96670  0.83454  0.20023  1.0000
  Fe  Fe157     1.0  0.01259  0.88102  0.13420  1.0000
  Fe  Fe158     1.0  0.96107  0.88091  0.12509  1.0000
  S   S316      1.0  0.93534  0.88401  0.09618  1.0000
  S   S317      1.0  0.00739  0.88450  0.17278  1.0000
  S   S318      1.0  0.95118  0.88461  0.16245  1.0000
  H   H1257     1.0  0.98430  0.00653  0.13466  1.0000
  H   H1258     1.0  0.97477  0.85804  0.02984  1.0000
  H   H1259     1.0  0.76171  0.61630  0.23982  1.0000
  C   C780      1.0  0.98326  0.81523  0.21774  1.0000
  C   C781      1.0  0.00622  0.80888  0.21189  1.0000
  H   H1260     1.0  0.87219  0.64777  0.24721  1.0000
  C   C782      1.0  0.00751  0.78271  0.24604  1.0000
  C   C783      1.0  0.98482  0.78969  0.25227  1.0000
  C   C784      1.0  0.97271  0.80577  0.23809  1.0000
  C   C785      1.0  0.99521  0.89901  0.06428  1.0000
  H   H1261     1.0  0.72467  0.59995  0.08902  1.0000
  C   C786      1.0  0.80161  0.67060  0.03537  1.0000
  H   H1262     1.0  0.95505  0.81091  0.24287  1.0000
  C   C787      1.0  0.71678  0.58069  0.25479  1.0000
  C   C788      1.0  0.90468  0.84764  0.04721  1.0000
  N   N80       1.0  0.94638  0.73691  0.22820  1.0000
  H   H1263     1.0  0.93632  0.73634  0.19278  1.0000
  H   H1264     1.0  0.82106  0.63609  0.25867  1.0000
  C   C789      1.0  0.92622  0.86070  0.07987  1.0000
  C   C790      1.0  0.91138  0.86542  0.06143  1.0000
  S   S319      1.0  0.72014  0.62209  0.04443  1.0000
  C   C791      1.0  0.91280  0.82493  0.05132  1.0000
  C   C792      1.0  0.92762  0.82017  0.06981  1.0000
  C   C793      1.0  0.93427  0.83796  0.08410  1.0000
  H   H1265     1.0  0.90507  0.88296  0.05803  1.0000
  H   H1266     1.0  0.99294  0.84028  0.06374  1.0000
  H   H1267     1.0  0.93388  0.80261  0.07313  1.0000
  H   H1268     1.0  0.94554  0.83405  0.09836  1.0000
  C   C794      1.0  0.96608  0.01661  0.16598  1.0000
  C   C795      1.0  0.95628  0.00877  0.18717  1.0000
  C   C796      1.0  0.95767  0.98507  0.19366  1.0000
  C   C797      1.0  0.96837  0.96902  0.17881  1.0000
  C   C798      1.0  0.97762  0.97679  0.15735  1.0000
  C   C799      1.0  0.97666  0.00055  0.15107  1.0000
  H   H1269     1.0  0.00667  0.87006  0.25458  1.0000
  H   H1270     1.0  0.95047  0.97918  0.21028  1.0000
  H   H1271     1.0  0.98599  0.96459  0.14584  1.0000
  H   H1272     1.0  0.85848  0.64416  0.27539  1.0000
  H   H1273     1.0  0.89324  0.85150  0.03304  1.0000
  H   H1274     1.0  0.96748  0.88870  0.20770  1.0000
  C   C800      1.0  0.86756  0.63476  0.26113  1.0000
  H   H1275     1.0  0.74278  0.67081  0.04409  1.0000
  H   H1276     1.0  0.83624  0.58551  0.26622  1.0000
  H   H1277     1.0  0.92144  0.74567  0.25524  1.0000
  H   H1278     1.0  0.94781  0.70172  0.21707  1.0000
  H   H1279     1.0  0.72428  0.60309  0.22511  1.0000
  H   H1280     1.0  0.01854  0.85625  0.03144  1.0000
  N   N81       1.0  0.85277  0.61648  0.25264  1.0000
  H   H1281     1.0  0.95712  0.91130  0.26624  1.0000
  H   H1282     1.0  0.94098  0.76843  0.24646  1.0000
  C   C801      1.0  0.71170  0.61369  0.09071  1.0000
  H   H1283     1.0  0.97406  0.75972  0.21724  1.0000
  C   C802      1.0  0.93172  0.74535  0.20903  1.0000
  H   H1284     1.0  0.00004  0.86679  0.22476  1.0000
  H   H1285     1.0  0.83364  0.63970  0.22993  1.0000
  H   H1286     1.0  0.97660  0.78256  0.26794  1.0000
  C   C803      1.0  0.99224  0.86995  0.24227  1.0000
  H   H1287     1.0  0.77915  0.70953  0.04801  1.0000
  C   C804      1.0  0.86505  0.60461  0.23348  1.0000
  C   C805      1.0  0.73019  0.59661  0.24171  1.0000
  H   H1288     1.0  0.76313  0.64730  0.04807  1.0000
  C   C806      1.0  0.70607  0.62766  0.07126  1.0000
  H   H1289     1.0  0.88402  0.62733  0.26819  1.0000
  H   H1290     1.0  0.97866  0.90189  0.07442  1.0000
  H   H1291     1.0  0.93396  0.76428  0.20533  1.0000
  H   H1292     1.0  0.00179  0.90983  0.21861  1.0000
  H   H1293     1.0  0.90584  0.00812  0.13003  1.0000
  N   N82       1.0  0.97840  0.89181  0.24241  1.0000
  C   C807      1.0  0.96769  0.89493  0.26567  1.0000
  C   C808      1.0  0.95990  0.89088  0.22538  1.0000
  H   H1294     1.0  0.76455  0.67231  0.06552  1.0000
  C   C809      1.0  0.99369  0.91150  0.23623  1.0000
  H   H1295     1.0  0.00796  0.91276  0.24859  1.0000
  H   H1296     1.0  0.98123  0.85479  0.24707  1.0000
  C   C810      1.0  0.01827  0.79261  0.22599  1.0000
  H   H1297     1.0  0.00974  0.90024  0.07641  1.0000
  H   H1298     1.0  0.80641  0.67609  0.05278  1.0000
  C   C811      1.0  0.77468  0.70294  0.03092  1.0000
  C   C812      1.0  0.83068  0.62695  0.24452  1.0000
  H   H1299     1.0  0.94807  0.02100  0.19875  1.0000
  H   H1300     1.0  0.98270  0.73631  0.23645  1.0000
  C   C813      1.0  0.99368  0.85766  0.07133  1.0000
  H   H1301     1.0  0.81874  0.61351  0.23872  1.0000
  H   H1302     1.0  0.92453  0.70806  0.23766  1.0000
  H   H1303     1.0  0.92834  0.02786  0.08471  1.0000
  H   H1304     1.0  0.95099  0.74410  0.26389  1.0000
  C   C814      1.0  0.75142  0.60404  0.25009  1.0000
  H   H1305     1.0  0.97765  0.85997  0.08229  1.0000
  N   N83       1.0  0.77735  0.67745  0.03034  1.0000
  H   H1306     1.0  0.00871  0.85752  0.08297  1.0000
  H   H1307     1.0  0.91293  0.74257  0.21321  1.0000
  H   H1308     1.0  0.01453  0.81613  0.19629  1.0000
  S   S320      1.0  0.02257  0.76118  0.26241  1.0000
  C   C815      1.0  0.93966  0.74937  0.24933  1.0000
  C   C816      1.0  0.97570  0.87527  0.03777  1.0000
  C   C817      1.0  0.94295  0.71181  0.23257  1.0000
  H   H1309     1.0  0.86916  0.61690  0.21874  1.0000
  H   H1310     1.0  0.94913  0.90713  0.22474  1.0000
  H   H1311     1.0  0.94819  0.87602  0.22912  1.0000
  C   C818      1.0  0.91667  0.02385  0.12998  1.0000
  H   H1312     1.0  0.85428  0.59062  0.22689  1.0000
  H   H1313     1.0  0.80425  0.65147  0.03485  1.0000
  H   H1314     1.0  0.97715  0.73101  0.20678  1.0000
  N   N84       1.0  0.99556  0.87631  0.05327  1.0000
  H   H1315     1.0  0.93503  0.01843  0.12604  1.0000
  H   H1316     1.0  0.89925  0.01726  0.08832  1.0000
  C   C819      1.0  0.97111  0.74112  0.22191  1.0000
  H   H1317     1.0  0.99681  0.91353  0.05122  1.0000
  C   C820      1.0  0.75934  0.59580  0.27166  1.0000
  C   C821      1.0  0.84770  0.59949  0.27169  1.0000
  C   C822      1.0  0.76131  0.66655  0.04781  1.0000
  H   H1318     1.0  0.95886  0.87820  0.04738  1.0000
  H   H1319     1.0  0.95594  0.88040  0.27074  1.0000
  H   H1320     1.0  0.88172  0.59647  0.23922  1.0000
  S   S321      1.0  0.90506  0.80218  0.03361  1.0000
  C   C823      1.0  0.01766  0.87328  0.03986  1.0000
  C   C824      1.0  0.70056  0.61725  0.11233  1.0000
  H   H1321     1.0  0.70502  0.60639  0.12721  1.0000
  C   C825      1.0  0.72474  0.57240  0.27633  1.0000
  H   H1322     1.0  0.86388  0.59127  0.27858  1.0000
  S   S322      1.0  0.99213  0.70352  0.27865  1.0000
  Fe  Fe159     1.0  0.73512  0.89930  0.46759  1.0000
  S   S323      1.0  0.73626  0.93227  0.48687  1.0000
  S   S324      1.0  0.77113  0.88394  0.45993  1.0000
  H   H1323     1.0  0.83641  0.83346  0.43317  1.0000
  H   H1324     1.0  0.86171  0.82547  0.41600  1.0000
  S   S325      1.0  0.70453  0.98343  0.45333  1.0000
  Fe  Fe160     1.0  0.81668  0.56558  0.35710  1.0000
  S   S326      1.0  0.78583  0.58996  0.35234  1.0000
  N   N85       1.0  0.80133  0.57406  0.43679  1.0000
  Fe  Fe161     1.0  0.85040  0.60021  0.33448  1.0000
  S   S327      1.0  0.82240  0.62691  0.32861  1.0000
  S   S328      1.0  0.88762  0.60599  0.32235  1.0000
  Fe  Fe162     1.0  0.80996  0.61686  0.36448  1.0000
  S   S329      1.0  0.79816  0.64473  0.38884  1.0000
  Fe  Fe163     1.0  0.80124  0.59756  0.31667  1.0000
  C   C826      1.0  0.89014  0.67541  0.30841  1.0000
  S   S330      1.0  0.83964  0.59207  0.37149  1.0000
  S   S331      1.0  0.83028  0.57111  0.32058  1.0000
  Fe  Fe164     1.0  0.88087  0.75635  0.50135  1.0000
  S   S332      1.0  0.86676  0.78676  0.48009  1.0000
  Fe  Fe165     1.0  0.86650  0.72130  0.46670  1.0000
  S   S333      1.0  0.85063  0.74846  0.44338  1.0000
  S   S334      1.0  0.87144  0.68437  0.45573  1.0000
  Fe  Fe166     1.0  0.88256  0.76843  0.44955  1.0000
  S   S335      1.0  0.89656  0.78513  0.41633  1.0000
  Fe  Fe167     1.0  0.83591  0.76455  0.47554  1.0000
  S   S336      1.0  0.79836  0.77760  0.47616  1.0000
  S   S337      1.0  0.89967  0.74026  0.47102  1.0000
  S   S338      1.0  0.84875  0.73511  0.49869  1.0000
  Fe  Fe168     1.0  0.98998  0.72814  0.34003  1.0000
  S   S339      1.0  0.97212  0.74659  0.31057  1.0000
  S   S340      1.0  0.98880  0.73639  0.37777  1.0000
  Fe  Fe169     1.0  0.00895  0.68897  0.31070  1.0000
  Fe  Fe170     1.0  0.70758  0.94530  0.46429  1.0000
  Fe  Fe171     1.0  0.96111  0.71096  0.30190  1.0000
  C   C827      1.0  0.75971  0.83838  0.52461  1.0000
  H   H1325     1.0  0.75177  0.57349  0.30140  1.0000
  S   S341      1.0  0.97648  0.69322  0.33285  1.0000
  C   C828      1.0  0.92224  0.77166  0.40569  1.0000
  C   C829      1.0  0.93806  0.76115  0.42082  1.0000
  C   C830      1.0  0.95848  0.75043  0.41207  1.0000
  C   C831      1.0  0.96301  0.74987  0.38817  1.0000
  C   C832      1.0  0.94700  0.76007  0.37301  1.0000
  C   C833      1.0  0.92677  0.77116  0.38177  1.0000
  H   H1326     1.0  0.93486  0.76176  0.43929  1.0000
  H   H1327     1.0  0.97082  0.74267  0.42389  1.0000
  H   H1328     1.0  0.95041  0.75985  0.35458  1.0000
  H   H1329     1.0  0.91462  0.77932  0.37000  1.0000
  C   C834      1.0  0.81900  0.65611  0.40673  1.0000
  C   C835      1.0  0.81390  0.67670  0.41816  1.0000
  C   C836      1.0  0.82995  0.68569  0.43310  1.0000
  C   C837      1.0  0.85091  0.67376  0.43714  1.0000
  C   C838      1.0  0.85591  0.65306  0.42591  1.0000
  C   C839      1.0  0.84023  0.64452  0.41039  1.0000
  H   H1330     1.0  0.79744  0.68568  0.41551  1.0000
  H   H1331     1.0  0.82584  0.70153  0.44191  1.0000
  H   H1332     1.0  0.87200  0.64363  0.42913  1.0000
  H   H1333     1.0  0.84446  0.62875  0.40168  1.0000
  C   C840      1.0  0.89745  0.63433  0.31633  1.0000
  C   C841      1.0  0.92114  0.63762  0.31108  1.0000
  H   H1334     1.0  0.81197  0.60746  0.44761  1.0000
  H   H1335     1.0  0.83519  0.56817  0.42105  1.0000
  H   H1336     1.0  0.01906  0.67675  0.42317  1.0000
  C   C842      1.0  0.88204  0.65340  0.31546  1.0000
  H   H1337     1.0  0.93318  0.62296  0.31178  1.0000
  C   C843      1.0  0.74587  0.57998  0.28480  1.0000
  H   H1338     1.0  0.86383  0.65115  0.31969  1.0000
  C   C844      1.0  0.77811  0.85437  0.46518  1.0000
  C   C845      1.0  0.80141  0.84777  0.46863  1.0000
  C   C846      1.0  0.80775  0.82435  0.47261  1.0000
  C   C847      1.0  0.79088  0.80728  0.47270  1.0000
  C   C848      1.0  0.76754  0.81389  0.46936  1.0000
  C   C849      1.0  0.76114  0.83737  0.46567  1.0000
  H   H1339     1.0  0.81461  0.86086  0.46833  1.0000
  H   H1340     1.0  0.82570  0.81949  0.47547  1.0000
  H   H1341     1.0  0.75439  0.80076  0.46937  1.0000
  H   H1342     1.0  0.74315  0.84226  0.46286  1.0000
  C   C850      1.0  0.84457  0.81931  0.42300  1.0000
  H   H1343     1.0  0.76896  0.98595  0.39489  1.0000
  Fe  Fe172     1.0  0.70822  0.91706  0.51004  1.0000
  H   H1344     1.0  0.77557  0.83362  0.51415  1.0000
  C   C851      1.0  0.72253  0.99654  0.43139  1.0000
  H   H1345     1.0  0.00523  0.68942  0.37452  1.0000
  H   H1346     1.0  0.84600  0.77895  0.40152  1.0000
  N   N86       1.0  0.82946  0.81245  0.40437  1.0000
  H   H1347     1.0  0.81477  0.84672  0.39928  1.0000
  C   C852      1.0  0.74088  0.98438  0.42056  1.0000
  H   H1348     1.0  0.01089  0.66029  0.38500  1.0000
  H   H1349     1.0  0.83503  0.57056  0.45186  1.0000
  H   H1350     1.0  0.79786  0.56902  0.40053  1.0000
  H   H1351     1.0  0.74419  0.96637  0.42539  1.0000
  H   H1352     1.0  0.81104  0.78795  0.42672  1.0000
  S   S342      1.0  0.70842  0.91351  0.44275  1.0000
  N   N87       1.0  0.90097  0.69725  0.38345  1.0000
  C   C853      1.0  0.91741  0.70439  0.36444  1.0000
  C   C854      1.0  0.89632  0.71686  0.39878  1.0000
  C   C855      1.0  0.91128  0.67765  0.39698  1.0000
  C   C856      1.0  0.87893  0.69003  0.37370  1.0000
  H   H1353     1.0  0.91025  0.71914  0.35380  1.0000
  H   H1354     1.0  0.92131  0.68994  0.35257  1.0000
  H   H1355     1.0  0.93423  0.71000  0.37119  1.0000
  H   H1356     1.0  0.88357  0.71220  0.41303  1.0000
  H   H1357     1.0  0.91246  0.72218  0.40706  1.0000
  H   H1358     1.0  0.88919  0.73231  0.38917  1.0000
  H   H1359     1.0  0.92821  0.68234  0.40412  1.0000
  H   H1360     1.0  0.91432  0.66221  0.38622  1.0000
  H   H1361     1.0  0.89969  0.67242  0.41196  1.0000
  H   H1362     1.0  0.86599  0.68491  0.38759  1.0000
  H   H1363     1.0  0.88172  0.67488  0.36247  1.0000
  H   H1364     1.0  0.87087  0.70426  0.36305  1.0000
  C   C857      1.0  0.75490  0.99552  0.40329  1.0000
  S   S343      1.0  0.70898  0.88316  0.49236  1.0000
  H   H1365     1.0  0.83087  0.78895  0.37630  1.0000
  C   C858      1.0  0.78868  0.56822  0.45879  1.0000
  H   H1366     1.0  0.79760  0.57514  0.47378  1.0000
  H   H1367     1.0  0.78750  0.54910  0.46168  1.0000
  C   C859      1.0  0.91380  0.67858  0.30295  1.0000
  S   S344      1.0  0.92365  0.70608  0.29363  1.0000
  H   H1368     1.0  0.81267  0.82841  0.37504  1.0000
  C   C860      1.0  0.80258  0.59950  0.43349  1.0000
  H   H1369     1.0  0.79763  0.81623  0.42458  1.0000
  H   H1370     1.0  0.87805  0.68999  0.30726  1.0000
  H   H1371     1.0  0.93149  0.73488  0.51596  1.0000
  H   H1372     1.0  0.75525  0.88285  0.51051  1.0000
  H   H1373     1.0  0.85843  0.80102  0.38290  1.0000
  H   H1374     1.0  0.79602  0.79695  0.40113  1.0000
  H   H1375     1.0  0.78546  0.87559  0.51213  1.0000
  C   C861      1.0  0.01913  0.67598  0.37694  1.0000
  H   H1376     1.0  0.01463  0.70571  0.41156  1.0000
  C   C862      1.0  0.82514  0.56395  0.43736  1.0000
  S   S345      1.0  0.02378  0.72276  0.32013  1.0000
  H   H1377     1.0  0.78497  0.60784  0.43270  1.0000
  C   C863      1.0  0.84165  0.79458  0.39058  1.0000
  H   H1378     1.0  0.85614  0.54381  0.38853  1.0000
  H   H1379     1.0  0.84822  0.80446  0.43520  1.0000
  S   S346      1.0  0.02749  0.65403  0.31263  1.0000
  S   S347      1.0  0.81062  0.53001  0.37381  1.0000
  Fe  Fe173     1.0  0.00453  0.73800  0.28960  1.0000
  C   C864      1.0  0.80760  0.80298  0.41460  1.0000
  H   H1380     1.0  0.84018  0.84059  0.38143  1.0000
  C   C865      1.0  0.78895  0.56456  0.41739  1.0000
  C   C866      1.0  0.75063  0.01883  0.39661  1.0000
  C   C867      1.0  0.02784  0.69144  0.41376  1.0000
  C   C868      1.0  0.82404  0.83294  0.38932  1.0000
  S   S348      1.0  0.78643  0.60532  0.28111  1.0000
  H   H1381     1.0  0.77063  0.57558  0.45891  1.0000
  H   H1382     1.0  0.82490  0.54468  0.43945  1.0000
  H   H1383     1.0  0.94767  0.66200  0.30049  1.0000
  H   H1384     1.0  0.81190  0.60430  0.41694  1.0000
  C   C869      1.0  0.92936  0.65973  0.30468  1.0000
  H   H1385     1.0  0.72177  0.02745  0.51276  1.0000
  C   C870      1.0  0.71845  0.01993  0.42491  1.0000
  H   H1386     1.0  0.78821  0.54529  0.41881  1.0000
  N   N88       1.0  0.69716  0.00071  0.52128  1.0000
  H   H1387     1.0  0.71753  0.97769  0.50007  1.0000
  H   H1388     1.0  0.70936  0.96573  0.52806  1.0000
  C   C871      1.0  0.71476  0.98192  0.51856  1.0000
  H   H1389     1.0  0.02585  0.67135  0.35943  1.0000
  H   H1390     1.0  0.77081  0.57154  0.41648  1.0000
  H   H1391     1.0  0.83844  0.60799  0.28630  1.0000
  H   H1392     1.0  0.74532  0.84165  0.51242  1.0000
  C   C872      1.0  0.70460  0.02138  0.50739  1.0000
  H   H1393     1.0  0.70639  0.01758  0.48865  1.0000
  H   H1394     1.0  0.73188  0.98673  0.52514  1.0000
  H   H1395     1.0  0.71447  0.56011  0.28659  1.0000
  C   C873      1.0  0.76935  0.87891  0.52280  1.0000
  C   C874      1.0  0.85108  0.52840  0.39841  1.0000
  H   H1396     1.0  0.98114  0.89565  0.27899  1.0000
  H   H1397     1.0  0.81212  0.02797  0.40522  1.0000
  S   S349      1.0  0.97370  0.55236  0.68127  1.0000
  Fe  Fe174     1.0  0.99639  0.73138  0.66355  1.0000
  H   H1398     1.0  0.91127  0.79664  0.73512  1.0000
  S   S350      1.0  0.99478  0.76872  0.67560  1.0000
  Fe  Fe175     1.0  0.97510  0.68340  0.66100  1.0000
  S   S351      1.0  0.99816  0.67397  0.63090  1.0000
  S   S352      1.0  0.94576  0.65910  0.67102  1.0000
  H   H1399     1.0  0.00648  0.80521  0.63350  1.0000
  Fe  Fe176     1.0  0.99042  0.70968  0.61677  1.0000
  S   S353      1.0  0.98401  0.71303  0.57842  1.0000
  S   S354      1.0  0.00422  0.69686  0.68164  1.0000
  S   S355      1.0  0.96528  0.71840  0.64559  1.0000
  H   H1400     1.0  0.92837  0.57612  0.67759  1.0000
  H   H1401     1.0  0.88774  0.53980  0.72942  1.0000
  H   H1402     1.0  0.90232  0.59870  0.74783  1.0000
  H   H1403     1.0  0.87607  0.56812  0.73515  1.0000
  S   S356      1.0  0.92075  0.89599  0.77581  1.0000
  H   H1404     1.0  0.99831  0.81357  0.69475  1.0000
  H   H1405     1.0  0.99701  0.81959  0.58275  1.0000
  C   C875      1.0  0.73118  0.98031  0.73222  1.0000
  C   C876      1.0  0.75438  0.98426  0.73763  1.0000
  H   H1406     1.0  0.95978  0.64279  0.56931  1.0000
  H   H1407     1.0  0.76728  0.98698  0.72382  1.0000
  C   C877      1.0  0.71469  0.97668  0.75018  1.0000
  C   C878      1.0  0.95815  0.72553  0.56752  1.0000
  C   C879      1.0  0.94186  0.73674  0.58191  1.0000
  C   C880      1.0  0.92212  0.74774  0.57242  1.0000
  C   C881      1.0  0.91827  0.74715  0.54859  1.0000
  S   S357      1.0  0.89390  0.76224  0.53728  1.0000
  H   H1408     1.0  0.94833  0.55276  0.74465  1.0000
  H   H1409     1.0  0.94456  0.73721  0.60026  1.0000
  H   H1410     1.0  0.90972  0.75675  0.58353  1.0000
  H   H1411     1.0  0.91878  0.63106  0.57612  1.0000
  H   H1412     1.0  0.77179  0.89488  0.53257  1.0000
  C   C882      1.0  0.99313  0.77767  0.70469  1.0000
  C   C883      1.0  0.99520  0.80134  0.70905  1.0000
  C   C884      1.0  0.99371  0.80929  0.73181  1.0000
  C   C885      1.0  0.98974  0.79369  0.75050  1.0000
  C   C886      1.0  0.98760  0.77003  0.74615  1.0000
  C   C887      1.0  0.98936  0.76203  0.72340  1.0000
  H   H1413     1.0  0.73727  0.84950  0.56417  1.0000
  H   H1414     1.0  0.99589  0.82747  0.73486  1.0000
  H   H1415     1.0  0.98458  0.75777  0.76045  1.0000
  H   H1416     1.0  0.98773  0.74377  0.72033  1.0000
  C   C888      1.0  0.96525  0.58178  0.67760  1.0000
  C   C889      1.0  0.98261  0.59852  0.67615  1.0000
  C   C890      1.0  0.97677  0.62221  0.67396  1.0000
  C   C891      1.0  0.95344  0.62940  0.67366  1.0000
  C   C892      1.0  0.93598  0.61270  0.67510  1.0000
  C   C893      1.0  0.94186  0.58890  0.67681  1.0000
  H   H1417     1.0  0.00073  0.59312  0.67673  1.0000
  H   H1418     1.0  0.99038  0.63490  0.67285  1.0000
  H   H1419     1.0  0.91789  0.61818  0.67466  1.0000
  N   N89       1.0  0.92245  0.83065  0.74324  1.0000
  H   H1420     1.0  0.96617  0.79222  0.63410  1.0000
  S   S358      1.0  0.72312  0.98140  0.70294  1.0000
  N   N90       1.0  0.91212  0.56295  0.74326  1.0000
  H   H1421     1.0  0.95516  0.77777  0.60973  1.0000
  H   H1422     1.0  0.00213  0.75604  0.59443  1.0000
  C   C894      1.0  0.91349  0.82892  0.76747  1.0000
  S   S359      1.0  0.71430  0.91806  0.54840  1.0000
  H   H1423     1.0  0.74460  0.87962  0.56306  1.0000
  H   H1424     1.0  0.89540  0.56403  0.71054  1.0000
  H   H1425     1.0  0.95721  0.83598  0.75386  1.0000
  H   H1426     1.0  0.75508  0.82295  0.53575  1.0000
  C   C895      1.0  0.93257  0.54948  0.73473  1.0000
  H   H1427     1.0  0.89686  0.81942  0.76898  1.0000
  H   H1428     1.0  0.93692  0.55394  0.71627  1.0000
  H   H1429     1.0  0.96748  0.80999  0.58318  1.0000
  C   C896      1.0  0.78313  0.85392  0.55395  1.0000
  H   H1430     1.0  0.91019  0.84641  0.77458  1.0000
  C   C897      1.0  0.90497  0.84277  0.72878  1.0000
  N   N91       1.0  0.93732  0.65345  0.59762  1.0000
  C   C898      1.0  0.91588  0.64693  0.58628  1.0000
  C   C899      1.0  0.94494  0.63428  0.61342  1.0000
  C   C900      1.0  0.93259  0.67447  0.61096  1.0000
  C   C901      1.0  0.95583  0.65819  0.57985  1.0000
  H   H1431     1.0  0.90971  0.66103  0.57419  1.0000
  H   H1432     1.0  0.90154  0.64336  0.59923  1.0000
  H   H1433     1.0  0.96097  0.63870  0.62246  1.0000
  H   H1434     1.0  0.93142  0.63034  0.62713  1.0000
  H   H1435     1.0  0.94843  0.67988  0.61959  1.0000
  H   H1436     1.0  0.91903  0.67144  0.62488  1.0000
  H   H1437     1.0  0.92672  0.68932  0.59966  1.0000
  H   H1438     1.0  0.97229  0.66308  0.58784  1.0000
  H   H1439     1.0  0.95081  0.67284  0.56786  1.0000
  H   H1440     1.0  0.94877  0.61808  0.60405  1.0000
  H   H1441     1.0  0.98137  0.76985  0.57585  1.0000
  H   H1442     1.0  0.97601  0.76353  0.62810  1.0000
  H   H1443     1.0  0.77874  0.98871  0.76483  1.0000
  S   S360      1.0  0.98708  0.87389  0.76924  1.0000
  H   H1444     1.0  0.71888  0.02724  0.76513  1.0000
  C   C902      1.0  0.01066  0.79316  0.61927  1.0000
  Fe  Fe177     1.0  0.02692  0.68968  0.64990  1.0000
  S   S361      1.0  0.02118  0.72489  0.63315  1.0000
  C   C903      1.0  0.95423  0.72475  0.54376  1.0000
  H   H1445     1.0  0.90233  0.53697  0.76909  1.0000
  H   H1446     1.0  0.78657  0.86907  0.56460  1.0000
  H   H1447     1.0  0.79946  0.84970  0.54393  1.0000
  C   C904      1.0  0.76094  0.98517  0.76084  1.0000
  H   H1448     1.0  0.71130  0.01288  0.55249  1.0000
  H   H1449     1.0  0.96678  0.71610  0.53252  1.0000
  C   C905      1.0  0.93426  0.73536  0.53433  1.0000
  H   H1450     1.0  0.94103  0.86208  0.74730  1.0000
  N   N92       1.0  0.76362  0.85887  0.53842  1.0000
  H   H1451     1.0  0.77940  0.83888  0.56598  1.0000
  C   C906      1.0  0.89195  0.55857  0.72896  1.0000
  H   H1452     1.0  0.90104  0.86056  0.73498  1.0000
  N   N93       1.0  0.99025  0.78972  0.60498  1.0000
  C   C907      1.0  0.92729  0.80714  0.73474  1.0000
  C   C908      1.0  0.97097  0.78045  0.61981  1.0000
  H   H1453     1.0  0.94029  0.79759  0.74556  1.0000
  C   C909      1.0  0.98286  0.81208  0.59408  1.0000
  C   C910      1.0  0.72121  0.97770  0.77333  1.0000
  H   H1454     1.0  0.97798  0.82497  0.60734  1.0000
  H   H1455     1.0  0.02560  0.80024  0.60878  1.0000
  C   C911      1.0  0.91741  0.58791  0.74175  1.0000
  H   H1456     1.0  0.71844  0.93235  0.59498  1.0000
  H   H1457     1.0  0.95217  0.84458  0.72433  1.0000
  C   C912      1.0  0.94416  0.84389  0.74209  1.0000
  C   C913      1.0  0.70197  0.93903  0.58880  1.0000
  H   H1458     1.0  0.01091  0.77948  0.57519  1.0000
  H   H1459     1.0  0.72729  0.86838  0.54109  1.0000
  H   H1460     1.0  0.92193  0.59373  0.72361  1.0000
  C   C914      1.0  0.99645  0.77312  0.58681  1.0000
  H   H1461     1.0  0.93460  0.80774  0.71668  1.0000
  H   H1462     1.0  0.89121  0.56557  0.77461  1.0000
  C   C915      1.0  0.74230  0.86427  0.55233  1.0000
  C   C916      1.0  0.90655  0.55575  0.76755  1.0000
  H   H1463     1.0  0.01665  0.77656  0.62774  1.0000
  H   H1464     1.0  0.91127  0.84461  0.71043  1.0000
  H   H1465     1.0  0.88830  0.83331  0.72919  1.0000
  H   H1466     1.0  0.93254  0.59183  0.75236  1.0000
  H   H1467     1.0  0.87350  0.91268  0.77838  1.0000
  H   H1468     1.0  0.92941  0.53056  0.73614  1.0000
  H   H1469     1.0  0.69687  0.97324  0.74629  1.0000
  H   H1470     1.0  0.80498  0.84212  0.98354  1.0000
  H   H1471     1.0  0.70824  0.97524  0.78713  1.0000
  C   C917      1.0  0.70649  0.56148  0.90888  1.0000
  C   C918      1.0  0.96744  0.78959  0.84035  1.0000
  H   H1472     1.0  0.74093  0.85085  0.98818  1.0000
  Fe  Fe178     1.0  0.72142  0.67054  0.96985  1.0000
  S   S362      1.0  0.75176  0.69145  0.95461  1.0000
  S   S363      1.0  0.73037  0.63323  0.97909  1.0000
  Fe  Fe179     1.0  0.80838  0.00544  0.86672  1.0000
  S   S364      1.0  0.78114  0.97826  0.86419  1.0000
  Fe  Fe180     1.0  0.83868  0.98447  0.82864  1.0000
  S   S365      1.0  0.81362  0.95637  0.82222  1.0000
  S   S366      1.0  0.87504  0.98869  0.81344  1.0000
  Fe  Fe181     1.0  0.78547  0.98376  0.82557  1.0000
  S   S367      1.0  0.75054  0.98636  0.80803  1.0000
  Fe  Fe182     1.0  0.81109  0.95284  0.86096  1.0000
  S   S368      1.0  0.81430  0.91529  0.87269  1.0000
  S   S369      1.0  0.81095  0.01247  0.82831  1.0000
  S   S370      1.0  0.83794  0.97930  0.86720  1.0000
  Fe  Fe183     1.0  0.97445  0.86605  0.83524  1.0000
  S   S371      1.0  0.95242  0.85058  0.80919  1.0000
  S   S372      1.0  0.96665  0.86332  0.87361  1.0000
  Fe  Fe184     1.0  0.00690  0.88776  0.79878  1.0000
  H   H1473     1.0  0.97355  0.76369  0.87919  1.0000
  H   H1474     1.0  0.01021  0.80227  0.82568  1.0000
  Fe  Fe185     1.0  0.98568  0.84058  0.79043  1.0000
  S   S373      1.0  0.97492  0.90130  0.81772  1.0000
  S   S374      1.0  0.00794  0.85346  0.81847  1.0000
  Fe  Fe186     1.0  0.83296  0.79527  0.98596  1.0000
  S   S375      1.0  0.84376  0.82305  0.00956  1.0000
  S   S376      1.0  0.79757  0.77992  0.99604  1.0000
  Fe  Fe187     1.0  0.87482  0.80473  0.95270  1.0000
  S   S377      1.0  0.88833  0.83309  0.97381  1.0000
  S   S378      1.0  0.89020  0.79597  0.91745  1.0000
  Fe  Fe188     1.0  0.88017  0.80920  0.00436  1.0000
  Fe  Fe189     1.0  0.85092  0.84437  0.97703  1.0000
  S   S379      1.0  0.83901  0.88178  0.97395  1.0000
  S   S380      1.0  0.86911  0.77956  0.98302  1.0000
  S   S381      1.0  0.83775  0.81774  0.95381  1.0000
  C   C919      1.0  0.94488  0.84493  0.88524  1.0000
  C   C920      1.0  0.94106  0.84353  0.90925  1.0000
  C   C921      1.0  0.92416  0.82875  0.91922  1.0000
  C   C922      1.0  0.91098  0.81520  0.90525  1.0000
  C   C923      1.0  0.91486  0.81653  0.88118  1.0000
  C   C924      1.0  0.93165  0.83149  0.87117  1.0000
  H   H1475     1.0  0.95132  0.85377  0.92026  1.0000
  H   H1476     1.0  0.92182  0.82740  0.93777  1.0000
  H   H1477     1.0  0.90469  0.80605  0.87031  1.0000
  H   H1478     1.0  0.93436  0.83248  0.85267  1.0000
  C   C925      1.0  0.88767  0.96272  0.80340  1.0000
  H   H1479     1.0  0.00766  0.77170  0.82361  1.0000
  C   C926      1.0  0.87391  0.94581  0.79430  1.0000
  C   C927      1.0  0.92211  0.93840  0.79616  1.0000
  H   H1480     1.0  0.97680  0.88872  0.02356  1.0000
  H   H1481     1.0  0.92146  0.55850  0.77883  1.0000
  H   H1482     1.0  0.75378  0.67509  0.00259  1.0000
  Fe  Fe190     1.0  0.70758  0.63860  0.01084  1.0000
  H   H1483     1.0  0.01975  0.88707  0.02607  1.0000
  H   H1484     1.0  0.92257  0.97209  0.81111  1.0000
  C   C928      1.0  0.82340  0.90753  0.90057  1.0000
  C   C929      1.0  0.83268  0.88520  0.90460  1.0000
  C   C930      1.0  0.83900  0.87780  0.92687  1.0000
  C   C931      1.0  0.83508  0.89232  0.94545  1.0000
  C   C932      1.0  0.82630  0.91489  0.94136  1.0000
  C   C933      1.0  0.82071  0.92262  0.91886  1.0000
  H   H1485     1.0  0.83476  0.87348  0.89048  1.0000
  H   H1486     1.0  0.84628  0.86060  0.92972  1.0000
  H   H1487     1.0  0.82335  0.92625  0.95568  1.0000
  H   H1488     1.0  0.81352  0.93989  0.91582  1.0000
  H   H1489     1.0  0.71871  0.53573  0.88484  1.0000
  H   H1490     1.0  0.76122  0.81409  0.97717  1.0000
  H   H1491     1.0  0.92206  0.87811  0.85048  1.0000
  H   H1492     1.0  0.94076  0.93577  0.79666  1.0000
  C   C934      1.0  0.76391  0.71641  0.96602  1.0000
  C   C935      1.0  0.75209  0.72939  0.98280  1.0000
  C   C936      1.0  0.76258  0.74891  0.99164  1.0000
  C   C937      1.0  0.78499  0.75558  0.98389  1.0000
  C   C938      1.0  0.79675  0.74265  0.96705  1.0000
  C   C939      1.0  0.78621  0.72322  0.95812  1.0000
  H   H1493     1.0  0.73481  0.72450  0.98881  1.0000
  H   H1494     1.0  0.75330  0.75889  0.00460  1.0000
  H   H1495     1.0  0.81397  0.74762  0.96088  1.0000
  H   H1496     1.0  0.79543  0.71336  0.94503  1.0000
  C   C940      1.0  0.74679  0.55635  0.89577  1.0000
  C   C941      1.0  0.75282  0.57460  0.90966  1.0000
  C   C942      1.0  0.73576  0.58637  0.92301  1.0000
  H   H1497     1.0  0.75157  0.87817  0.97681  1.0000
  C   C943      1.0  0.00919  0.78574  0.83613  1.0000
  C   C944      1.0  0.72354  0.54978  0.89544  1.0000
  H   H1498     1.0  0.77078  0.57978  0.91000  1.0000
  H   H1499     1.0  0.74059  0.60051  0.93351  1.0000
  H   H1500     1.0  0.78021  0.84040  0.00289  1.0000
  H   H1501     1.0  0.78366  0.67733  0.99345  1.0000
  N   N94       1.0  0.89540  0.90143  0.86313  1.0000
  C   C945      1.0  0.91191  0.92043  0.86531  1.0000
  C   C946      1.0  0.87273  0.91117  0.85577  1.0000
  C   C947      1.0  0.89232  0.88884  0.88570  1.0000
  C   C948      1.0  0.90471  0.88531  0.84569  1.0000
  H   H1502     1.0  0.92928  0.91364  0.87067  1.0000
  H   H1503     1.0  0.90546  0.93290  0.87838  1.0000
  H   H1504     1.0  0.91451  0.93031  0.84857  1.0000
  H   H1505     1.0  0.85975  0.89736  0.85402  1.0000
  H   H1506     1.0  0.86517  0.92346  0.86852  1.0000
  H   H1507     1.0  0.87433  0.92080  0.83881  1.0000
  H   H1508     1.0  0.88051  0.87393  0.88454  1.0000
  H   H1509     1.0  0.88460  0.90030  0.89914  1.0000
  H   H1510     1.0  0.90919  0.88181  0.89209  1.0000
  H   H1511     1.0  0.90686  0.89415  0.82837  1.0000
  H   H1512     1.0  0.89292  0.87049  0.84389  1.0000
  C   C949      1.0  0.71251  0.57984  0.92267  1.0000
  N   N95       1.0  0.77240  0.84852  0.96731  1.0000
  C   C950      1.0  0.76915  0.82394  0.96210  1.0000
  H   H1513     1.0  0.78606  0.81506  0.95791  1.0000
  H   H1514     1.0  0.75783  0.82214  0.94709  1.0000
  H   H1515     1.0  0.00816  0.80339  0.87858  1.0000
  Fe  Fe191     1.0  0.95527  0.88475  0.79012  1.0000
  H   H1516     1.0  0.99233  0.82236  0.85936  1.0000
  H   H1517     1.0  0.97706  0.80613  0.88178  1.0000
  H   H1518     1.0  0.95195  0.78958  0.85242  1.0000
  C   C951      1.0  0.78754  0.84990  0.98733  1.0000
  S   S382      1.0  0.76897  0.54158  0.87993  1.0000
  H   H1519     1.0  0.98643  0.74905  0.85488  1.0000
  C   C952      1.0  0.77177  0.66972  0.00716  1.0000
  H   H1520     1.0  0.79043  0.86818  0.99185  1.0000
  H   H1521     1.0  0.80046  0.85258  0.94217  1.0000
  C   C953      1.0  0.91181  0.95901  0.80423  1.0000
  C   C954      1.0  0.90835  0.92171  0.78666  1.0000
  H   H1522     1.0  0.77236  0.86045  0.93157  1.0000
  H   H1523     1.0  0.85535  0.94869  0.79320  1.0000
  Fe  Fe192     1.0  0.69781  0.62463  0.96134  1.0000
  C   C955      1.0  0.78337  0.86071  0.94699  1.0000
  H   H1524     1.0  0.96522  0.77580  0.82770  1.0000
  C   C956      1.0  0.74961  0.85959  0.97285  1.0000
  H   H1525     1.0  0.96737  0.80639  0.83038  1.0000
  N   N96       1.0  0.98925  0.78612  0.85293  1.0000
  C   C957      1.0  0.88425  0.92547  0.78576  1.0000
  H   H1526     1.0  0.78670  0.87917  0.95052  1.0000
  S   S383      1.0  0.70084  0.67647  0.00297  1.0000
  C   C958      1.0  0.99183  0.80527  0.86886  1.0000
  H   H1527     1.0  0.73773  0.85888  0.95810  1.0000
  H   H1528     1.0  0.84226  0.01854  0.91181  1.0000
  H   H1529     1.0  0.81407  0.67868  0.02246  1.0000
  C   C959      1.0  0.98846  0.76388  0.86636  1.0000
  H   H1530     1.0  0.78618  0.71170  0.01755  1.0000
  H   H1531     1.0  0.87475  0.01712  0.85347  1.0000
  H   H1532     1.0  0.00465  0.76071  0.87611  1.0000
  H   H1533     1.0  0.02601  0.78317  0.84491  1.0000
  H   H1534     1.0  0.77304  0.65053  0.00613  1.0000
  C   C960      1.0  0.74426  0.98220  0.77878  1.0000
  H   H1535     1.0  0.75647  0.70866  0.02751  1.0000
  H   H1536     1.0  0.92617  0.81959  0.77879  1.0000
  S   S384      1.0  0.98641  0.80298  0.77942  1.0000
