data_image0
_chemical_formula_structural       SH2SFeSFeHSHCS3C3H3FeH2C6H4CH2C2HNC4H8FeHSC3H2CH2S2C2HC2H2CH2FeCSHS3HFeSH2FeS2FeSHFeSFeHS2H4C6HNH3CHCSC6H8NC4H9NHCH2CSCH5C2HCHCH2SCHCH4CH4SFeHCSHFeSC2FeS2NFeSCFeS2FeSFeS3HCHC6H6C3S2HSHCHC6H4CHC3H4C2HSH2CH3CH4NHCHCHNH2C2HCH4FeHCH8CSC2HNH3FeS2HSCFeSFeSHFeNSH2FeHC6H5CSC4SH3CH3CH3NC4H9FeH2SHCS2C2HCH4C2SFeSH2C2FeSFeS2FeS2FeSFeHS2C2H2CSHCSCHSC6H6CH2C6H4C2H7NHSH2SHCNH9CHCH2C2H2FeNCH3CHFeCSCH2CHC2HSNFeSH2FeHSFeH2CFeHS2H2SH5NH2SH2C6H6CHCHNC4H2CHSH3SHC3HCH4CH2CHCHCH2C2SH2CHCFeSCHFeCHFeSH2CFeSFeHFeHS2CS2H3C3HCH2SHC6H5NC4H12C2H3CHSHCNHSC2HSFeCSH2S2H2CHSHFeSHFeS2FeSFeCS2CHSHC7H7FeHCHCH2SNHC7H9NHNC2H5C2SCH4CSH3CHCHCSH2CFeH2CH4FeH4CHC3H2CFeSFeS2FeS2FeSFeS3CNSC2H2C7H7C2H3C7H5CSCHNH3SH4CH3CH3NH2NH2C2H2CH2FeCH7C2HCHCH3CNH2CH4SHCHCH4SNHFeSHFeSFeSHSH2CH2C8H2CSC2SHSCH5NCHCH5CH9CFeC2H2C2HCFeH4CHC2NC2H3S2FeCHFeSFeS2C6H2FeSH5C3SH3CH9NCH3C2H2CSNC3SCSH3CH3NHCH4CH2C3FeHNC2H2CH3CHCH4FeHSCHSFeS2FeSCFeSFeHS2H2CSNH2CHC8H7C6H6CHC2NC4H12CH2NSFeHFeNSH2CH2CH3CFeC2HSCSC2H6SH2CSH2CH8CSFe2SCSHNSHC2H2CH4C5H7FeCH3SH3CFeCH2CHCHCH3CSH3S2FeS2FeHSFeS2FeSFeS3C6H4C2H2C4H2CH3C6H6NCHCS2HNC4H5CH6CH2CH6FeHFeSCHCHNHCHC2HFeCH5CHSFeS2FeS2FeHFeS3CS2NC2SNH2FeHC7H4C6H4CHCNCH2CHCHCSH3CHCH4CHC2NFeH7CH3CSH3CH3CH3CSH5SH2CH2CH2CSH3CHCH3FeHSH2SFeSFeH2S2C2HCH3CSC6H2CH2NC2H3CH2CH5C2HC2H2S2FeH3CNCH3CHCSCSFeSFeCHFeHS2HSHC2SHSHC2HCSH3CFeC6H4CHFeH2C2HCNHCH2SC2SH3CH2SH4CHC3FeSFeSH3FeS2FeSHFeSFeS3HCFeSHCHC6H5CH2C6H4CH4CH2SH4SNHCH5CHNC4H7SH3SH2CH2CHFeHCHNHCHCFeS2FeS2FeSFeS4CHS2FeSH3C4SHNHC7H5SHCHCH3C7H9FeCHC2HCH5CH2NCHCH4SCH3C3SH3CHC3HCHFeHSH2S2CHFeSHFeHFeCSCSCH4NCHSC7H5SCHCFeHC2H3CSH2CNHNH3CH3CH3SHFeS2HSCSHSFeSHFeS2FeSFeS3H2CHC9H4C10H4CHCNH2CH3CNC3H8NH2FeH3SNH2CHC2H2FeHFeHCH2C2H3NH6SH4CH7CH2C2H2SCHCSCHFeSHFeSFeH2NHS2HCH4CFeC10H8NSH5SH2CSCSH6FeC3H3SHCHC3HCSH3FeH3CFeNHFeSH2S2FeSHSH6C6H6C3H2CHSHCH4C2H4SH3CNC4H3SNH2CHC3HFeCHCH5CHFeCH3SHFeSCHCFeS2FeSHFeSFeS3HNFeSH5C7HCH3NH2CSHSC6H4C2H4NH4NC2HSC2H2C2H5CHC3H2CH3FeHCHCH3CHC2HCH4FeSHSFeS2FeS2FeSFeS3CHSC6H4C3H2CH6NFeH2C6H4CHCNHCH4NC4H12NC4H4CHCH3CH6CHC2HCH4NCH3C2HS2HCFeSC2FeSH3S2CSHFeHNSNHCH2C7H2CHCHCHCH2FeCH3CH3NCSH4C2H2C2FeHFeH3C2H5CSCFeSFeSCSCHNH2SCH2CH2CH3C7H9C2HCH2CSC2H2CH3FeHSH3SH2SH2CHSHC3H3CFeH3SH2FeSCFeS2FeSCFeCFeS3HSCH3C7H4CHSH6C6H6CNH2C3H2CH2NHFeHSH2NFeH3CSHCFeH3CHC2H2C3HCH6SNC2H4CHCHCH2CHS3FeC2HSCH3CH4S2H3SHCHFeC6H2CSHNC4H12FeCH2NHCH2CHCHCHCSHCHCHCH2CHFeSCFeSCHNCHSFeSHFeS2FeCFeS3HCHC6H4CHC2HCHCH2SH2C6H6CH2C3HSHSHNHNH4CH2SHCH4CH5CHCHC3FeH2FeSCFeS2FeS2FeSFeS3CHS2HCHC6H4CHNC5HCH2C6H9FeH7CSH2CH2CSCH2NHCHNHCHCH7NC2SHCHSH3C3HCH4CHFeS2H3SCFeCFeH3S2HSH3SH2CHFeSCNC6H3CH3CH2CFeSHCHFeHC2H2CH3NH2NCNH2C2H2CSH8CH2S
_chemical_formula_sum              "S384 H1536 Fe192 C960 N96"
_cell_length_a       56.5337
_cell_length_b       55.785
_cell_length_c       60.2084
_cell_angle_alpha    88.5352
_cell_angle_beta     89.2087
_cell_angle_gamma    88.6545

_space_group_name_H-M_alt    "P 1"
_space_group_IT_number       1

loop_
  _space_group_symop_operation_xyz
  'x, y, z'

loop_
  _atom_site_type_symbol
  _atom_site_label
  _atom_site_symmetry_multiplicity
  _atom_site_fract_x
  _atom_site_fract_y
  _atom_site_fract_z
  _atom_site_occupancy
  S   S1        1.0  0.16190  0.07500  0.04833  1.0000
  H   H1        1.0  0.25563  0.05784  0.23252  1.0000
  H   H2        1.0  0.26521  0.21417  0.23350  1.0000
  S   S2        1.0  0.20467  0.12835  0.06170  1.0000
  Fe  Fe1       1.0  0.24581  0.11759  0.18601  1.0000
  S   S3        1.0  0.22853  0.09429  0.16074  1.0000
  Fe  Fe2       1.0  0.24129  0.16052  0.21607  1.0000
  H   H3        1.0  0.24605  0.24321  0.20769  1.0000
  S   S4        1.0  0.22063  0.19524  0.22095  1.0000
  H   H4        1.0  0.05303  0.26378  0.20383  1.0000
  C   C1        1.0  0.18968  0.21883  0.24846  1.0000
  S   S5        1.0  0.25610  0.15596  0.18150  1.0000
  S   S6        1.0  0.22860  0.12264  0.21969  1.0000
  S   S7        1.0  0.28112  0.10619  0.20003  1.0000
  C   C2        1.0  0.03622  0.26077  0.27510  1.0000
  C   C3        1.0  0.27960  0.21386  0.19077  1.0000
  C   C4        1.0  0.20693  0.20046  0.24689  1.0000
  H   H5        1.0  0.26202  0.20556  0.19320  1.0000
  H   H6        1.0  0.18448  0.22897  0.23369  1.0000
  H   H7        1.0  0.28064  0.22074  0.17328  1.0000
  Fe  Fe3       1.0  0.26480  0.11389  0.23330  1.0000
  H   H8        1.0  0.16724  0.11477  0.11594  1.0000
  H   H9        1.0  0.13415  0.14852  0.07185  1.0000
  C   C5        1.0  0.21224  0.11833  0.08885  1.0000
  C   C6        1.0  0.20990  0.09438  0.09576  1.0000
  C   C7        1.0  0.21505  0.08728  0.11782  1.0000
  C   C8        1.0  0.22289  0.10395  0.13305  1.0000
  C   C9        1.0  0.22547  0.12786  0.12604  1.0000
  C   C10       1.0  0.22012  0.13500  0.10404  1.0000
  H   H10       1.0  0.20415  0.08131  0.08415  1.0000
  H   H11       1.0  0.21314  0.06872  0.12309  1.0000
  H   H12       1.0  0.23149  0.14085  0.13760  1.0000
  H   H13       1.0  0.22210  0.15354  0.09878  1.0000
  C   C11       1.0  0.26135  0.04781  0.24719  1.0000
  H   H14       1.0  0.15399  0.12360  0.06721  1.0000
  H   H15       1.0  0.16004  0.09226  0.09660  1.0000
  C   C12       1.0  0.08037  0.12014  0.03044  1.0000
  C   C13       1.0  0.27148  0.05972  0.26472  1.0000
  H   H16       1.0  0.14412  0.09411  0.12250  1.0000
  N   N1        1.0  0.13486  0.12168  0.09821  1.0000
  C   C14       1.0  0.11544  0.10791  0.08890  1.0000
  C   C15       1.0  0.12519  0.13830  0.11495  1.0000
  C   C16       1.0  0.14661  0.13558  0.08018  1.0000
  C   C17       1.0  0.15226  0.10498  0.10880  1.0000
  H   H17       1.0  0.12223  0.09490  0.07647  1.0000
  H   H18       1.0  0.10227  0.11984  0.08021  1.0000
  H   H19       1.0  0.10590  0.09744  0.10203  1.0000
  H   H20       1.0  0.13948  0.14898  0.12218  1.0000
  H   H21       1.0  0.11195  0.15113  0.10752  1.0000
  H   H22       1.0  0.11633  0.12840  0.12891  1.0000
  H   H23       1.0  0.16173  0.14582  0.08647  1.0000
  H   H24       1.0  0.04330  0.29472  0.20427  1.0000
  Fe  Fe4       1.0  0.18612  0.10458  0.03776  1.0000
  H   H25       1.0  0.08470  0.18103  0.02842  1.0000
  S   S8        1.0  0.09722  0.09341  0.03351  1.0000
  C   C18       1.0  0.09078  0.14263  0.03086  1.0000
  C   C19       1.0  0.03747  0.27592  0.20685  1.0000
  C   C20       1.0  0.21348  0.18732  0.26601  1.0000
  H   H26       1.0  0.26332  0.25916  0.18713  1.0000
  H   H27       1.0  0.26571  0.26619  0.21599  1.0000
  C   C21       1.0  0.26367  0.25128  0.20430  1.0000
  H   H28       1.0  0.22680  0.17314  0.26496  1.0000
  H   H29       1.0  0.04003  0.26248  0.16425  1.0000
  S   S9        1.0  0.27506  0.09116  0.26376  1.0000
  S   S10       1.0  0.27579  0.15258  0.23286  1.0000
  C   C22       1.0  0.27862  0.49171  0.26899  1.0000
  C   C23       1.0  0.26165  0.53880  0.25887  1.0000
  H   H30       1.0  0.16525  0.23777  0.26980  1.0000
  C   C24       1.0  0.17877  0.22388  0.26896  1.0000
  C   C25       1.0  0.24884  0.52350  0.27328  1.0000
  H   H31       1.0  0.10959  0.14385  0.03344  1.0000
  H   H32       1.0  0.19382  0.28596  0.27609  1.0000
  C   C26       1.0  0.07669  0.16361  0.02810  1.0000
  H   H33       1.0  0.03248  0.27376  0.22474  1.0000
  H   H34       1.0  0.19935  0.29110  0.33728  1.0000
  Fe  Fe5       1.0  0.09543  0.19141  0.49519  1.0000
  C   C27       1.0  0.22678  0.30414  0.30250  1.0000
  S   S11       1.0  0.11337  0.19324  0.46117  1.0000
  H   H35       1.0  0.04472  0.29486  0.28849  1.0000
  S   S12       1.0  0.06358  0.24620  0.28096  1.0000
  S   S13       1.0  0.06398  0.16798  0.50074  1.0000
  S   S14       1.0  0.27532  0.39823  0.30372  1.0000
  H   H36       1.0  0.27658  0.49642  0.32023  1.0000
  Fe  Fe6       1.0  0.25704  0.40466  0.33657  1.0000
  S   S15       1.0  0.22593  0.38446  0.35153  1.0000
  H   H37       1.0  0.14629  0.15746  0.48009  1.0000
  H   H38       1.0  0.13341  0.08566  0.46106  1.0000
  Fe  Fe7       1.0  0.10866  0.26796  0.35043  1.0000
  S   S16       1.0  0.09216  0.29242  0.32421  1.0000
  S   S17       1.0  0.09638  0.27394  0.38597  1.0000
  Fe  Fe8       1.0  0.14243  0.24450  0.31684  1.0000
  S   S18       1.0  0.12856  0.26719  0.28845  1.0000
  H   H39       1.0  0.28191  0.44376  0.51888  1.0000
  Fe  Fe9       1.0  0.12963  0.29750  0.31226  1.0000
  S   S19       1.0  0.14434  0.33321  0.30071  1.0000
  Fe  Fe10      1.0  0.09247  0.25989  0.30300  1.0000
  H   H40       1.0  0.10516  0.14499  0.47222  1.0000
  S   S20       1.0  0.14604  0.27536  0.33970  1.0000
  S   S21       1.0  0.10636  0.23489  0.33013  1.0000
  H   H41       1.0  0.14146  0.09145  0.48902  1.0000
  H   H42       1.0  0.18168  0.26576  0.29666  1.0000
  H   H43       1.0  0.20819  0.18271  0.30144  1.0000
  H   H44       1.0  0.21608  0.31943  0.30921  1.0000
  C   C28       1.0  0.20521  0.36881  0.33609  1.0000
  C   C29       1.0  0.19948  0.37570  0.31430  1.0000
  C   C30       1.0  0.18094  0.36446  0.30350  1.0000
  C   C31       1.0  0.16841  0.34594  0.31421  1.0000
  C   C32       1.0  0.17486  0.33835  0.33562  1.0000
  C   C33       1.0  0.19298  0.34995  0.34661  1.0000
  H   H45       1.0  0.20869  0.39030  0.30609  1.0000
  N   N2        1.0  0.21446  0.28119  0.30578  1.0000
  H   H46       1.0  0.16544  0.32406  0.34397  1.0000
  H   H47       1.0  0.19741  0.34453  0.36346  1.0000
  H   H48       1.0  0.09372  0.32387  0.40367  1.0000
  C   C34       1.0  0.19154  0.28265  0.29428  1.0000
  H   H49       1.0  0.11449  0.34074  0.41903  1.0000
  C   C35       1.0  0.11152  0.12615  0.47493  1.0000
  S   S22       1.0  0.26283  0.44474  0.33569  1.0000
  C   C36       1.0  0.10779  0.21568  0.44044  1.0000
  C   C37       1.0  0.09382  0.23614  0.44465  1.0000
  C   C38       1.0  0.09037  0.25383  0.42779  1.0000
  C   C39       1.0  0.10062  0.25108  0.40657  1.0000
  C   C40       1.0  0.11442  0.23053  0.40233  1.0000
  C   C41       1.0  0.11807  0.21300  0.41924  1.0000
  H   H50       1.0  0.08583  0.23840  0.46091  1.0000
  H   H51       1.0  0.07963  0.26964  0.43119  1.0000
  H   H52       1.0  0.12243  0.22822  0.38608  1.0000
  H   H53       1.0  0.12894  0.19727  0.41584  1.0000
  H   H54       1.0  0.24713  0.48831  0.28920  1.0000
  H   H55       1.0  0.09986  0.11450  0.46541  1.0000
  H   H56       1.0  0.10882  0.12167  0.49283  1.0000
  H   H57       1.0  0.16300  0.09457  0.46712  1.0000
  N   N3        1.0  0.11735  0.34516  0.38343  1.0000
  C   C42       1.0  0.11390  0.33065  0.36362  1.0000
  C   C43       1.0  0.11218  0.33048  0.40365  1.0000
  C   C44       1.0  0.10116  0.36634  0.38251  1.0000
  C   C45       1.0  0.14211  0.35308  0.38386  1.0000
  H   H58       1.0  0.11812  0.34077  0.34791  1.0000
  H   H59       1.0  0.09532  0.32455  0.36269  1.0000
  H   H60       1.0  0.12398  0.31420  0.40472  1.0000
  H   H61       1.0  0.10332  0.37781  0.39716  1.0000
  H   H62       1.0  0.08234  0.36090  0.38219  1.0000
  H   H63       1.0  0.10452  0.37761  0.36728  1.0000
  H   H64       1.0  0.14543  0.36406  0.39862  1.0000
  H   H65       1.0  0.14661  0.36416  0.36878  1.0000
  H   H66       1.0  0.15476  0.33747  0.38441  1.0000
  N   N4        1.0  0.13663  0.12304  0.46823  1.0000
  H   H67       1.0  0.15827  0.12824  0.43893  1.0000
  C   C46       1.0  0.14397  0.09758  0.47142  1.0000
  H   H68       1.0  0.12535  0.31419  0.36414  1.0000
  H   H69       1.0  0.17050  0.13628  0.47741  1.0000
  C   C47       1.0  0.15144  0.13812  0.48202  1.0000
  S   S23       1.0  0.17359  0.21831  0.31451  1.0000
  C   C48       1.0  0.13955  0.13037  0.44460  1.0000
  H   H70       1.0  0.12840  0.11961  0.43371  1.0000
  H   H71       1.0  0.14968  0.13312  0.49997  1.0000
  H   H72       1.0  0.13424  0.14960  0.44180  1.0000
  H   H73       1.0  0.22038  0.24380  0.29935  1.0000
  H   H74       1.0  0.20794  0.05896  0.34203  1.0000
  C   C49       1.0  0.22907  0.26138  0.29658  1.0000
  C   C50       1.0  0.25735  0.50009  0.27844  1.0000
  H   H75       1.0  0.23011  0.30828  0.28457  1.0000
  C   C51       1.0  0.18544  0.21097  0.28817  1.0000
  H   H76       1.0  0.18006  0.29735  0.30076  1.0000
  C   C52       1.0  0.20824  0.05423  0.32418  1.0000
  H   H77       1.0  0.22721  0.27507  0.33899  1.0000
  H   H78       1.0  0.20077  0.25939  0.33278  1.0000
  S   S24       1.0  0.08202  0.21998  0.51826  1.0000
  C   C53       1.0  0.20290  0.19274  0.28664  1.0000
  H   H79       1.0  0.22185  0.06543  0.31559  1.0000
  C   C54       1.0  0.21030  0.27650  0.32978  1.0000
  H   H80       1.0  0.24671  0.26000  0.30454  1.0000
  H   H81       1.0  0.17607  0.37041  0.28690  1.0000
  H   H82       1.0  0.19078  0.05955  0.31704  1.0000
  H   H83       1.0  0.09193  0.06042  0.52560  1.0000
  C   C55       1.0  0.27892  0.04638  0.28359  1.0000
  H   H84       1.0  0.03705  0.07812  0.52129  1.0000
  H   H85       1.0  0.27092  0.51884  0.34065  1.0000
  H   H86       1.0  0.24411  0.30383  0.31106  1.0000
  H   H87       1.0  0.23213  0.52968  0.28028  1.0000
  S   S25       1.0  0.11697  0.17207  0.52153  1.0000
  Fe  Fe11      1.0  0.05233  0.19473  0.52601  1.0000
  H   H88       1.0  0.23188  0.26384  0.27834  1.0000
  C   C56       1.0  0.15125  0.06715  0.53140  1.0000
  S   S26       1.0  0.07041  0.17562  0.55448  1.0000
  H   H89       1.0  0.07193  0.28324  0.56206  1.0000
  Fe  Fe12      1.0  0.10103  0.19878  0.54516  1.0000
  S   S27       1.0  0.12394  0.21745  0.56967  1.0000
  C   C57       1.0  0.10842  0.06924  0.52844  1.0000
  C   C58       1.0  0.04252  0.29296  0.76343  1.0000
  Fe  Fe13      1.0  0.25015  0.43325  0.71617  1.0000
  S   S28       1.0  0.21109  0.42488  0.71386  1.0000
  S   S29       1.0  0.26258  0.44665  0.74892  1.0000
  N   N5        1.0  0.04135  0.26168  0.56856  1.0000
  Fe  Fe14      1.0  0.09819  0.28649  0.73559  1.0000
  S   S30       1.0  0.09523  0.25039  0.72050  1.0000
  C   C59       1.0  0.25096  0.21645  0.76625  1.0000
  Fe  Fe15      1.0  0.14283  0.29880  0.70844  1.0000
  S   S31       1.0  0.14223  0.26359  0.69091  1.0000
  S   S32       1.0  0.17695  0.31830  0.69979  1.0000
  Fe  Fe16      1.0  0.10320  0.26963  0.68811  1.0000
  S   S33       1.0  0.08085  0.25799  0.65937  1.0000
  Fe  Fe17      1.0  0.13456  0.24713  0.72443  1.0000
  S   S34       1.0  0.15251  0.21109  0.73167  1.0000
  S   S35       1.0  0.10381  0.30643  0.70284  1.0000
  S   S36       1.0  0.13733  0.28167  0.74231  1.0000
  H   H90       1.0  0.24660  0.19776  0.77140  1.0000
  C   C60       1.0  0.27132  0.52033  0.77542  1.0000
  H   H91       1.0  0.12988  0.12400  0.53956  1.0000
  C   C61       1.0  0.20134  0.39549  0.70908  1.0000
  C   C62       1.0  0.17794  0.38942  0.71462  1.0000
  C   C63       1.0  0.16996  0.36592  0.71176  1.0000
  C   C64       1.0  0.18532  0.34840  0.70304  1.0000
  C   C65       1.0  0.20857  0.35463  0.69717  1.0000
  C   C66       1.0  0.21662  0.37797  0.70032  1.0000
  H   H92       1.0  0.16594  0.40291  0.72128  1.0000
  H   H93       1.0  0.15198  0.36138  0.71623  1.0000
  H   H94       1.0  0.22051  0.34124  0.69026  1.0000
  H   H95       1.0  0.23455  0.38245  0.69571  1.0000
  H   H96       1.0  0.03406  0.27849  0.59974  1.0000
  H   H97       1.0  0.16179  0.21339  0.68345  1.0000
  C   C67       1.0  0.27647  0.40104  0.53961  1.0000
  C   C68       1.0  0.18241  0.18612  0.75965  1.0000
  C   C69       1.0  0.16989  0.20778  0.75565  1.0000
  S   S37       1.0  0.27925  0.40551  0.71267  1.0000
  S   S38       1.0  0.07329  0.29838  0.76355  1.0000
  H   H98       1.0  0.18124  0.17172  0.74806  1.0000
  S   S39       1.0  0.08149  0.11046  0.53156  1.0000
  H   H99       1.0  0.07746  0.25148  0.56065  1.0000
  C   C70       1.0  0.06711  0.26558  0.56960  1.0000
  H   H100      1.0  0.07334  0.26522  0.58708  1.0000
  C   C71       1.0  0.11240  0.22737  0.59528  1.0000
  C   C72       1.0  0.09018  0.22032  0.60315  1.0000
  C   C73       1.0  0.08090  0.22958  0.62304  1.0000
  C   C74       1.0  0.09387  0.24566  0.63534  1.0000
  C   C75       1.0  0.11650  0.25193  0.62797  1.0000
  C   C76       1.0  0.12568  0.24287  0.60794  1.0000
  H   H101      1.0  0.08010  0.20791  0.59381  1.0000
  H   H102      1.0  0.06358  0.22431  0.62898  1.0000
  H   H103      1.0  0.12661  0.26436  0.63733  1.0000
  H   H104      1.0  0.14296  0.24828  0.60200  1.0000
  C   C77       1.0  0.27227  0.43586  0.56253  1.0000
  H   H105      1.0  0.21040  0.39869  0.75663  1.0000
  C   C78       1.0  0.03361  0.26392  0.54523  1.0000
  C   C79       1.0  0.13031  0.18320  0.64593  1.0000
  C   C80       1.0  0.23979  0.04009  0.76617  1.0000
  H   H106      1.0  0.10105  0.18909  0.68072  1.0000
  H   H107      1.0  0.26507  0.36098  0.76197  1.0000
  H   H108      1.0  0.26594  0.42493  0.57706  1.0000
  H   H109      1.0  0.04064  0.23535  0.59526  1.0000
  C   C81       1.0  0.10838  0.09389  0.53239  1.0000
  C   C82       1.0  0.03604  0.23742  0.57743  1.0000
  H   H110      1.0  0.27025  0.38892  0.55335  1.0000
  S   S40       1.0  0.26926  0.46186  0.69618  1.0000
  H   H111      1.0  0.16772  0.10051  0.53840  1.0000
  H   H112      1.0  0.04289  0.25048  0.53468  1.0000
  C   C83       1.0  0.15119  0.09177  0.53554  1.0000
  H   H113      1.0  0.26299  0.26148  0.77509  1.0000
  H   H114      1.0  0.13102  0.15540  0.68325  1.0000
  H   H115      1.0  0.15046  0.17370  0.69849  1.0000
  C   C84       1.0  0.14519  0.16884  0.68142  1.0000
  H   H116      1.0  0.14554  0.17493  0.63678  1.0000
  H   H117      1.0  0.16082  0.16000  0.67340  1.0000
  H   H118      1.0  0.11574  0.17013  0.64652  1.0000
  H   H119      1.0  0.04276  0.27529  0.73207  1.0000
  N   N6        1.0  0.13702  0.19025  0.66846  1.0000
  H   H120      1.0  0.12047  0.20627  0.69703  1.0000
  C   C85       1.0  0.15628  0.20769  0.66672  1.0000
  H   H121      1.0  0.12406  0.19902  0.63582  1.0000
  C   C86       1.0  0.11629  0.20133  0.67978  1.0000
  H   H122      1.0  0.15066  0.22416  0.65714  1.0000
  N   N7        1.0  0.22845  0.36746  0.77048  1.0000
  H   H123      1.0  0.17221  0.20000  0.65822  1.0000
  H   H124      1.0  0.11028  0.21807  0.67102  1.0000
  C   C87       1.0  0.22857  0.39212  0.76095  1.0000
  C   C88       1.0  0.12979  0.10511  0.53608  1.0000
  H   H125      1.0  0.22130  0.04281  0.76217  1.0000
  C   C89       1.0  0.21951  0.35097  0.75386  1.0000
  H   H126      1.0  0.23551  0.22798  0.77122  1.0000
  H   H127      1.0  0.25230  0.21718  0.74780  1.0000
  H   H128      1.0  0.03713  0.28200  0.53790  1.0000
  H   H129      1.0  0.23107  0.35072  0.73876  1.0000
  Fe  Fe18      1.0  0.08453  0.15070  0.52859  1.0000
  H   H130      1.0  0.25653  0.44258  0.55316  1.0000
  C   C90       1.0  0.17141  0.22628  0.77077  1.0000
  H   H131      1.0  0.23944  0.39314  0.74543  1.0000
  H   H132      1.0  0.21858  0.33224  0.76053  1.0000
  H   H133      1.0  0.26510  0.50216  0.77504  1.0000
  H   H134      1.0  0.20139  0.35646  0.74840  1.0000
  H   H135      1.0  0.23598  0.40498  0.77270  1.0000
  H   H136      1.0  0.16173  0.24297  0.76789  1.0000
  H   H137      1.0  0.04606  0.22335  0.56819  1.0000
  H   H138      1.0  0.27966  0.25116  0.75143  1.0000
  C   C91       1.0  0.27771  0.24920  0.76981  1.0000
  S   S41       1.0  0.17828  0.05096  0.52982  1.0000
  C   C92       1.0  0.25280  0.36002  0.77662  1.0000
  C   C93       1.0  0.12980  0.05589  0.52791  1.0000
  H   H139      1.0  0.28101  0.45180  0.56921  1.0000
  N   N8        1.0  0.27301  0.22411  0.77665  1.0000
  H   H140      1.0  0.03219  0.29831  0.57581  1.0000
  H   H141      1.0  0.26078  0.40678  0.52965  1.0000
  H   H142      1.0  0.04778  0.10136  0.02713  1.0000
  Fe  Fe19      1.0  0.17377  0.10132  0.98859  1.0000
  S   S42       1.0  0.20291  0.08454  0.00928  1.0000
  S   S43       1.0  0.17399  0.11836  0.95391  1.0000
  H   H143      1.0  0.13992  0.15229  0.97291  1.0000
  S   S44       1.0  0.14846  0.07152  0.99536  1.0000
  C   C94       1.0  0.26539  0.53497  0.79354  1.0000
  Fe  Fe20      1.0  0.23774  0.16431  0.82053  1.0000
  S   S45       1.0  0.21569  0.19830  0.81743  1.0000
  Fe  Fe21      1.0  0.25909  0.12739  0.85310  1.0000
  S   S46       1.0  0.26179  0.10965  0.88717  1.0000
  H   H144      1.0  0.26003  0.37198  0.78929  1.0000
  Fe  Fe22      1.0  0.13609  0.09249  0.02473  1.0000
  N   N9        1.0  0.23282  0.04843  0.84997  1.0000
  S   S47       1.0  0.22649  0.12788  0.83243  1.0000
  H   H145      1.0  0.11944  0.17719  0.96964  1.0000
  H   H146      1.0  0.11702  0.15715  0.99329  1.0000
  Fe  Fe23      1.0  0.17616  0.05632  0.01827  1.0000
  H   H147      1.0  0.18629  0.23741  0.80153  1.0000
  C   C95       1.0  0.19857  0.11546  0.93562  1.0000
  C   C96       1.0  0.21901  0.10238  0.94164  1.0000
  C   C97       1.0  0.23828  0.10066  0.92664  1.0000
  C   C98       1.0  0.23724  0.11199  0.90556  1.0000
  C   C99       1.0  0.21674  0.12490  0.89948  1.0000
  C   C100      1.0  0.19750  0.12661  0.91446  1.0000
  H   H148      1.0  0.22003  0.09374  0.95791  1.0000
  H   H149      1.0  0.25408  0.09066  0.93149  1.0000
  H   H150      1.0  0.21576  0.13381  0.88334  1.0000
  H   H151      1.0  0.18178  0.13680  0.90969  1.0000
  H   H152      1.0  0.22077  0.08303  0.86105  1.0000
  C   C101      1.0  0.27542  0.05397  0.78296  1.0000
  S   S48       1.0  0.26823  0.16535  0.84400  1.0000
  C   C102      1.0  0.25660  0.05707  0.84389  1.0000
  C   C103      1.0  0.04194  0.13959  0.02442  1.0000
  C   C104      1.0  0.21289  0.36681  0.79040  1.0000
  C   C105      1.0  0.19635  0.18293  0.77869  1.0000
  S   S49       1.0  0.15889  0.12365  0.01630  1.0000
  H   H153      1.0  0.21448  0.07712  0.83246  1.0000
  H   H154      1.0  0.20584  0.16612  0.78169  1.0000
  H   H155      1.0  0.19756  0.06310  0.85436  1.0000
  C   C106      1.0  0.18529  0.22308  0.78984  1.0000
  H   H156      1.0  0.25666  0.06579  0.82708  1.0000
  H   H157      1.0  0.25461  0.52788  0.80705  1.0000
  H   H158      1.0  0.23857  0.05096  0.88504  1.0000
  C   C107      1.0  0.19775  0.20141  0.79384  1.0000
  H   H159      1.0  0.04252  0.20528  0.81955  1.0000
  H   H160      1.0  0.26997  0.04213  0.84359  1.0000
  H   H161      1.0  0.26266  0.07048  0.85582  1.0000
  N   N10       1.0  0.10511  0.14280  0.96270  1.0000
  C   C108      1.0  0.11121  0.14458  0.93877  1.0000
  C   C109      1.0  0.10798  0.11761  0.97058  1.0000
  C   C110      1.0  0.08029  0.15092  0.96627  1.0000
  C   C111      1.0  0.12104  0.15805  0.97518  1.0000
  H   H162      1.0  0.10916  0.16334  0.93224  1.0000
  H   H163      1.0  0.09981  0.13304  0.92884  1.0000
  H   H164      1.0  0.12995  0.13875  0.93563  1.0000
  H   H165      1.0  0.09579  0.10562  0.96203  1.0000
  H   H166      1.0  0.12633  0.11071  0.96757  1.0000
  H   H167      1.0  0.10434  0.11567  0.98873  1.0000
  H   H168      1.0  0.07490  0.14894  0.98404  1.0000
  H   H169      1.0  0.06781  0.14026  0.95662  1.0000
  H   H170      1.0  0.07756  0.17016  0.96139  1.0000
  Fe  Fe24      1.0  0.25072  0.11374  0.80556  1.0000
  H   H171      1.0  0.21244  0.34848  0.79812  1.0000
  H   H172      1.0  0.21897  0.37930  0.80316  1.0000
  S   S50       1.0  0.25898  0.15050  0.79172  1.0000
  H   H173      1.0  0.25359  0.34134  0.78349  1.0000
  C   C112      1.0  0.21565  0.06882  0.84946  1.0000
  S   S51       1.0  0.03488  0.18835  0.02029  1.0000
  S   S52       1.0  0.23534  0.08340  0.78643  1.0000
  C   C113      1.0  0.05223  0.16211  0.02479  1.0000
  C   C114      1.0  0.05593  0.11871  0.02744  1.0000
  H   H174      1.0  0.04654  0.23678  0.82308  1.0000
  C   C115      1.0  0.27035  0.22240  0.80109  1.0000
  H   H175      1.0  0.03619  0.30994  0.79477  1.0000
  H   H176      1.0  0.26749  0.20358  0.80685  1.0000
  H   H177      1.0  0.25481  0.23320  0.80705  1.0000
  H   H178      1.0  0.19436  0.37222  0.78613  1.0000
  C   C116      1.0  0.25153  0.05766  0.77784  1.0000
  C   C117      1.0  0.03346  0.22217  0.82482  1.0000
  S   S53       1.0  0.07317  0.89370  0.05651  1.0000
  Fe  Fe25      1.0  0.10388  0.86772  0.05239  1.0000
  S   S54       1.0  0.12610  0.85065  0.07995  1.0000
  H   H179      1.0  0.19002  0.64062  0.24222  1.0000
  H   H180      1.0  0.28078  0.65037  0.16248  1.0000
  C   C118      1.0  0.17736  0.63267  0.23063  1.0000
  C   C119      1.0  0.20837  0.62023  0.20523  1.0000
  Fe  Fe26      1.0  0.26439  0.64538  0.21081  1.0000
  S   S55       1.0  0.24016  0.67069  0.19094  1.0000
  Fe  Fe27      1.0  0.10613  0.79528  0.19823  1.0000
  S   S56       1.0  0.09750  0.76517  0.22236  1.0000
  S   S57       1.0  0.08337  0.80295  0.16813  1.0000
  Fe  Fe28      1.0  0.14357  0.81484  0.22748  1.0000
  S   S58       1.0  0.13815  0.78687  0.25423  1.0000
  S   S59       1.0  0.16960  0.84504  0.22667  1.0000
  Fe  Fe29      1.0  0.13689  0.76067  0.22657  1.0000
  S   S60       1.0  0.15179  0.72362  0.23619  1.0000
  Fe  Fe30      1.0  0.09914  0.79271  0.24866  1.0000
  H   H181      1.0  0.20223  0.88192  0.23660  1.0000
  S   S61       1.0  0.14545  0.78830  0.19984  1.0000
  S   S62       1.0  0.10471  0.82336  0.22435  1.0000
  C   C120      1.0  0.25831  0.02283  0.24872  1.0000
  C   C121      1.0  0.27984  0.66027  0.14620  1.0000
  H   H182      1.0  0.25021  0.01380  0.23516  1.0000
  H   H183      1.0  0.11362  0.86417  0.14553  1.0000
  C   C122      1.0  0.18054  0.85479  0.25213  1.0000
  S   S63       1.0  0.08997  0.95705  0.03232  1.0000
  H   H184      1.0  0.11376  0.69426  0.25851  1.0000
  C   C123      1.0  0.19695  0.59406  0.23580  1.0000
  S   S64       1.0  0.27193  0.60774  0.19948  1.0000
  C   C124      1.0  0.15214  0.85306  0.17065  1.0000
  H   H185      1.0  0.27231  0.70534  0.15953  1.0000
  S   S65       1.0  0.24983  0.56771  0.25216  1.0000
  C   C125      1.0  0.21703  0.68709  0.20423  1.0000
  C   C126      1.0  0.20307  0.70349  0.19171  1.0000
  C   C127      1.0  0.18367  0.71573  0.20155  1.0000
  C   C128      1.0  0.17780  0.71126  0.22390  1.0000
  C   C129      1.0  0.19188  0.69499  0.23643  1.0000
  C   C130      1.0  0.21164  0.68327  0.22675  1.0000
  H   H186      1.0  0.20711  0.70661  0.17428  1.0000
  H   H187      1.0  0.17286  0.72809  0.19168  1.0000
  H   H188      1.0  0.18757  0.69155  0.25376  1.0000
  H   H189      1.0  0.22252  0.67110  0.23668  1.0000
  H   H190      1.0  0.21042  0.60175  0.24677  1.0000
  H   H191      1.0  0.14425  0.83857  0.18118  1.0000
  C   C131      1.0  0.11322  0.86987  0.16312  1.0000
  H   H192      1.0  0.04768  0.99222  0.03319  1.0000
  H   H193      1.0  0.22189  0.62878  0.21544  1.0000
  C   C132      1.0  0.11364  0.83619  0.10361  1.0000
  C   C133      1.0  0.08927  0.83689  0.10791  1.0000
  C   C134      1.0  0.08016  0.82617  0.12755  1.0000
  C   C135      1.0  0.09534  0.81487  0.14307  1.0000
  C   C136      1.0  0.11966  0.81385  0.13861  1.0000
  C   C137      1.0  0.12875  0.82445  0.11892  1.0000
  H   H194      1.0  0.07747  0.84581  0.09617  1.0000
  H   H195      1.0  0.06130  0.82688  0.13084  1.0000
  H   H196      1.0  0.13144  0.80482  0.15027  1.0000
  H   H197      1.0  0.14760  0.82363  0.11553  1.0000
  C   C138      1.0  0.13565  0.88412  0.19375  1.0000
  C   C139      1.0  0.17063  0.60105  0.20491  1.0000
  H   H198      1.0  0.26130  0.66713  0.14438  1.0000
  H   H199      1.0  0.14922  0.88722  0.13853  1.0000
  H   H200      1.0  0.10114  0.88584  0.16398  1.0000
  H   H201      1.0  0.17846  0.58547  0.19595  1.0000
  H   H202      1.0  0.08310  0.68994  0.25209  1.0000
  H   H203      1.0  0.17180  0.64721  0.21862  1.0000
  H   H204      1.0  0.16601  0.89783  0.16129  1.0000
  N   N11       1.0  0.18829  0.61199  0.21915  1.0000
  H   H205      1.0  0.13970  0.94287  0.03663  1.0000
  S   S66       1.0  0.25954  0.97850  0.26950  1.0000
  H   H206      1.0  0.13706  0.91046  0.15566  1.0000
  H   H207      1.0  0.21733  0.60510  0.19652  1.0000
  S   S67       1.0  0.26088  0.63409  0.24656  1.0000
  H   H208      1.0  0.16377  0.61420  0.19219  1.0000
  C   C140      1.0  0.14785  0.89352  0.15595  1.0000
  N   N12       1.0  0.13720  0.87515  0.17087  1.0000
  H   H209      1.0  0.15526  0.59447  0.21487  1.0000
  H   H210      1.0  0.17009  0.85614  0.17728  1.0000
  H   H211      1.0  0.15444  0.84620  0.15356  1.0000
  H   H212      1.0  0.16154  0.62736  0.24060  1.0000
  H   H213      1.0  0.20263  0.63383  0.19242  1.0000
  H   H214      1.0  0.15349  0.88805  0.20023  1.0000
  H   H215      1.0  0.12457  0.90080  0.19466  1.0000
  H   H216      1.0  0.12784  0.87053  0.20540  1.0000
  H   H217      1.0  0.10510  0.85512  0.17326  1.0000
  C   C141      1.0  0.13846  0.96196  0.03318  1.0000
  H   H218      1.0  0.20563  0.57829  0.22777  1.0000
  C   C142      1.0  0.19663  0.87360  0.25217  1.0000
  H   H219      1.0  0.18239  0.58729  0.24668  1.0000
  H   H220      1.0  0.21779  0.89634  0.27219  1.0000
  C   C143      1.0  0.09627  0.70354  0.25631  1.0000
  C   C144      1.0  0.17341  0.84414  0.27231  1.0000
  H   H221      1.0  0.16096  0.82973  0.27248  1.0000
  H   H222      1.0  0.04293  0.80056  0.24305  1.0000
  Fe  Fe31      1.0  0.27186  0.59708  0.23590  1.0000
  N   N13       1.0  0.08904  0.71676  0.27637  1.0000
  C   C145      1.0  0.06600  0.72917  0.27254  1.0000
  H   H223      1.0  0.09822  0.71590  0.24162  1.0000
  H   H224      1.0  0.06707  0.74241  0.25841  1.0000
  H   H225      1.0  0.05192  0.71638  0.26869  1.0000
  C   C146      1.0  0.26524  0.00955  0.26778  1.0000
  H   H226      1.0  0.10900  0.74769  0.26713  1.0000
  Fe  Fe32      1.0  0.09201  0.91666  0.03109  1.0000
  C   C147      1.0  0.11624  0.97336  0.03141  1.0000
  S   S68       1.0  0.12396  0.89243  0.02916  1.0000
  C   C148      1.0  0.15913  0.97535  0.03044  1.0000
  H   H227      1.0  0.17633  0.96649  0.03149  1.0000
  H   H228      1.0  0.27806  0.69907  0.11900  1.0000
  C   C149      1.0  0.20548  0.88177  0.27229  1.0000
  H   H229      1.0  0.03630  0.95084  0.02829  1.0000
  C   C150      1.0  0.03272  0.79637  0.25793  1.0000
  C   C151      1.0  0.11475  0.99826  0.02794  1.0000
  H   H230      1.0  0.25411  0.86445  0.33380  1.0000
  S   S69       1.0  0.16113  0.99615  0.49521  1.0000
  N   N14       1.0  0.26982  0.83726  0.31325  1.0000
  Fe  Fe33      1.0  0.18876  0.96729  0.50062  1.0000
  S   S70       1.0  0.21000  0.94578  0.47558  1.0000
  H   H231      1.0  0.10302  0.91415  0.44691  1.0000
  H   H232      1.0  0.19661  0.99001  0.45125  1.0000
  Fe  Fe34      1.0  0.24238  0.95413  0.34967  1.0000
  H   H233      1.0  0.17721  0.01826  0.32614  1.0000
  S   S71       1.0  0.22451  0.97902  0.37447  1.0000
  Fe  Fe35      1.0  0.23392  0.91137  0.32002  1.0000
  H   H234      1.0  0.27534  0.94745  0.51615  1.0000
  H   H235      1.0  0.16731  0.92420  0.43586  1.0000
  C   C152      1.0  0.04730  0.92408  0.51062  1.0000
  Fe  Fe36      1.0  0.25891  0.95558  0.30126  1.0000
  H   H236      1.0  0.25098  0.03338  0.32367  1.0000
  S   S72       1.0  0.25023  0.91477  0.35352  1.0000
  S   S73       1.0  0.22333  0.95026  0.31751  1.0000
  H   H237      1.0  0.13043  0.93014  0.48702  1.0000
  H   H238      1.0  0.13518  0.90267  0.47271  1.0000
  S   S74       1.0  0.10096  0.97064  0.50489  1.0000
  H   H239      1.0  0.24758  0.81041  0.30009  1.0000
  H   H240      1.0  0.13052  0.96919  0.46599  1.0000
  H   H241      1.0  0.17669  0.84388  0.30794  1.0000
  H   H242      1.0  0.09822  0.94146  0.46154  1.0000
  H   H243      1.0  0.10356  0.94258  0.43205  1.0000
  N   N15       1.0  0.21349  0.02838  0.32144  1.0000
  H   H244      1.0  0.13771  0.96977  0.43690  1.0000
  H   H245      1.0  0.19866  0.99457  0.33129  1.0000
  S   S75       1.0  0.16470  0.94383  0.52091  1.0000
  H   H246      1.0  0.22675  0.03428  0.28815  1.0000
  H   H247      1.0  0.26613  0.89366  0.52041  1.0000
  C   C153      1.0  0.21355  0.95535  0.44752  1.0000
  C   C154      1.0  0.22499  0.93988  0.43256  1.0000
  C   C155      1.0  0.22833  0.94686  0.41014  1.0000
  C   C156      1.0  0.22026  0.96943  0.40247  1.0000
  C   C157      1.0  0.20861  0.98483  0.41739  1.0000
  C   C158      1.0  0.20526  0.97784  0.43985  1.0000
  H   H248      1.0  0.23151  0.92246  0.43835  1.0000
  H   H249      1.0  0.23739  0.93487  0.39885  1.0000
  H   H250      1.0  0.20241  0.00236  0.41162  1.0000
  H   H251      1.0  0.10228  0.74511  0.29609  1.0000
  H   H252      1.0  0.10401  0.69021  0.29885  1.0000
  H   H253      1.0  0.16002  0.96149  0.45679  1.0000
  C   C159      1.0  0.23679  0.02219  0.33114  1.0000
  H   H254      1.0  0.22395  0.90719  0.51694  1.0000
  C   C160      1.0  0.27030  0.85282  0.33275  1.0000
  H   H255      1.0  0.15944  0.92245  0.47631  1.0000
  N   N16       1.0  0.13439  0.93444  0.45166  1.0000
  C   C161      1.0  0.14784  0.92311  0.43333  1.0000
  C   C162      1.0  0.14016  0.92184  0.47284  1.0000
  C   C163      1.0  0.10869  0.93307  0.44778  1.0000
  C   C164      1.0  0.14096  0.95984  0.45286  1.0000
  H   H256      1.0  0.14389  0.93212  0.41704  1.0000
  H   H257      1.0  0.14358  0.90382  0.43205  1.0000
  C   C165      1.0  0.19828  0.87108  0.29245  1.0000
  H   H258      1.0  0.24490  0.95683  0.51372  1.0000
  S   S76       1.0  0.26802  0.91587  0.30103  1.0000
  H   H259      1.0  0.12488  0.72603  0.28372  1.0000
  H   H260      1.0  0.23676  0.02479  0.34942  1.0000
  H   H261      1.0  0.19630  0.02631  0.28984  1.0000
  S   S77       1.0  0.20921  0.88024  0.31806  1.0000
  H   H262      1.0  0.25312  0.86441  0.29247  1.0000
  C   C166      1.0  0.08688  0.69979  0.29549  1.0000
  C   C167      1.0  0.08449  0.94515  0.51210  1.0000
  C   C168      1.0  0.06080  0.94437  0.50559  1.0000
  H   H263      1.0  0.08150  0.70931  0.31087  1.0000
  C   C169      1.0  0.26910  0.85231  0.29270  1.0000
  H   H264      1.0  0.23205  0.83366  0.31470  1.0000
  H   H265      1.0  0.21909  0.00386  0.29467  1.0000
  H   H266      1.0  0.07337  0.68608  0.29248  1.0000
  H   H267      1.0  0.19449  0.01757  0.35110  1.0000
  C   C170      1.0  0.25698  0.94086  0.51516  1.0000
  H   H268      1.0  0.05279  0.95957  0.49678  1.0000
  H   H269      1.0  0.27152  0.84218  0.34857  1.0000
  C   C171      1.0  0.21389  0.02296  0.29751  1.0000
  H   H270      1.0  0.04210  0.83724  0.34257  1.0000
  C   C172      1.0  0.27586  0.02138  0.28512  1.0000
  H   H271      1.0  0.06006  0.73938  0.28734  1.0000
  C   C173      1.0  0.19507  0.01415  0.33295  1.0000
  H   H272      1.0  0.03964  0.78014  0.31225  1.0000
  H   H273      1.0  0.24180  0.00305  0.32846  1.0000
  C   C174      1.0  0.18232  0.85221  0.29238  1.0000
  C   C175      1.0  0.24855  0.82233  0.31458  1.0000
  S   S78       1.0  0.27753  0.96199  0.33324  1.0000
  H   H274      1.0  0.24834  0.81089  0.32998  1.0000
  H   H275      1.0  0.25550  0.93110  0.49933  1.0000
  C   C176      1.0  0.10709  0.73459  0.28116  1.0000
  H   H276      1.0  0.12967  0.03692  0.52464  1.0000
  C   C177      1.0  0.05755  0.90433  0.52190  1.0000
  Fe  Fe37      1.0  0.13802  0.97378  0.51769  1.0000
  S   S79       1.0  0.07547  0.79029  0.27951  1.0000
  C   C178      1.0  0.09474  0.92547  0.52350  1.0000
  H   H277      1.0  0.28167  0.01124  0.29968  1.0000
  Fe  Fe38      1.0  0.17374  0.01119  0.52698  1.0000
  C   C179      1.0  0.04428  0.79054  0.27777  1.0000
  H   H278      1.0  0.26853  0.84122  0.27763  1.0000
  Fe  Fe39      1.0  0.17824  0.96271  0.55052  1.0000
  S   S80       1.0  0.18938  0.93717  0.57868  1.0000
  H   H279      1.0  0.04056  0.77710  0.66243  1.0000
  H   H280      1.0  0.03792  0.83834  0.74828  1.0000
  C   C180      1.0  0.25265  0.93919  0.55519  1.0000
  Fe  Fe40      1.0  0.23581  0.92525  0.72704  1.0000
  S   S81       1.0  0.19859  0.91361  0.73541  1.0000
  Fe  Fe41      1.0  0.26390  0.94505  0.68793  1.0000
  H   H281      1.0  0.23033  0.89705  0.77047  1.0000
  Fe  Fe42      1.0  0.27441  0.96169  0.73496  1.0000
  H   H282      1.0  0.24815  0.92803  0.57019  1.0000
  S   S82       1.0  0.25621  0.90724  0.69949  1.0000
  S   S83       1.0  0.24166  0.96296  0.71426  1.0000
  C   C181      1.0  0.19469  0.89441  0.75886  1.0000
  S   S84       1.0  0.26278  0.96201  0.65321  1.0000
  S   S85       1.0  0.26650  0.92559  0.75002  1.0000
  H   H283      1.0  0.20833  0.80257  0.76183  1.0000
  H   H284      1.0  0.21351  0.93263  0.53193  1.0000
  H   H285      1.0  0.08925  0.88979  0.53705  1.0000
  C   C182      1.0  0.22626  0.91722  0.53248  1.0000
  C   C183      1.0  0.05049  0.81100  0.77142  1.0000
  C   C184      1.0  0.26714  0.90441  0.53569  1.0000
  H   H286      1.0  0.20080  0.75962  0.76933  1.0000
  C   C185      1.0  0.17255  0.88424  0.76306  1.0000
  H   H287      1.0  0.26287  0.89238  0.55017  1.0000
  H   H288      1.0  0.24023  0.95497  0.55514  1.0000
  S   S86       1.0  0.14882  0.99072  0.54938  1.0000
  H   H289      1.0  0.15811  0.88807  0.75182  1.0000
  C   C186      1.0  0.21011  0.94443  0.59894  1.0000
  C   C187      1.0  0.21919  0.96744  0.60015  1.0000
  C   C188      1.0  0.23558  0.97249  0.61670  1.0000
  C   C189      1.0  0.24281  0.95468  0.63225  1.0000
  C   C190      1.0  0.23420  0.93152  0.63062  1.0000
  C   C191      1.0  0.21779  0.92647  0.61413  1.0000
  H   H290      1.0  0.21347  0.98140  0.58847  1.0000
  H   H291      1.0  0.24242  0.99039  0.61767  1.0000
  H   H292      1.0  0.24023  0.91750  0.64209  1.0000
  H   H293      1.0  0.21105  0.90854  0.61309  1.0000
  H   H294      1.0  0.27081  0.94597  0.55734  1.0000
  N   N17       1.0  0.17937  0.94904  0.67449  1.0000
  C   C192      1.0  0.19988  0.93217  0.67467  1.0000
  C   C193      1.0  0.17781  0.96117  0.65240  1.0000
  C   C194      1.0  0.18239  0.96709  0.69172  1.0000
  C   C195      1.0  0.15756  0.93563  0.67923  1.0000
  H   H295      1.0  0.20107  0.92187  0.69063  1.0000
  H   H296      1.0  0.21678  0.94181  0.67242  1.0000
  H   H297      1.0  0.19870  0.91885  0.66133  1.0000
  H   H298      1.0  0.16264  0.97421  0.65160  1.0000
  H   H299      1.0  0.19420  0.97119  0.64830  1.0000
  H   H300      1.0  0.17554  0.94807  0.63896  1.0000
  H   H301      1.0  0.16694  0.97978  0.69252  1.0000
  H   H302      1.0  0.19843  0.97789  0.68833  1.0000
  H   H303      1.0  0.18443  0.95841  0.70851  1.0000
  H   H304      1.0  0.15834  0.92635  0.69587  1.0000
  H   H305      1.0  0.15490  0.92169  0.66665  1.0000
  H   H306      1.0  0.14165  0.94775  0.67918  1.0000
  C   C196      1.0  0.21324  0.88934  0.77350  1.0000
  C   C197      1.0  0.25182  0.01906  0.75948  1.0000
  H   H307      1.0  0.24262  0.00572  0.75040  1.0000
  H   H308      1.0  0.04045  0.73828  0.69976  1.0000
  H   H309      1.0  0.04862  0.76903  0.70275  1.0000
  C   C198      1.0  0.27571  0.01537  0.76453  1.0000
  H   H310      1.0  0.22085  0.90557  0.54688  1.0000
  S   S87       1.0  0.20407  0.98448  0.53043  1.0000
  H   H311      1.0  0.24202  0.77470  0.77152  1.0000
  C   C199      1.0  0.03460  0.82086  0.75574  1.0000
  N   N18       1.0  0.25077  0.92544  0.53463  1.0000
  H   H312      1.0  0.11294  0.92598  0.52871  1.0000
  S   S88       1.0  0.04109  0.87854  0.52798  1.0000
  C   C200      1.0  0.08132  0.90502  0.52824  1.0000
  C   C201      1.0  0.03343  0.75667  0.70303  1.0000
  H   H313      1.0  0.03247  0.74634  0.65954  1.0000
  S   S89       1.0  0.07524  0.82763  0.77871  1.0000
  Fe  Fe43      1.0  0.10543  0.87420  0.00167  1.0000
  C   C202      1.0  0.20956  0.87459  0.79242  1.0000
  S   S90       1.0  0.12800  0.86729  0.97088  1.0000
  H   H314      1.0  0.05014  0.95034  0.00149  1.0000
  H   H315      1.0  0.17972  0.76681  0.79084  1.0000
  S   S91       1.0  0.08756  0.84764  0.02462  1.0000
  S   S92       1.0  0.07501  0.90068  0.00170  1.0000
  H   H316      1.0  0.09396  0.76364  0.87587  1.0000
  H   H317      1.0  0.15682  0.96919  0.98632  1.0000
  C   C203      1.0  0.12657  0.93528  0.97629  1.0000
  H   H318      1.0  0.15134  0.97147  0.95718  1.0000
  S   S93       1.0  0.24565  0.69494  0.85441  1.0000
  H   H319      1.0  0.16274  0.92860  0.00456  1.0000
  Fe  Fe44      1.0  0.14912  0.82661  0.82373  1.0000
  S   S94       1.0  0.13809  0.80237  0.79687  1.0000
  H   H320      1.0  0.21894  0.80523  0.82223  1.0000
  Fe  Fe45      1.0  0.10954  0.81100  0.85521  1.0000
  S   S95       1.0  0.09567  0.78507  0.83069  1.0000
  S   S96       1.0  0.08927  0.81272  0.88792  1.0000
  Fe  Fe46      1.0  0.13397  0.77506  0.82457  1.0000
  S   S97       1.0  0.14680  0.73675  0.81962  1.0000
  Fe  Fe47      1.0  0.10096  0.81469  0.80536  1.0000
  C   C204      1.0  0.16893  0.86921  0.78186  1.0000
  S   S98       1.0  0.14734  0.79843  0.85105  1.0000
  S   S99       1.0  0.11246  0.84145  0.83026  1.0000
  C   C205      1.0  0.16531  0.92111  0.98774  1.0000
  H   H321      1.0  0.17982  0.96111  0.96703  1.0000
  S   S100      1.0  0.26534  0.57648  0.81737  1.0000
  H   H322      1.0  0.05840  0.78056  0.79292  1.0000
  C   C206      1.0  0.19890  0.76351  0.78730  1.0000
  C   C207      1.0  0.21843  0.70654  0.84410  1.0000
  C   C208      1.0  0.20861  0.72758  0.85315  1.0000
  C   C209      1.0  0.18679  0.73717  0.84567  1.0000
  C   C210      1.0  0.17441  0.72553  0.82930  1.0000
  C   C211      1.0  0.18416  0.70444  0.82033  1.0000
  C   C212      1.0  0.20620  0.69510  0.82751  1.0000
  H   H323      1.0  0.21795  0.73650  0.86603  1.0000
  H   H324      1.0  0.17949  0.75339  0.85273  1.0000
  H   H325      1.0  0.17466  0.69528  0.80770  1.0000
  H   H326      1.0  0.21351  0.67882  0.82050  1.0000
  H   H327      1.0  0.19027  0.79253  0.82104  1.0000
  H   H328      1.0  0.24444  0.76239  0.79930  1.0000
  H   H329      1.0  0.17530  0.92460  0.94400  1.0000
  Fe  Fe48      1.0  0.26722  0.66555  0.83732  1.0000
  H   H330      1.0  0.10800  0.70942  0.91042  1.0000
  C   C213      1.0  0.27303  0.55877  0.79414  1.0000
  H   H331      1.0  0.08466  0.73412  0.88372  1.0000
  C   C214      1.0  0.22574  0.03043  0.83387  1.0000
  H   H332      1.0  0.13395  0.03077  0.02243  1.0000
  H   H333      1.0  0.13369  0.74874  0.86609  1.0000
  S   S101      1.0  0.18356  0.84600  0.82047  1.0000
  N   N19       1.0  0.11729  0.74460  0.89836  1.0000
  H   H334      1.0  0.21543  0.77370  0.82798  1.0000
  C   C215      1.0  0.23850  0.77850  0.78933  1.0000
  C   C216      1.0  0.11682  0.85226  0.94792  1.0000
  C   C217      1.0  0.09430  0.84243  0.94849  1.0000
  C   C218      1.0  0.08605  0.83044  0.92992  1.0000
  C   C219      1.0  0.10012  0.82841  0.91063  1.0000
  C   C220      1.0  0.12263  0.83829  0.91003  1.0000
  C   C221      1.0  0.13096  0.85012  0.92865  1.0000
  H   H335      1.0  0.08329  0.84395  0.96326  1.0000
  H   H336      1.0  0.06862  0.82281  0.93052  1.0000
  H   H337      1.0  0.13362  0.83681  0.89525  1.0000
  H   H338      1.0  0.14842  0.85763  0.92812  1.0000
  H   H339      1.0  0.15934  0.90220  0.98868  1.0000
  H   H340      1.0  0.18465  0.92061  0.98407  1.0000
  H   H341      1.0  0.12514  0.71886  0.87301  1.0000
  H   H342      1.0  0.13352  0.72151  0.92318  1.0000
  H   H343      1.0  0.08168  0.75835  0.90295  1.0000
  N   N20       1.0  0.21317  0.78416  0.79342  1.0000
  H   H344      1.0  0.14625  0.93480  0.93554  1.0000
  N   N21       1.0  0.15213  0.93539  0.97076  1.0000
  C   C222      1.0  0.16041  0.96035  0.97024  1.0000
  C   C223      1.0  0.15621  0.92476  0.94874  1.0000
  H   H345      1.0  0.12286  0.94263  0.99301  1.0000
  H   H346      1.0  0.11968  0.91677  0.97647  1.0000
  H   H347      1.0  0.15032  0.90585  0.94863  1.0000
  H   H348      1.0  0.11606  0.94614  0.96405  1.0000
  H   H349      1.0  0.21640  0.82149  0.78415  1.0000
  C   C224      1.0  0.18740  0.86459  0.79669  1.0000
  C   C225      1.0  0.11574  0.72622  0.91640  1.0000
  S   S102      1.0  0.26556  0.64881  0.80368  1.0000
  C   C226      1.0  0.12765  0.76652  0.90707  1.0000
  H   H350      1.0  0.20428  0.74695  0.79683  1.0000
  H   H351      1.0  0.11634  0.77442  0.92046  1.0000
  H   H352      1.0  0.14559  0.76293  0.91392  1.0000
  H   H353      1.0  0.12932  0.78070  0.89388  1.0000
  C   C227      1.0  0.09333  0.75031  0.88990  1.0000
  S   S103      1.0  0.18334  0.01637  0.02010  1.0000
  H   H354      1.0  0.22390  0.87107  0.80385  1.0000
  H   H355      1.0  0.15071  0.73104  0.88565  1.0000
  H   H356      1.0  0.24973  0.79369  0.79393  1.0000
  C   C228      1.0  0.13239  0.73537  0.88007  1.0000
  H   H357      1.0  0.10442  0.73270  0.93041  1.0000
  C   C229      1.0  0.04623  0.78835  0.78090  1.0000
  H   H358      1.0  0.21568  0.03088  0.87782  1.0000
  C   C230      1.0  0.20934  0.78905  0.81722  1.0000
  S   S104      1.0  0.27622  0.63055  0.85504  1.0000
  H   H359      1.0  0.20786  0.02345  0.83788  1.0000
  H   H360      1.0  0.23846  0.01490  0.83352  1.0000
  C   C231      1.0  0.23335  0.03759  0.87262  1.0000
  Fe  Fe49      1.0  0.27829  0.61454  0.82091  1.0000
  H   H361      1.0  0.24626  0.02225  0.87369  1.0000
  H   H362      1.0  0.18707  0.81059  0.78291  1.0000
  C   C232      1.0  0.04472  0.99592  0.01514  1.0000
  H   H363      1.0  0.06204  0.99272  0.00658  1.0000
  H   H364      1.0  0.03991  0.01528  0.01297  1.0000
  H   H365      1.0  0.15177  0.86153  0.78503  1.0000
  H   H366      1.0  0.28022  0.65625  0.91735  1.0000
  Fe  Fe50      1.0  0.05833  0.87585  0.02688  1.0000
  H   H367      1.0  0.04047  0.98154  0.97319  1.0000
  H   H368      1.0  0.27139  0.67062  0.89154  1.0000
  H   H369      1.0  0.27511  0.69612  0.93513  1.0000
  H   H370      1.0  0.26738  0.70979  0.90874  1.0000
  C   C233      1.0  0.03330  0.95495  0.01033  1.0000
  H   H371      1.0  0.22513  0.03830  0.81665  1.0000
  C   C234      1.0  0.20598  0.80556  0.77992  1.0000
  C   C235      1.0  0.13535  0.01162  0.02529  1.0000
  C   C236      1.0  0.15758  0.00015  0.02601  1.0000
  H   H372      1.0  0.09767  0.00732  0.02705  1.0000
  H   H373      1.0  0.46225  0.30982  0.27504  1.0000
  C   C237      1.0  0.36658  0.09014  0.24614  1.0000
  Fe  Fe51      1.0  0.46806  0.38130  0.04298  1.0000
  S   S105      1.0  0.47391  0.37257  0.07963  1.0000
  Fe  Fe52      1.0  0.42052  0.29642  0.17931  1.0000
  S   S106      1.0  0.43460  0.26190  0.19494  1.0000
  S   S107      1.0  0.41778  0.29866  0.14161  1.0000
  Fe  Fe53      1.0  0.41356  0.31974  0.22451  1.0000
  S   S108      1.0  0.42747  0.28738  0.24336  1.0000
  S   S109      1.0  0.40539  0.35530  0.24046  1.0000
  Fe  Fe54      1.0  0.45559  0.28553  0.21675  1.0000
  S   S110      1.0  0.49563  0.28259  0.21970  1.0000
  Fe  Fe55      1.0  0.40503  0.26661  0.22004  1.0000
  S   S111      1.0  0.38127  0.23847  0.23608  1.0000
  S   S112      1.0  0.44328  0.31958  0.19943  1.0000
  S   S113      1.0  0.38931  0.29945  0.20289  1.0000
  C   C238      1.0  0.40803  0.51017  0.03802  1.0000
  N   N22       1.0  0.47209  0.34648  0.26952  1.0000
  S   S114      1.0  0.32559  0.15820  0.18638  1.0000
  C   C239      1.0  0.51009  0.28158  0.24566  1.0000
  C   C240      1.0  0.52102  0.28602  0.14285  1.0000
  H   H374      1.0  0.32553  0.06724  0.25301  1.0000
  H   H375      1.0  0.37773  0.10635  0.24569  1.0000
  C   C241      1.0  0.41939  0.46783  0.03777  1.0000
  C   C242      1.0  0.36637  0.21610  0.22182  1.0000
  C   C243      1.0  0.36991  0.21248  0.19910  1.0000
  C   C244      1.0  0.35748  0.19452  0.18845  1.0000
  C   C245      1.0  0.34114  0.18036  0.20032  1.0000
  C   C246      1.0  0.33764  0.18396  0.22302  1.0000
  C   C247      1.0  0.35027  0.20168  0.23372  1.0000
  H   H376      1.0  0.38232  0.22343  0.18977  1.0000
  H   H377      1.0  0.36041  0.19173  0.17089  1.0000
  H   H378      1.0  0.32535  0.17300  0.23240  1.0000
  H   H379      1.0  0.34755  0.20431  0.25133  1.0000
  H   H380      1.0  0.50852  0.35628  0.27245  1.0000
  H   H381      1.0  0.37798  0.39426  0.25844  1.0000
  H   H382      1.0  0.33229  0.10541  0.20178  1.0000
  C   C248      1.0  0.34891  0.10183  0.21110  1.0000
  C   C249      1.0  0.48957  0.26029  0.15567  1.0000
  H   H383      1.0  0.39405  0.51386  0.11793  1.0000
  H   H384      1.0  0.31372  0.11835  0.23713  1.0000
  H   H385      1.0  0.29330  0.19934  0.19264  1.0000
  C   C250      1.0  0.38913  0.52504  0.10307  1.0000
  C   C251      1.0  0.45627  0.35329  0.09638  1.0000
  C   C252      1.0  0.44271  0.33543  0.08727  1.0000
  C   C253      1.0  0.43049  0.31920  0.10134  1.0000
  C   C254      1.0  0.43143  0.32090  0.12457  1.0000
  C   C255      1.0  0.44431  0.33929  0.13362  1.0000
  C   C256      1.0  0.45697  0.35515  0.11959  1.0000
  H   H386      1.0  0.44215  0.33374  0.06943  1.0000
  H   H387      1.0  0.42051  0.30506  0.09418  1.0000
  H   H388      1.0  0.44478  0.34117  0.15142  1.0000
  H   H389      1.0  0.46730  0.36902  0.12675  1.0000
  H   H390      1.0  0.37701  0.07534  0.23834  1.0000
  C   C257      1.0  0.48460  0.28483  0.12232  1.0000
  S   S115      1.0  0.46881  0.42073  0.03362  1.0000
  C   C258      1.0  0.38443  0.35617  0.26241  1.0000
  H   H391      1.0  0.47988  0.26989  0.26478  1.0000
  N   N23       1.0  0.34400  0.09480  0.23455  1.0000
  H   H392      1.0  0.45593  0.34789  0.23746  1.0000
  H   H393      1.0  0.35102  0.50475  0.12217  1.0000
  H   H394      1.0  0.31244  0.07580  0.22717  1.0000
  S   S116      1.0  0.41183  0.53854  0.04921  1.0000
  H   H395      1.0  0.33902  0.05761  0.22735  1.0000
  H   H396      1.0  0.46556  0.30156  0.15993  1.0000
  H   H397      1.0  0.32084  0.23093  0.20355  1.0000
  H   H398      1.0  0.28512  0.23673  0.24217  1.0000
  C   C259      1.0  0.29139  0.50703  0.25459  1.0000
  H   H399      1.0  0.29649  0.20879  0.23202  1.0000
  H   H400      1.0  0.35918  0.11863  0.20975  1.0000
  H   H401      1.0  0.44477  0.37391  0.26809  1.0000
  C   C260      1.0  0.46286  0.37067  0.27494  1.0000
  H   H402      1.0  0.39047  0.51340  0.08831  1.0000
  H   H403      1.0  0.32928  0.52438  0.10924  1.0000
  H   H404      1.0  0.42898  0.45270  0.04510  1.0000
  N   N24       1.0  0.36514  0.53588  0.10544  1.0000
  H   H405      1.0  0.43108  0.49264  0.06194  1.0000
  H   H406      1.0  0.48606  0.35721  0.23743  1.0000
  N   N25       1.0  0.28296  0.23310  0.20677  1.0000
  H   H407      1.0  0.30961  0.25853  0.21450  1.0000
  H   H408      1.0  0.47951  0.32599  0.24039  1.0000
  C   C261      1.0  0.28241  0.22280  0.22964  1.0000
  C   C262      1.0  0.49820  0.27498  0.26531  1.0000
  H   H409      1.0  0.38700  0.31841  0.27063  1.0000
  H   H410      1.0  0.49654  0.25909  0.17293  1.0000
  C   C263      1.0  0.33078  0.11447  0.24551  1.0000
  H   H411      1.0  0.35905  0.08756  0.20226  1.0000
  H   H412      1.0  0.34091  0.13135  0.24508  1.0000
  Fe  Fe56      1.0  0.28987  0.14530  0.19876  1.0000
  C   C264      1.0  0.30604  0.24436  0.20237  1.0000
  H   H413      1.0  0.32642  0.10976  0.26316  1.0000
  H   H414      1.0  0.52567  0.30346  0.13468  1.0000
  H   H415      1.0  0.30697  0.25267  0.18539  1.0000
  H   H416      1.0  0.36347  0.08493  0.26391  1.0000
  H   H417      1.0  0.47009  0.25779  0.15693  1.0000
  H   H418      1.0  0.48858  0.32105  0.15034  1.0000
  H   H419      1.0  0.30775  0.50061  0.24705  1.0000
  C   C265      1.0  0.42037  0.49040  0.04741  1.0000
  C   C266      1.0  0.48505  0.30316  0.15813  1.0000
  H   H420      1.0  0.47437  0.38490  0.26778  1.0000
  C   C267      1.0  0.32974  0.07288  0.23553  1.0000
  H   H421      1.0  0.49228  0.27080  0.11140  1.0000
  C   C268      1.0  0.37383  0.37822  0.26806  1.0000
  H   H422      1.0  0.49252  0.30285  0.17514  1.0000
  H   H423      1.0  0.49727  0.24497  0.14632  1.0000
  H   H424      1.0  0.46512  0.28224  0.12320  1.0000
  C   C269      1.0  0.34756  0.51672  0.10744  1.0000
  N   N26       1.0  0.49510  0.28354  0.14470  1.0000
  H   H425      1.0  0.50359  0.32477  0.27457  1.0000
  H   H426      1.0  0.34794  0.50539  0.09246  1.0000
  C   C270      1.0  0.47349  0.34431  0.24513  1.0000
  H   H427      1.0  0.48738  0.30265  0.11398  1.0000
  H   H428      1.0  0.52933  0.28526  0.15955  1.0000
  H   H429      1.0  0.46935  0.47771  0.03176  1.0000
  H   H430      1.0  0.43778  0.33070  0.27217  1.0000
  S   S117      1.0  0.28971  0.46219  0.27410  1.0000
  H   H431      1.0  0.52927  0.27146  0.13287  1.0000
  C   C271      1.0  0.28310  0.53056  0.24974  1.0000
  H   H432      1.0  0.40272  0.53906  0.10061  1.0000
  C   C272      1.0  0.37893  0.33549  0.27487  1.0000
  H   H433      1.0  0.49502  0.49602  0.03153  1.0000
  H   H434      1.0  0.37197  0.37670  0.41525  1.0000
  H   H435      1.0  0.49559  0.34341  0.29738  1.0000
  H   H436      1.0  0.48889  0.35892  0.47094  1.0000
  S   S118      1.0  0.39241  0.46259  0.49497  1.0000
  N   N27       1.0  0.30717  0.51579  0.32946  1.0000
  H   H437      1.0  0.45448  0.32929  0.29735  1.0000
  Fe  Fe57      1.0  0.35515  0.45028  0.49990  1.0000
  S   S119      1.0  0.33549  0.42585  0.47726  1.0000
  H   H438      1.0  0.39334  0.37672  0.36754  1.0000
  Fe  Fe58      1.0  0.30809  0.39253  0.32396  1.0000
  S   S120      1.0  0.33310  0.36040  0.32183  1.0000
  Fe  Fe59      1.0  0.29685  0.43573  0.35330  1.0000
  S   S121      1.0  0.31346  0.46022  0.37794  1.0000
  H   H439      1.0  0.48873  0.50029  0.51280  1.0000
  S   S122      1.0  0.31816  0.43100  0.32203  1.0000
  H   H440      1.0  0.38458  0.40186  0.40041  1.0000
  H   H441      1.0  0.44772  0.50616  0.50009  1.0000
  C   C273      1.0  0.49595  0.34264  0.27893  1.0000
  H   H442      1.0  0.34059  0.35345  0.39800  1.0000
  H   H443      1.0  0.51201  0.37164  0.48665  1.0000
  C   C274      1.0  0.35756  0.37960  0.28588  1.0000
  C   C275      1.0  0.51026  0.27426  0.28566  1.0000
  C   C276      1.0  0.32910  0.43583  0.44983  1.0000
  C   C277      1.0  0.33778  0.45744  0.44115  1.0000
  C   C278      1.0  0.33272  0.46475  0.41914  1.0000
  C   C279      1.0  0.31895  0.45056  0.40564  1.0000
  C   C280      1.0  0.31014  0.42901  0.41434  1.0000
  C   C281      1.0  0.31526  0.42165  0.43635  1.0000
  H   H444      1.0  0.34842  0.46853  0.45139  1.0000
  H   H445      1.0  0.33953  0.48149  0.41259  1.0000
  C   C282      1.0  0.35229  0.35899  0.29853  1.0000
  S   S123      1.0  0.52593  0.42375  0.49179  1.0000
  C   C283      1.0  0.49912  0.42634  0.50683  1.0000
  C   C284      1.0  0.47884  0.43556  0.49615  1.0000
  S   S124      1.0  0.28954  0.39665  0.35681  1.0000
  H   H446      1.0  0.50596  0.37887  0.42547  1.0000
  S   S125      1.0  0.34067  0.48638  0.50954  1.0000
  C   C285      1.0  0.31719  0.52563  0.34977  1.0000
  H   H447      1.0  0.47978  0.44081  0.47875  1.0000
  H   H448      1.0  0.44174  0.44488  0.49948  1.0000
  H   H449      1.0  0.38139  0.35121  0.38241  1.0000
  H   H450      1.0  0.28701  0.05543  0.29713  1.0000
  H   H451      1.0  0.34698  0.39732  0.35073  1.0000
  N   N28       1.0  0.35886  0.38282  0.38213  1.0000
  C   C286      1.0  0.45596  0.32829  0.27896  1.0000
  H   H452      1.0  0.32315  0.38058  0.39467  1.0000
  C   C287      1.0  0.32347  0.49709  0.32069  1.0000
  H   H453      1.0  0.28572  0.49110  0.34831  1.0000
  H   H454      1.0  0.49827  0.38906  0.46497  1.0000
  H   H455      1.0  0.30964  0.42747  0.51853  1.0000
  H   H456      1.0  0.33468  0.53378  0.34631  1.0000
  H   H457      1.0  0.33931  0.41532  0.37411  1.0000
  C   C288      1.0  0.35336  0.40341  0.36700  1.0000
  H   H458      1.0  0.46161  0.37302  0.29321  1.0000
  H   H459      1.0  0.35505  0.40403  0.41135  1.0000
  H   H460      1.0  0.49641  0.34878  0.43131  1.0000
  H   H461      1.0  0.29642  0.52829  0.29702  1.0000
  H   H462      1.0  0.36913  0.41453  0.36361  1.0000
  H   H463      1.0  0.51550  0.32430  0.46148  1.0000
  H   H464      1.0  0.37019  0.35999  0.35559  1.0000
  H   H465      1.0  0.42455  0.51237  0.51975  1.0000
  H   H466      1.0  0.34927  0.39663  0.28993  1.0000
  C   C289      1.0  0.36807  0.39168  0.40320  1.0000
  Fe  Fe60      1.0  0.37847  0.49791  0.50746  1.0000
  C   C290      1.0  0.37680  0.36699  0.37151  1.0000
  C   C291      1.0  0.45729  0.43797  0.50790  1.0000
  H   H467      1.0  0.29915  0.41817  0.40423  1.0000
  H   H468      1.0  0.52504  0.35374  0.41889  1.0000
  C   C292      1.0  0.33713  0.36920  0.38670  1.0000
  C   C293      1.0  0.28406  0.50512  0.33490  1.0000
  H   H469      1.0  0.32968  0.36233  0.37109  1.0000
  C   C294      1.0  0.51195  0.36066  0.43133  1.0000
  Fe  Fe61      1.0  0.28381  0.43772  0.30435  1.0000
  H   H470      1.0  0.35910  0.32096  0.30277  1.0000
  H   H471      1.0  0.30832  0.40501  0.44302  1.0000
  H   H472      1.0  0.50102  0.26882  0.30075  1.0000
  H   H473      1.0  0.32638  0.48228  0.33316  1.0000
  C   C295      1.0  0.53040  0.33697  0.46070  1.0000
  H   H474      1.0  0.31983  0.51132  0.36285  1.0000
  C   C296      1.0  0.44162  0.50244  0.51747  1.0000
  C   C297      1.0  0.50456  0.37058  0.46969  1.0000
  N   N29       1.0  0.52242  0.36140  0.45365  1.0000
  C   C298      1.0  0.30395  0.53520  0.31250  1.0000
  C   C299      1.0  0.36313  0.33698  0.29306  1.0000
  H   H475      1.0  0.31631  0.48901  0.30551  1.0000
  H   H476      1.0  0.34103  0.50447  0.31612  1.0000
  H   H477      1.0  0.43787  0.48301  0.51918  1.0000
  S   S126      1.0  0.39262  0.53011  0.48865  1.0000
  S   S127      1.0  0.31578  0.44746  0.72659  1.0000
  Fe  Fe62      1.0  0.39724  0.45329  0.53103  1.0000
  C   C300      1.0  0.29630  0.51500  0.66967  1.0000
  H   H478      1.0  0.48815  0.32218  0.74593  1.0000
  Fe  Fe63      1.0  0.29943  0.43500  0.69516  1.0000
  S   S128      1.0  0.32469  0.42800  0.66623  1.0000
  Fe  Fe64      1.0  0.34916  0.47452  0.54472  1.0000
  S   S129      1.0  0.32146  0.48153  0.57171  1.0000
  S   S130      1.0  0.38571  0.48944  0.54341  1.0000
  C   C301      1.0  0.32318  0.44276  0.63994  1.0000
  C   C302      1.0  0.34232  0.44028  0.62499  1.0000
  C   C303      1.0  0.34205  0.45210  0.60406  1.0000
  C   C304      1.0  0.32257  0.46654  0.59792  1.0000
  C   C305      1.0  0.30329  0.46888  0.61277  1.0000
  C   C306      1.0  0.30355  0.45697  0.63369  1.0000
  H   H479      1.0  0.35753  0.42922  0.62968  1.0000
  H   H480      1.0  0.35698  0.45010  0.59275  1.0000
  Fe  Fe65      1.0  0.29293  0.42049  0.74408  1.0000
  S   S131      1.0  0.29247  0.51212  0.73413  1.0000
  H   H481      1.0  0.49164  0.31842  0.71657  1.0000
  H   H482      1.0  0.45729  0.29976  0.76690  1.0000
  H   H483      1.0  0.29572  0.20934  0.75118  1.0000
  H   H484      1.0  0.47544  0.41712  0.55856  1.0000
  H   H485      1.0  0.32346  0.49337  0.70125  1.0000
  C   C307      1.0  0.52686  0.31486  0.77489  1.0000
  C   C308      1.0  0.37135  0.35161  0.76785  1.0000
  C   C309      1.0  0.34442  0.38239  0.75259  1.0000
  S   S132      1.0  0.39879  0.33600  0.76666  1.0000
  H   H486      1.0  0.44626  0.33481  0.74262  1.0000
  H   H487      1.0  0.44945  0.33298  0.71293  1.0000
  H   H488      1.0  0.42633  0.31718  0.72751  1.0000
  C   C310      1.0  0.44517  0.32252  0.72839  1.0000
  H   H489      1.0  0.28915  0.53109  0.66050  1.0000
  H   H490      1.0  0.37782  0.37194  0.73752  1.0000
  H   H491      1.0  0.46626  0.27198  0.75478  1.0000
  H   H492      1.0  0.34819  0.53822  0.68581  1.0000
  H   H493      1.0  0.46317  0.29449  0.69636  1.0000
  H   H494      1.0  0.28745  0.51441  0.68633  1.0000
  H   H495      1.0  0.35295  0.51711  0.65009  1.0000
  H   H496      1.0  0.47074  0.26919  0.71418  1.0000
  H   H497      1.0  0.52793  0.33419  0.77496  1.0000
  N   N30       1.0  0.46120  0.30139  0.73132  1.0000
  C   C311      1.0  0.30930  0.41344  0.56142  1.0000
  H   H498      1.0  0.28850  0.45857  0.64489  1.0000
  H   H499      1.0  0.49843  0.29391  0.73557  1.0000
  H   H500      1.0  0.32932  0.49984  0.63996  1.0000
  C   C312      1.0  0.47630  0.42220  0.54110  1.0000
  C   C313      1.0  0.48593  0.30932  0.73234  1.0000
  H   H501      1.0  0.32559  0.47737  0.67591  1.0000
  H   H502      1.0  0.44032  0.27877  0.71137  1.0000
  C   C314      1.0  0.28492  0.52943  0.75767  1.0000
  S   S133      1.0  0.42989  0.43604  0.54632  1.0000
  N   N31       1.0  0.32232  0.51566  0.67164  1.0000
  C   C315      1.0  0.45495  0.28841  0.75219  1.0000
  C   C316      1.0  0.45014  0.50369  0.55650  1.0000
  C   C317      1.0  0.49776  0.41946  0.52929  1.0000
  S   S134      1.0  0.30269  0.39625  0.77333  1.0000
  C   C318      1.0  0.45874  0.28525  0.71244  1.0000
  S   S135      1.0  0.36118  0.43754  0.53525  1.0000
  H   H503      1.0  0.32046  0.53739  0.70063  1.0000
  H   H504      1.0  0.34023  0.39576  0.73982  1.0000
  H   H505      1.0  0.51330  0.41226  0.53765  1.0000
  C   C319      1.0  0.36568  0.36887  0.75131  1.0000
  H   H506      1.0  0.35049  0.49343  0.68531  1.0000
  H   H507      1.0  0.28806  0.47985  0.60804  1.0000
  H   H508      1.0  0.43619  0.28279  0.75232  1.0000
  N   N32       1.0  0.45906  0.50969  0.53388  1.0000
  H   H509      1.0  0.32687  0.53197  0.63911  1.0000
  C   C320      1.0  0.33334  0.51624  0.64922  1.0000
  H   H510      1.0  0.31926  0.42876  0.56773  1.0000
  H   H511      1.0  0.29080  0.49889  0.66073  1.0000
  H   H512      1.0  0.30383  0.40232  0.57614  1.0000
  H   H513      1.0  0.44712  0.48406  0.55864  1.0000
  C   C321      1.0  0.33088  0.49405  0.68405  1.0000
  H   H514      1.0  0.30590  0.45339  0.53533  1.0000
  H   H515      1.0  0.49550  0.50201  0.54181  1.0000
  C   C322      1.0  0.46247  0.53586  0.53161  1.0000
  C   C323      1.0  0.52378  0.26509  0.77483  1.0000
  C   C324      1.0  0.32880  0.37876  0.77051  1.0000
  Fe  Fe66      1.0  0.28431  0.47277  0.72890  1.0000
  H   H516      1.0  0.32194  0.40254  0.55128  1.0000
  N   N33       1.0  0.28871  0.42191  0.54826  1.0000
  C   C325      1.0  0.29301  0.20844  0.76952  1.0000
  C   C326      1.0  0.32872  0.53730  0.68369  1.0000
  H   H517      1.0  0.43296  0.51312  0.56000  1.0000
  H   H518      1.0  0.52267  0.24574  0.77480  1.0000
  C   C327      1.0  0.45603  0.43156  0.53050  1.0000
  H   H519      1.0  0.46287  0.50876  0.56940  1.0000
  H   H520      1.0  0.29003  0.18933  0.77430  1.0000
  H   H521      1.0  0.47976  0.47696  0.53190  1.0000
  C   C328      1.0  0.48178  0.49673  0.52992  1.0000
  H   H522      1.0  0.28842  0.39032  0.52860  1.0000
  C   C329      1.0  0.29686  0.43728  0.52943  1.0000
  H   H523      1.0  0.30988  0.21346  0.77736  1.0000
  H   H524      1.0  0.29430  0.25550  0.77729  1.0000
  H   H525      1.0  0.41820  0.37198  0.97322  1.0000
  H   H526      1.0  0.49533  0.31413  0.79559  1.0000
  Fe  Fe67      1.0  0.46043  0.36696  0.99488  1.0000
  H   H527      1.0  0.31289  0.12289  0.89493  1.0000
  S   S136      1.0  0.45382  0.33590  0.97212  1.0000
  C   C330      1.0  0.40595  0.46487  0.01877  1.0000
  H   H528      1.0  0.37198  0.15048  0.88672  1.0000
  S   S137      1.0  0.46055  0.40499  0.98235  1.0000
  Fe  Fe68      1.0  0.42820  0.32009  0.84517  1.0000
  S   S138      1.0  0.43546  0.28037  0.84903  1.0000
  S   S139      1.0  0.43250  0.35076  0.86891  1.0000
  Fe  Fe69      1.0  0.40977  0.31547  0.79780  1.0000
  S   S140      1.0  0.41522  0.27556  0.79807  1.0000
  C   C331      1.0  0.33432  0.36128  0.78690  1.0000
  Fe  Fe70      1.0  0.40005  0.27630  0.83272  1.0000
  S   S141      1.0  0.36956  0.25481  0.84717  1.0000
  Fe  Fe71      1.0  0.45014  0.28311  0.81386  1.0000
  H   H529      1.0  0.44955  0.46894  0.99686  1.0000
  S   S142      1.0  0.39201  0.31597  0.83119  1.0000
  S   S143      1.0  0.44549  0.32303  0.81129  1.0000
  H   H530      1.0  0.40161  0.36602  0.80324  1.0000
  H   H531      1.0  0.35621  0.14830  0.91280  1.0000
  C   C332      1.0  0.35868  0.36725  0.97876  1.0000
  S   S144      1.0  0.32466  0.16374  0.80436  1.0000
  N   N34       1.0  0.47878  0.49264  0.99966  1.0000
  H   H532      1.0  0.28634  0.22875  0.80953  1.0000
  H   H533      1.0  0.51236  0.48284  0.98493  1.0000
  C   C333      1.0  0.39303  0.48449  0.00975  1.0000
  H   H534      1.0  0.38301  0.35209  0.94189  1.0000
  C   C334      1.0  0.33323  0.17918  0.88519  1.0000
  C   C335      1.0  0.46575  0.47447  0.98758  1.0000
  C   C336      1.0  0.33634  0.19004  0.81526  1.0000
  C   C337      1.0  0.32418  0.20285  0.83165  1.0000
  C   C338      1.0  0.33443  0.22293  0.84093  1.0000
  C   C339      1.0  0.35677  0.23064  0.83368  1.0000
  C   C340      1.0  0.36865  0.21831  0.81677  1.0000
  C   C341      1.0  0.35849  0.19798  0.80768  1.0000
  H   H535      1.0  0.30702  0.19717  0.83741  1.0000
  H   H536      1.0  0.32512  0.23249  0.85394  1.0000
  H   H537      1.0  0.38593  0.22404  0.81113  1.0000
  H   H538      1.0  0.34982  0.15298  0.85128  1.0000
  H   H539      1.0  0.51073  0.51253  0.99567  1.0000
  H   H540      1.0  0.47678  0.45797  0.98508  1.0000
  H   H541      1.0  0.42169  0.39040  0.80312  1.0000
  C   C342      1.0  0.44937  0.34021  0.94314  1.0000
  C   C343      1.0  0.44805  0.36315  0.93323  1.0000
  C   C344      1.0  0.44297  0.36604  0.91048  1.0000
  C   C345      1.0  0.43928  0.34605  0.89735  1.0000
  C   C346      1.0  0.44062  0.32308  0.90720  1.0000
  C   C347      1.0  0.44560  0.32021  0.93001  1.0000
  H   H542      1.0  0.45097  0.37871  0.94301  1.0000
  H   H543      1.0  0.44208  0.38386  0.90300  1.0000
  H   H544      1.0  0.43780  0.30752  0.89728  1.0000
  H   H545      1.0  0.44650  0.30238  0.93752  1.0000
  H   H546      1.0  0.40387  0.33369  0.95706  1.0000
  H   H547      1.0  0.31226  0.14767  0.91343  1.0000
  C   C348      1.0  0.50049  0.49886  0.98703  1.0000
  H   H548      1.0  0.32219  0.35825  0.80069  1.0000
  C   C349      1.0  0.35546  0.34764  0.78550  1.0000
  C   C350      1.0  0.33436  0.14559  0.86065  1.0000
  N   N35       1.0  0.39206  0.39392  0.82578  1.0000
  C   C351      1.0  0.37793  0.40812  0.80941  1.0000
  C   C352      1.0  0.37631  0.37808  0.83897  1.0000
  C   C353      1.0  0.40406  0.41015  0.84080  1.0000
  C   C354      1.0  0.41002  0.37921  0.81395  1.0000
  H   H549      1.0  0.38917  0.42052  0.79935  1.0000
  H   H550      1.0  0.36374  0.41900  0.81763  1.0000
  H   H551      1.0  0.36916  0.39631  0.79754  1.0000
  H   H552      1.0  0.38649  0.36687  0.85129  1.0000
  H   H553      1.0  0.36265  0.38855  0.84829  1.0000
  H   H554      1.0  0.36690  0.36564  0.82818  1.0000
  H   H555      1.0  0.41475  0.39978  0.85337  1.0000
  H   H556      1.0  0.39109  0.42161  0.84999  1.0000
  H   H557      1.0  0.41636  0.42213  0.83145  1.0000
  H   H558      1.0  0.42153  0.36889  0.82578  1.0000
  H   H559      1.0  0.47248  0.52828  0.01182  1.0000
  H   H560      1.0  0.38257  0.48228  0.99506  1.0000
  C   C355      1.0  0.35580  0.14329  0.89502  1.0000
  H   H561      1.0  0.33358  0.18524  0.90265  1.0000
  H   H562      1.0  0.35937  0.33396  0.79800  1.0000
  N   N36       1.0  0.38331  0.35793  0.97713  1.0000
  S   S145      1.0  0.48284  0.26369  0.80011  1.0000
  Fe  Fe72      1.0  0.49143  0.40931  0.00478  1.0000
  H   H563      1.0  0.36802  0.18820  0.79496  1.0000
  Fe  Fe73      1.0  0.43801  0.41312  0.01216  1.0000
  N   N37       1.0  0.33411  0.15272  0.88413  1.0000
  S   S146      1.0  0.40612  0.43717  0.00541  1.0000
  H   H564      1.0  0.34852  0.18734  0.87613  1.0000
  H   H565      1.0  0.29634  0.14965  0.88788  1.0000
  C   C356      1.0  0.31306  0.14282  0.89561  1.0000
  H   H566      1.0  0.33507  0.12574  0.85911  1.0000
  H   H567      1.0  0.38463  0.52239  0.01194  1.0000
  C   C357      1.0  0.39415  0.50717  0.01930  1.0000
  H   H568      1.0  0.38747  0.35549  0.01260  1.0000
  H   H569      1.0  0.46014  0.48135  0.97093  1.0000
  H   H570      1.0  0.31823  0.15229  0.85195  1.0000
  C   C358      1.0  0.32995  0.53258  0.86639  1.0000
  Fe  Fe74      1.0  0.28906  0.14979  0.81574  1.0000
  C   C359      1.0  0.50654  0.27858  0.78645  1.0000
  C   C360      1.0  0.48529  0.48280  0.02184  1.0000
  H   H571      1.0  0.35703  0.12336  0.89448  1.0000
  S   S147      1.0  0.49327  0.37040  0.01538  1.0000
  C   C361      1.0  0.50826  0.30354  0.78651  1.0000
  S   S148      1.0  0.52047  0.43224  0.99006  1.0000
  C   C362      1.0  0.46361  0.51438  0.00217  1.0000
  C   C363      1.0  0.39945  0.37827  0.97425  1.0000
  H   H572      1.0  0.49627  0.50611  0.97012  1.0000
  H   H573      1.0  0.44684  0.51017  0.01110  1.0000
  H   H574      1.0  0.39571  0.38899  0.95881  1.0000
  H   H575      1.0  0.35639  0.37954  0.99300  1.0000
  H   H576      1.0  0.37312  0.32715  0.95895  1.0000
  H   H577      1.0  0.31616  0.51913  0.86342  1.0000
  S   S149      1.0  0.43539  0.37460  0.02348  1.0000
  H   H578      1.0  0.31680  0.18684  0.87758  1.0000
  H   H579      1.0  0.49686  0.46643  0.02051  1.0000
  C   C364      1.0  0.38583  0.34207  0.95789  1.0000
  S   S150      1.0  0.28297  0.11156  0.82685  1.0000
  H   H580      1.0  0.35357  0.37758  0.96344  1.0000
  H   H581      1.0  0.34720  0.52508  0.86034  1.0000
  C   C365      1.0  0.38932  0.34416  0.99768  1.0000
  H   H582      1.0  0.40797  0.33716  0.99709  1.0000
  H   H583      1.0  0.39792  0.39064  0.98843  1.0000
  H   H584      1.0  0.45868  0.52257  0.98579  1.0000
  H   H585      1.0  0.28469  0.06742  0.79181  1.0000
  H   H586      1.0  0.34597  0.35246  0.98128  1.0000
  H   H587      1.0  0.33122  0.53461  0.88471  1.0000
  H   H588      1.0  0.37775  0.32845  0.00027  1.0000
  H   H589      1.0  0.30853  0.53949  0.82690  1.0000
  C   C366      1.0  0.37899  0.67635  0.26847  1.0000
  S   S151      1.0  0.39239  0.60313  0.05503  1.0000
  Fe  Fe75      1.0  0.39187  0.57037  0.03414  1.0000
  Fe  Fe76      1.0  0.35334  0.60546  0.04934  1.0000
  S   S152      1.0  0.32438  0.61014  0.07564  1.0000
  C   C367      1.0  0.49754  0.77514  0.27107  1.0000
  S   S153      1.0  0.34005  0.60883  0.18002  1.0000
  H   H590      1.0  0.29243  0.60475  0.11243  1.0000
  N   N38       1.0  0.29688  0.67996  0.14497  1.0000
  S   S154      1.0  0.31069  0.60281  0.24041  1.0000
  H   H591      1.0  0.33430  0.68460  0.14895  1.0000
  C   C368      1.0  0.52584  0.73669  0.18961  1.0000
  C   C369      1.0  0.35991  0.55115  0.08563  1.0000
  H   H592      1.0  0.32662  0.65728  0.13603  1.0000
  H   H593      1.0  0.50379  0.76659  0.23672  1.0000
  C   C370      1.0  0.29053  0.69777  0.16196  1.0000
  H   H594      1.0  0.36127  0.54067  0.07014  1.0000
  H   H595      1.0  0.37715  0.56516  0.12452  1.0000
  H   H596      1.0  0.48435  0.83187  0.27446  1.0000
  H   H597      1.0  0.52461  0.69038  0.17833  1.0000
  C   C371      1.0  0.32938  0.60916  0.10454  1.0000
  C   C372      1.0  0.35199  0.61128  0.11329  1.0000
  C   C373      1.0  0.35505  0.61100  0.13649  1.0000
  C   C374      1.0  0.33556  0.60861  0.15106  1.0000
  C   C375      1.0  0.31300  0.60626  0.14228  1.0000
  H   H598      1.0  0.32218  0.66042  0.16536  1.0000
  H   H599      1.0  0.36707  0.61350  0.10222  1.0000
  H   H600      1.0  0.37256  0.61292  0.14318  1.0000
  H   H601      1.0  0.39410  0.66871  0.25971  1.0000
  H   H602      1.0  0.45671  0.83315  0.25980  1.0000
  H   H603      1.0  0.35465  0.65032  0.25670  1.0000
  H   H604      1.0  0.52809  0.75624  0.18616  1.0000
  Fe  Fe77      1.0  0.29979  0.64062  0.24861  1.0000
  C   C376      1.0  0.46474  0.83160  0.27655  1.0000
  H   H605      1.0  0.29078  0.68953  0.17897  1.0000
  H   H606      1.0  0.34181  0.55945  0.08650  1.0000
  H   H607      1.0  0.37259  0.56603  0.08381  1.0000
  S   S155      1.0  0.30261  0.65461  0.21348  1.0000
  H   H608      1.0  0.30081  0.67859  0.10944  1.0000
  H   H609      1.0  0.29792  0.60412  0.15334  1.0000
  H   H610      1.0  0.52558  0.73421  0.20805  1.0000
  C   C377      1.0  0.51168  0.77262  0.25179  1.0000
  Fe  Fe78      1.0  0.31008  0.61627  0.20461  1.0000
  C   C378      1.0  0.32103  0.67019  0.14901  1.0000
  H   H611      1.0  0.30872  0.70656  0.12112  1.0000
  H   H612      1.0  0.47897  0.77094  0.27077  1.0000
  C   C379      1.0  0.35669  0.66595  0.26672  1.0000
  H   H613      1.0  0.50820  0.73178  0.18340  1.0000
  C   C380      1.0  0.30995  0.60656  0.11912  1.0000
  H   H614      1.0  0.52794  0.72077  0.14767  1.0000
  C   C381      1.0  0.36394  0.55066  0.12547  1.0000
  H   H615      1.0  0.34617  0.55945  0.12751  1.0000
  H   H616      1.0  0.30300  0.71291  0.16166  1.0000
  H   H617      1.0  0.45325  0.87702  0.26467  1.0000
  C   C382      1.0  0.29607  0.69159  0.12265  1.0000
  S   S156      1.0  0.35256  0.57138  0.03039  1.0000
  H   H618      1.0  0.28333  0.64712  0.13292  1.0000
  H   H619      1.0  0.29305  0.54210  0.23852  1.0000
  H   H620      1.0  0.36751  0.53975  0.14084  1.0000
  S   S157      1.0  0.46349  0.64158  0.50116  1.0000
  S   S158      1.0  0.41028  0.70815  0.28470  1.0000
  Fe  Fe79      1.0  0.46153  0.68073  0.49133  1.0000
  S   S159      1.0  0.46841  0.68798  0.45448  1.0000
  S   S160      1.0  0.31644  0.90234  0.34825  1.0000
  Fe  Fe80      1.0  0.41452  0.74094  0.30545  1.0000
  H   H621      1.0  0.46257  0.83065  0.32157  1.0000
  S   S161      1.0  0.42621  0.77576  0.29000  1.0000
  Fe  Fe81      1.0  0.41493  0.75979  0.35232  1.0000
  S   S162      1.0  0.42641  0.79652  0.34068  1.0000
  S   S163      1.0  0.40364  0.74978  0.38770  1.0000
  Fe  Fe82      1.0  0.39994  0.79313  0.31345  1.0000
  S   S164      1.0  0.37628  0.82213  0.29746  1.0000
  Fe  Fe83      1.0  0.45178  0.77649  0.31805  1.0000
  S   S165      1.0  0.48999  0.78820  0.31480  1.0000
  S   S166      1.0  0.38636  0.75804  0.32673  1.0000
  S   S167      1.0  0.44226  0.74014  0.33189  1.0000
  C   C383      1.0  0.33299  0.88019  0.33385  1.0000
  C   C384      1.0  0.33179  0.87833  0.31077  1.0000
  C   C385      1.0  0.34536  0.86058  0.29987  1.0000
  C   C386      1.0  0.35993  0.84433  0.31194  1.0000
  C   C387      1.0  0.36106  0.84611  0.33502  1.0000
  C   C388      1.0  0.34774  0.86409  0.34588  1.0000
  H   H622      1.0  0.32077  0.89085  0.30131  1.0000
  H   H623      1.0  0.48539  0.63653  0.45568  1.0000
  H   H624      1.0  0.37223  0.83373  0.34449  1.0000
  H   H625      1.0  0.34881  0.86547  0.36373  1.0000
  C   C389      1.0  0.38185  0.69648  0.28160  1.0000
  C   C390      1.0  0.43000  0.84896  0.29413  1.0000
  H   H626      1.0  0.45508  0.88924  0.29189  1.0000
  H   H627      1.0  0.29188  0.80999  0.29823  1.0000
  C   C391      1.0  0.50098  0.63596  0.44417  1.0000
  C   C392      1.0  0.34011  0.69556  0.29154  1.0000
  C   C393      1.0  0.46727  0.84794  0.31319  1.0000
  C   C394      1.0  0.41320  0.59649  0.50422  1.0000
  H   H628      1.0  0.50037  0.61898  0.43496  1.0000
  H   H629      1.0  0.38325  0.65188  0.34679  1.0000
  C   C395      1.0  0.40996  0.57495  0.49322  1.0000
  H   H630      1.0  0.52022  0.67644  0.45703  1.0000
  H   H631      1.0  0.41731  0.57270  0.47670  1.0000
  H   H632      1.0  0.49844  0.65120  0.43203  1.0000
  C   C396      1.0  0.45015  0.70548  0.43637  1.0000
  C   C397      1.0  0.45779  0.70948  0.41429  1.0000
  C   C398      1.0  0.44385  0.72322  0.39927  1.0000
  C   C399      1.0  0.42207  0.73300  0.40619  1.0000
  C   C400      1.0  0.41429  0.72877  0.42820  1.0000
  C   C401      1.0  0.42830  0.71513  0.44328  1.0000
  H   H633      1.0  0.47468  0.70213  0.40881  1.0000
  H   H634      1.0  0.45006  0.72637  0.38240  1.0000
  H   H635      1.0  0.39744  0.73626  0.43367  1.0000
  H   H636      1.0  0.42223  0.71216  0.46022  1.0000
  H   H637      1.0  0.29228  0.80979  0.32812  1.0000
  H   H638      1.0  0.30764  0.83235  0.31247  1.0000
  N   N39       1.0  0.45591  0.85074  0.29127  1.0000
  C   C402      1.0  0.38727  0.55956  0.52461  1.0000
  H   H639      1.0  0.48693  0.84785  0.31165  1.0000
  C   C403      1.0  0.33729  0.67534  0.27854  1.0000
  S   S168      1.0  0.30969  0.66143  0.27863  1.0000
  S   S169      1.0  0.43141  0.68866  0.51515  1.0000
  H   H640      1.0  0.46905  0.54098  0.51468  1.0000
  N   N40       1.0  0.37884  0.68772  0.35880  1.0000
  C   C404      1.0  0.40080  0.69621  0.34797  1.0000
  C   C405      1.0  0.37010  0.66704  0.34669  1.0000
  C   C406      1.0  0.36072  0.70727  0.35842  1.0000
  C   C407      1.0  0.38383  0.68049  0.38210  1.0000
  H   H641      1.0  0.40818  0.71140  0.35703  1.0000
  H   H642      1.0  0.39761  0.70251  0.33057  1.0000
  H   H643      1.0  0.41474  0.68183  0.34736  1.0000
  H   H644      1.0  0.36664  0.67193  0.32893  1.0000
  H   H645      1.0  0.50858  0.66109  0.48101  1.0000
  C   C408      1.0  0.50744  0.78325  0.29060  1.0000
  H   H646      1.0  0.34402  0.70165  0.36679  1.0000
  H   H647      1.0  0.35633  0.71303  0.34112  1.0000
  H   H648      1.0  0.36696  0.72337  0.36702  1.0000
  H   H649      1.0  0.46046  0.81357  0.28354  1.0000
  H   H650      1.0  0.39018  0.69594  0.39162  1.0000
  H   H651      1.0  0.39784  0.66617  0.38308  1.0000
  C   C409      1.0  0.39687  0.55652  0.50330  1.0000
  H   H652      1.0  0.42522  0.83133  0.30171  1.0000
  H   H653      1.0  0.36408  0.72223  0.30229  1.0000
  C   C410      1.0  0.36223  0.70635  0.29273  1.0000
  H   H654      1.0  0.36774  0.67374  0.39082  1.0000
  H   H655      1.0  0.35326  0.66039  0.35407  1.0000
  H   H656      1.0  0.42281  0.61078  0.49607  1.0000
  H   H657      1.0  0.32507  0.70302  0.30051  1.0000
  H   H658      1.0  0.34452  0.85940  0.28199  1.0000
  H   H659      1.0  0.51077  0.61722  0.48459  1.0000
  Fe  Fe84      1.0  0.28388  0.92179  0.33437  1.0000
  H   H660      1.0  0.42252  0.86301  0.30519  1.0000
  Fe  Fe85      1.0  0.43604  0.65026  0.52695  1.0000
  S   S170      1.0  0.48972  0.69113  0.51518  1.0000
  C   C411      1.0  0.52581  0.61751  0.47243  1.0000
  H   H661      1.0  0.46164  0.86250  0.32454  1.0000
  C   C412      1.0  0.52311  0.66062  0.46843  1.0000
  H   H662      1.0  0.28491  0.86379  0.29110  1.0000
  N   N41       1.0  0.52335  0.63788  0.45637  1.0000
  H   H663      1.0  0.52630  0.60000  0.46401  1.0000
  C   C413      1.0  0.40314  0.59982  0.52529  1.0000
  H   H664      1.0  0.48104  0.87624  0.27890  1.0000
  C   C414      1.0  0.29130  0.82162  0.31299  1.0000
  C   C415      1.0  0.53163  0.78852  0.29070  1.0000
  H   H665      1.0  0.28567  0.86491  0.33194  1.0000
  Fe  Fe86      1.0  0.48983  0.65242  0.52618  1.0000
  C   C416      1.0  0.46159  0.87438  0.28123  1.0000
  H   H666      1.0  0.29161  0.54959  0.31842  1.0000
  H   H667      1.0  0.32104  0.54361  0.30785  1.0000
  H   H668      1.0  0.30525  0.53965  0.35693  1.0000
  H   H669      1.0  0.42065  0.85064  0.27799  1.0000
  H   H670      1.0  0.33305  0.91760  0.77054  1.0000
  C   C417      1.0  0.50712  0.78937  0.76616  1.0000
  H   H671      1.0  0.30326  0.56038  0.74479  1.0000
  S   S171      1.0  0.31445  0.88283  0.73530  1.0000
  Fe  Fe87      1.0  0.46445  0.77616  0.71810  1.0000
  S   S172      1.0  0.44858  0.73994  0.72313  1.0000
  S   S173      1.0  0.50443  0.77752  0.72168  1.0000
  Fe  Fe88      1.0  0.41779  0.79786  0.69979  1.0000
  S   S174      1.0  0.39912  0.76283  0.70306  1.0000
  S   S175      1.0  0.39780  0.82918  0.68349  1.0000
  Fe  Fe89      1.0  0.41673  0.75990  0.73619  1.0000
  H   H672      1.0  0.29592  0.78496  0.73285  1.0000
  Fe  Fe90      1.0  0.43273  0.74638  0.68939  1.0000
  S   S176      1.0  0.43535  0.71524  0.66592  1.0000
  S   S177      1.0  0.43364  0.79607  0.73385  1.0000
  S   S178      1.0  0.45022  0.78156  0.68343  1.0000
  C   C418      1.0  0.33129  0.93629  0.76372  1.0000
  S   S179      1.0  0.29737  0.94666  0.70768  1.0000
  S   S180      1.0  0.45509  0.72780  0.56219  1.0000
  N   N42       1.0  0.38305  0.68624  0.57578  1.0000
  C   C419      1.0  0.34983  0.96883  0.74343  1.0000
  C   C420      1.0  0.35600  0.69637  0.74956  1.0000
  S   S181      1.0  0.46257  0.65783  0.55300  1.0000
  N   N43       1.0  0.33389  0.78307  0.73323  1.0000
  H   H673      1.0  0.36606  0.97546  0.73488  1.0000
  H   H674      1.0  0.37149  0.69226  0.60937  1.0000
  Fe  Fe91      1.0  0.28784  0.91045  0.72165  1.0000
  H   H675      1.0  0.41679  0.66906  0.57005  1.0000
  C   C421      1.0  0.33504  0.75690  0.72998  1.0000
  C   C422      1.0  0.44014  0.71919  0.63707  1.0000
  C   C423      1.0  0.44672  0.69916  0.62456  1.0000
  C   C424      1.0  0.45163  0.70163  0.60168  1.0000
  C   C425      1.0  0.44981  0.72415  0.59105  1.0000
  C   C426      1.0  0.44309  0.74419  0.60353  1.0000
  C   C427      1.0  0.43817  0.74173  0.62646  1.0000
  H   H676      1.0  0.44838  0.68168  0.63269  1.0000
  H   H677      1.0  0.45703  0.68613  0.59236  1.0000
  H   H678      1.0  0.44156  0.76168  0.59541  1.0000
  H   H679      1.0  0.43299  0.75728  0.63593  1.0000
  C   C428      1.0  0.33820  0.86942  0.72047  1.0000
  C   C429      1.0  0.34036  0.87163  0.69737  1.0000
  C   C430      1.0  0.35901  0.85956  0.68624  1.0000
  C   C431      1.0  0.37550  0.84518  0.69810  1.0000
  C   C432      1.0  0.37367  0.84354  0.72126  1.0000
  C   C433      1.0  0.35511  0.85567  0.73238  1.0000
  H   H680      1.0  0.32751  0.88229  0.68805  1.0000
  H   H681      1.0  0.36047  0.86105  0.66831  1.0000
  H   H682      1.0  0.38656  0.83288  0.73054  1.0000
  H   H683      1.0  0.35374  0.85425  0.75031  1.0000
  C   C434      1.0  0.39022  0.58129  0.53548  1.0000
  H   H684      1.0  0.34480  0.92726  0.72193  1.0000
  C   C435      1.0  0.37346  0.71394  0.74933  1.0000
  N   N44       1.0  0.35331  0.94412  0.75248  1.0000
  C   C436      1.0  0.37695  0.72740  0.76824  1.0000
  H   H685      1.0  0.38407  0.71716  0.73451  1.0000
  H   H686      1.0  0.35425  0.79263  0.70391  1.0000
  C   C437      1.0  0.37301  0.67860  0.55462  1.0000
  H   H687      1.0  0.33315  0.74671  0.74605  1.0000
  C   C438      1.0  0.49591  0.74501  0.64080  1.0000
  H   H688      1.0  0.35230  0.75122  0.72247  1.0000
  C   C439      1.0  0.31089  0.78979  0.74354  1.0000
  S   S182      1.0  0.32003  0.67034  0.76832  1.0000
  H   H689      1.0  0.52522  0.70735  0.64877  1.0000
  H   H690      1.0  0.40044  0.71687  0.58842  1.0000
  H   H691      1.0  0.37700  0.54548  0.53242  1.0000
  C   C440      1.0  0.40219  0.66923  0.58258  1.0000
  H   H692      1.0  0.49003  0.71168  0.67347  1.0000
  C   C441      1.0  0.51915  0.78162  0.74710  1.0000
  H   H693      1.0  0.35226  0.80912  0.75184  1.0000
  H   H694      1.0  0.50752  0.72633  0.69386  1.0000
  H   H695      1.0  0.30854  0.78051  0.76000  1.0000
  H   H696      1.0  0.31633  0.93657  0.75199  1.0000
  C   C442      1.0  0.33641  0.79582  0.71151  1.0000
  H   H697      1.0  0.35848  0.69094  0.54891  1.0000
  C   C443      1.0  0.29276  0.55314  0.75842  1.0000
  C   C444      1.0  0.35933  0.92776  0.73419  1.0000
  N   N45       1.0  0.51095  0.74081  0.66046  1.0000
  Fe  Fe92      1.0  0.45977  0.69573  0.53997  1.0000
  H   H698      1.0  0.36592  0.66015  0.55616  1.0000
  H   H699      1.0  0.37563  0.93326  0.72504  1.0000
  H   H700      1.0  0.48818  0.79259  0.76573  1.0000
  H   H701      1.0  0.40707  0.71085  0.55988  1.0000
  H   H702      1.0  0.36226  0.90900  0.74051  1.0000
  H   H703      1.0  0.33403  0.81554  0.71315  1.0000
  H   H704      1.0  0.37890  0.72387  0.56744  1.0000
  C   C445      1.0  0.34234  0.69185  0.76880  1.0000
  H   H705      1.0  0.33523  0.96993  0.73121  1.0000
  H   H706      1.0  0.38674  0.67810  0.54119  1.0000
  H   H707      1.0  0.38230  0.58381  0.55174  1.0000
  C   C446      1.0  0.49696  0.72924  0.67850  1.0000
  S   S183      1.0  0.29141  0.98907  0.75662  1.0000
  H   H708      1.0  0.37090  0.78604  0.74037  1.0000
  H   H709      1.0  0.39583  0.65051  0.58418  1.0000
  H   H710      1.0  0.44553  0.54610  0.53434  1.0000
  C   C447      1.0  0.36438  0.68656  0.59320  1.0000
  H   H711      1.0  0.35682  0.66845  0.59593  1.0000
  H   H712      1.0  0.48135  0.74053  0.68318  1.0000
  H   H713      1.0  0.48913  0.72789  0.63458  1.0000
  C   C448      1.0  0.35319  0.78976  0.74801  1.0000
  H   H714      1.0  0.35319  0.68611  0.73485  1.0000
  H   H715      1.0  0.35262  0.77947  0.76411  1.0000
  H   H716      1.0  0.34963  0.69922  0.58864  1.0000
  C   C449      1.0  0.39272  0.71052  0.57276  1.0000
  S   S184      1.0  0.39717  0.75089  0.76808  1.0000
  H   H717      1.0  0.40986  0.67403  0.59875  1.0000
  H   H718      1.0  0.50468  0.77628  0.67279  1.0000
  H   H719      1.0  0.32308  0.79005  0.69946  1.0000
  H   H720      1.0  0.47544  0.54214  0.54381  1.0000
  H   H721      1.0  0.34485  0.98158  0.75676  1.0000
  S   S185      1.0  0.40584  0.62725  0.53882  1.0000
  H   H722      1.0  0.48028  0.75671  0.64483  1.0000
  H   H723      1.0  0.30950  0.80949  0.74620  1.0000
  C   C450      1.0  0.51963  0.76400  0.66799  1.0000
  H   H724      1.0  0.32086  0.75103  0.71885  1.0000
  H   H725      1.0  0.50573  0.75389  0.62685  1.0000
  C   C451      1.0  0.28693  0.56772  0.77656  1.0000
  H   H726      1.0  0.38967  0.94929  0.76072  1.0000
  H   H727      1.0  0.32259  0.55398  0.67479  1.0000
  C   C452      1.0  0.37275  0.94356  0.76866  1.0000
  S   S186      1.0  0.52004  0.62588  0.53094  1.0000
  H   H728      1.0  0.37573  0.92516  0.77584  1.0000
  H   H729      1.0  0.53013  0.77337  0.65480  1.0000
  H   H730      1.0  0.28581  0.90996  0.53737  1.0000
  C   C453      1.0  0.28742  0.03284  0.77639  1.0000
  H   H731      1.0  0.53097  0.76159  0.68290  1.0000
  C   C454      1.0  0.53126  0.72499  0.65454  1.0000
  H   H732      1.0  0.29293  0.58599  0.77679  1.0000
  H   H733      1.0  0.32598  0.94833  0.77749  1.0000
  H   H734      1.0  0.28644  0.55274  0.85985  1.0000
  Fe  Fe93      1.0  0.35907  0.59416  0.99956  1.0000
  H   H735      1.0  0.29639  0.58263  0.85576  1.0000
  S   S187      1.0  0.33524  0.58699  0.97031  1.0000
  H   H736      1.0  0.36604  0.73319  0.80214  1.0000
  H   H737      1.0  0.30592  0.03014  0.78030  1.0000
  S   S188      1.0  0.39881  0.58998  0.00163  1.0000
  Fe  Fe94      1.0  0.31405  0.63981  0.84891  1.0000
  S   S189      1.0  0.34318  0.63723  0.87450  1.0000
  Fe  Fe95      1.0  0.30439  0.65694  0.80099  1.0000
  H   H738      1.0  0.51101  0.76499  0.86988  1.0000
  H   H739      1.0  0.33866  0.59098  0.85166  1.0000
  S   S190      1.0  0.30524  0.67580  0.83329  1.0000
  S   S191      1.0  0.31688  0.62170  0.81606  1.0000
  C   C455      1.0  0.50073  0.64118  0.02212  1.0000
  C   C456      1.0  0.45128  0.64904  0.01998  1.0000
  H   H740      1.0  0.29420  0.70471  0.87607  1.0000
  C   C457      1.0  0.32258  0.55232  0.83091  1.0000
  H   H741      1.0  0.33959  0.54547  0.82376  1.0000
  H   H742      1.0  0.31796  0.56943  0.82192  1.0000
  H   H743      1.0  0.51036  0.80014  0.80016  1.0000
  C   C458      1.0  0.36333  0.72288  0.78745  1.0000
  S   S192      1.0  0.53156  0.63532  0.02309  1.0000
  C   C459      1.0  0.33761  0.60151  0.94395  1.0000
  C   C460      1.0  0.35743  0.61472  0.93772  1.0000
  C   C461      1.0  0.35901  0.62528  0.91627  1.0000
  C   C462      1.0  0.34063  0.62309  0.90104  1.0000
  C   C463      1.0  0.32065  0.61015  0.90735  1.0000
  C   C464      1.0  0.31926  0.59922  0.92865  1.0000
  H   H744      1.0  0.37169  0.61654  0.94934  1.0000
  H   H745      1.0  0.37453  0.63530  0.91153  1.0000
  C   C465      1.0  0.49136  0.66455  0.02016  1.0000
  H   H746      1.0  0.44892  0.61065  0.02291  1.0000
  H   H747      1.0  0.52741  0.71202  0.87303  1.0000
  N   N46       1.0  0.32409  0.55576  0.85513  1.0000
  C   C466      1.0  0.30864  0.69998  0.88794  1.0000
  C   C467      1.0  0.46067  0.62568  0.02212  1.0000
  H   H748      1.0  0.53139  0.73388  0.89404  1.0000
  H   H749      1.0  0.30629  0.60851  0.89587  1.0000
  H   H750      1.0  0.33573  0.70181  0.80263  1.0000
  C   C468      1.0  0.34616  0.70508  0.78778  1.0000
  H   H751      1.0  0.50719  0.74306  0.84888  1.0000
  H   H752      1.0  0.32160  0.68803  0.87916  1.0000
  C   C469      1.0  0.34268  0.57315  0.85962  1.0000
  H   H753      1.0  0.52180  0.77056  0.84204  1.0000
  H   H754      1.0  0.32843  0.69766  0.92878  1.0000
  H   H755      1.0  0.31794  0.71672  0.89170  1.0000
  H   H756      1.0  0.36027  0.56704  0.85318  1.0000
  H   H757      1.0  0.34440  0.57611  0.87775  1.0000
  C   C470      1.0  0.46670  0.66843  0.01901  1.0000
  C   C471      1.0  0.31909  0.68155  0.92328  1.0000
  H   H758      1.0  0.30386  0.58905  0.93343  1.0000
  C   C472      1.0  0.51974  0.79362  0.78567  1.0000
  C   C473      1.0  0.30108  0.56497  0.86364  1.0000
  H   H759      1.0  0.33250  0.66992  0.91480  1.0000
  H   H760      1.0  0.31294  0.67145  0.93840  1.0000
  S   S193      1.0  0.42044  0.65452  0.01825  1.0000
  S   S194      1.0  0.35677  0.62851  0.01825  1.0000
  Fe  Fe96      1.0  0.39617  0.62300  0.02236  1.0000
  H   H761      1.0  0.30130  0.56730  0.88194  1.0000
  H   H762      1.0  0.29127  0.72137  0.92440  1.0000
  H   H763      1.0  0.29873  0.65391  0.89309  1.0000
  C   C474      1.0  0.48531  0.62178  0.02310  1.0000
  N   N47       1.0  0.29928  0.68812  0.90835  1.0000
  C   C475      1.0  0.28681  0.66627  0.90238  1.0000
  H   H764      1.0  0.49242  0.60368  0.02463  1.0000
  H   H765      1.0  0.36874  0.95573  0.78267  1.0000
  H   H766      1.0  0.45953  0.68653  0.01737  1.0000
  C   C476      1.0  0.51960  0.75637  0.85528  1.0000
  H   H767      1.0  0.50307  0.67961  0.01938  1.0000
  C   C477      1.0  0.28252  0.70461  0.91969  1.0000
  S   S195      1.0  0.75452  0.51067  0.22141  1.0000
  C   C478      1.0  0.77678  0.36540  0.24933  1.0000
  S   S196      1.0  0.72264  0.48462  0.06392  1.0000
  Fe  Fe97      1.0  0.73985  0.43245  0.18649  1.0000
  S   S197      1.0  0.71656  0.42747  0.15654  1.0000
  Fe  Fe98      1.0  0.73865  0.42153  0.23657  1.0000
  C   C479      1.0  0.56789  0.43235  0.04006  1.0000
  H   H768      1.0  0.75867  0.37364  0.24998  1.0000
  Fe  Fe99      1.0  0.75669  0.46995  0.21836  1.0000
  H   H769      1.0  0.70849  0.25412  0.25017  1.0000
  S   S198      1.0  0.72233  0.45101  0.21536  1.0000
  S   S199      1.0  0.75319  0.40107  0.20760  1.0000
  H   H770      1.0  0.74739  0.50112  0.17546  1.0000
  S   S200      1.0  0.77173  0.44204  0.24183  1.0000
  H   H771      1.0  0.70977  0.50922  0.19589  1.0000
  C   C480      1.0  0.70097  0.36763  0.24961  1.0000
  C   C481      1.0  0.58529  0.44772  0.03152  1.0000
  S   S201      1.0  0.77357  0.45289  0.18823  1.0000
  H   H772      1.0  0.70955  0.37286  0.23412  1.0000
  S   S202      1.0  0.67764  0.44782  0.02902  1.0000
  H   H773      1.0  0.71076  0.50421  0.12509  1.0000
  C   C482      1.0  0.68615  0.34767  0.25054  1.0000
  C   C483      1.0  0.70033  0.50198  0.14084  1.0000
  H   H774      1.0  0.53454  0.41557  0.03424  1.0000
  C   C484      1.0  0.76825  0.51233  0.26546  1.0000
  S   S203      1.0  0.61100  0.45207  0.04694  1.0000
  H   H775      1.0  0.68276  0.51474  0.18079  1.0000
  H   H776      1.0  0.56461  0.29145  0.26742  1.0000
  H   H777      1.0  0.66058  0.26078  0.27272  1.0000
  C   C485      1.0  0.70445  0.38081  0.26869  1.0000
  Fe  Fe100     1.0  0.64298  0.46838  0.02995  1.0000
  C   C486      1.0  0.72150  0.46699  0.08875  1.0000
  C   C487      1.0  0.74097  0.46643  0.10305  1.0000
  C   C488      1.0  0.74016  0.45356  0.12348  1.0000
  C   C489      1.0  0.71967  0.44147  0.12994  1.0000
  C   C490      1.0  0.70046  0.44154  0.11538  1.0000
  C   C491      1.0  0.70132  0.45427  0.09490  1.0000
  H   H778      1.0  0.75674  0.47600  0.09827  1.0000
  H   H779      1.0  0.75531  0.45311  0.13427  1.0000
  H   H780      1.0  0.68460  0.43209  0.12015  1.0000
  H   H781      1.0  0.68624  0.45450  0.08401  1.0000
  C   C492      1.0  0.73637  0.49550  0.16141  1.0000
  H   H782      1.0  0.73319  0.47603  0.16393  1.0000
  Fe  Fe101     1.0  0.69351  0.48256  0.03839  1.0000
  H   H783      1.0  0.77462  0.40284  0.27651  1.0000
  H   H784      1.0  0.57018  0.42379  0.05626  1.0000
  C   C493      1.0  0.54613  0.28690  0.26694  1.0000
  C   C494      1.0  0.76244  0.52522  0.24599  1.0000
  H   H785      1.0  0.67245  0.23274  0.26300  1.0000
  C   C495      1.0  0.71882  0.53515  0.15832  1.0000
  N   N48       1.0  0.71381  0.50931  0.16032  1.0000
  H   H786      1.0  0.69556  0.48275  0.14232  1.0000
  C   C496      1.0  0.53410  0.28748  0.24656  1.0000
  H   H787      1.0  0.68340  0.33763  0.23569  1.0000
  H   H788      1.0  0.74708  0.49784  0.14589  1.0000
  S   S204      1.0  0.72336  0.40557  0.26853  1.0000
  C   C497      1.0  0.69984  0.50445  0.18082  1.0000
  C   C498      1.0  0.67453  0.34096  0.27044  1.0000
  S   S205      1.0  0.65851  0.50234  0.04193  1.0000
  H   H789      1.0  0.68355  0.51259  0.13897  1.0000
  H   H790      1.0  0.77501  0.34637  0.24465  1.0000
  H   H791      1.0  0.69570  0.48504  0.18260  1.0000
  C   C499      1.0  0.70696  0.26520  0.26525  1.0000
  H   H792      1.0  0.71168  0.21777  0.27537  1.0000
  H   H793      1.0  0.69642  0.28173  0.26069  1.0000
  S   S206      1.0  0.65618  0.31575  0.27104  1.0000
  H   H794      1.0  0.54348  0.29251  0.23143  1.0000
  H   H795      1.0  0.72503  0.27086  0.26954  1.0000
  H   H796      1.0  0.78160  0.13609  0.24828  1.0000
  H   H797      1.0  0.76853  0.49293  0.26560  1.0000
  C   C500      1.0  0.67178  0.24478  0.27745  1.0000
  H   H798      1.0  0.72941  0.53923  0.14300  1.0000
  C   C501      1.0  0.54772  0.42768  0.02762  1.0000
  C   C502      1.0  0.77365  0.52456  0.28489  1.0000
  C   C503      1.0  0.69385  0.26732  0.30346  1.0000
  Fe  Fe102     1.0  0.55574  0.40386  0.50937  1.0000
  S   S207      1.0  0.59017  0.39990  0.49054  1.0000
  Fe  Fe103     1.0  0.58775  0.36102  0.50035  1.0000
  S   S208      1.0  0.59132  0.33097  0.47571  1.0000
  H   H799      1.0  0.68327  0.28397  0.29970  1.0000
  H   H800      1.0  0.68685  0.28920  0.43951  1.0000
  H   H801      1.0  0.77804  0.51442  0.29989  1.0000
  Fe  Fe104     1.0  0.61457  0.32092  0.34785  1.0000
  S   S209      1.0  0.59953  0.28459  0.35393  1.0000
  S   S210      1.0  0.61402  0.35040  0.37323  1.0000
  Fe  Fe105     1.0  0.63409  0.30754  0.30189  1.0000
  S   S211      1.0  0.62006  0.27008  0.30469  1.0000
  H   H802      1.0  0.75519  0.05313  0.30059  1.0000
  Fe  Fe106     1.0  0.58703  0.28813  0.31843  1.0000
  S   S212      1.0  0.54852  0.27904  0.31265  1.0000
  Fe  Fe107     1.0  0.63376  0.27014  0.33951  1.0000
  S   S213      1.0  0.65926  0.24518  0.35812  1.0000
  S   S214      1.0  0.60015  0.32564  0.31322  1.0000
  S   S215      1.0  0.64969  0.30647  0.33580  1.0000
  H   H803      1.0  0.67329  0.26103  0.43445  1.0000
  C   C504      1.0  0.64896  0.52430  0.47944  1.0000
  Fe  Fe108     1.0  0.74660  0.14101  0.32634  1.0000
  S   S216      1.0  0.70709  0.14860  0.32344  1.0000
  H   H804      1.0  0.62562  0.49405  0.45398  1.0000
  C   C505      1.0  0.54288  0.37741  0.45281  1.0000
  H   H805      1.0  0.66919  0.34915  0.30491  1.0000
  C   C506      1.0  0.67276  0.21911  0.34706  1.0000
  C   C507      1.0  0.66141  0.20527  0.33157  1.0000
  C   C508      1.0  0.67217  0.18373  0.32435  1.0000
  C   C509      1.0  0.69453  0.17620  0.33216  1.0000
  C   C510      1.0  0.70613  0.19047  0.34715  1.0000
  C   C511      1.0  0.69516  0.21167  0.35476  1.0000
  H   H806      1.0  0.64398  0.21063  0.32581  1.0000
  H   H807      1.0  0.66300  0.17268  0.31289  1.0000
  H   H808      1.0  0.72320  0.18472  0.35348  1.0000
  H   H809      1.0  0.70400  0.22216  0.36686  1.0000
  H   H810      1.0  0.65964  0.52784  0.49433  1.0000
  C   C512      1.0  0.77445  0.35628  0.28860  1.0000
  H   H811      1.0  0.69573  0.38400  0.30347  1.0000
  H   H812      1.0  0.62712  0.28158  0.41642  1.0000
  C   C513      1.0  0.59686  0.33701  0.44719  1.0000
  C   C514      1.0  0.60528  0.35915  0.43956  1.0000
  C   C515      1.0  0.60993  0.36318  0.41677  1.0000
  C   C516      1.0  0.60622  0.34515  0.40142  1.0000
  C   C517      1.0  0.59736  0.32318  0.40900  1.0000
  C   C518      1.0  0.59287  0.31908  0.43182  1.0000
  H   H813      1.0  0.60861  0.37304  0.45123  1.0000
  H   H814      1.0  0.61681  0.38022  0.41103  1.0000
  H   H815      1.0  0.59416  0.30928  0.39730  1.0000
  H   H816      1.0  0.58627  0.30193  0.43758  1.0000
  C   C519      1.0  0.67810  0.35411  0.28952  1.0000
  H   H817      1.0  0.77198  0.09652  0.49173  1.0000
  H   H818      1.0  0.53850  0.33687  0.47747  1.0000
  H   H819      1.0  0.67309  0.48554  0.49563  1.0000
  H   H820      1.0  0.66254  0.23509  0.29132  1.0000
  C   C520      1.0  0.68292  0.51040  0.45825  1.0000
  H   H821      1.0  0.63636  0.28442  0.38784  1.0000
  H   H822      1.0  0.66823  0.46672  0.47248  1.0000
  S   S217      1.0  0.76488  0.13555  0.29350  1.0000
  H   H823      1.0  0.71155  0.27275  0.30906  1.0000
  H   H824      1.0  0.64355  0.47763  0.48866  1.0000
  H   H825      1.0  0.64152  0.51516  0.43674  1.0000
  H   H826      1.0  0.63068  0.52060  0.48555  1.0000
  S   S218      1.0  0.76596  0.10958  0.34321  1.0000
  N   N49       1.0  0.65916  0.50408  0.46679  1.0000
  H   H827      1.0  0.65089  0.48412  0.43795  1.0000
  C   C521      1.0  0.66110  0.48254  0.48150  1.0000
  H   H828      1.0  0.69463  0.51581  0.47191  1.0000
  H   H829      1.0  0.55636  0.37156  0.44032  1.0000
  H   H830      1.0  0.65609  0.28519  0.44621  1.0000
  H   H831      1.0  0.69177  0.49514  0.44967  1.0000
  H   H832      1.0  0.64445  0.25807  0.40376  1.0000
  C   C522      1.0  0.64361  0.49913  0.44800  1.0000
  H   H833      1.0  0.77708  0.12357  0.47554  1.0000
  N   N50       1.0  0.66390  0.28952  0.41132  1.0000
  C   C523      1.0  0.68321  0.28346  0.39548  1.0000
  C   C524      1.0  0.66001  0.31582  0.41127  1.0000
  C   C525      1.0  0.67035  0.28085  0.43389  1.0000
  C   C526      1.0  0.64198  0.27791  0.40461  1.0000
  H   H834      1.0  0.68653  0.26370  0.39500  1.0000
  H   H835      1.0  0.70005  0.29194  0.39989  1.0000
  H   H836      1.0  0.67868  0.28953  0.37825  1.0000
  H   H837      1.0  0.67633  0.32527  0.41566  1.0000
  H   H838      1.0  0.65437  0.32285  0.39461  1.0000
  H   H839      1.0  0.64595  0.32108  0.42345  1.0000
  H   H840      1.0  0.68197  0.52582  0.44616  1.0000
  S   S219      1.0  0.55240  0.36475  0.51770  1.0000
  H   H841      1.0  0.68501  0.25798  0.31772  1.0000
  H   H842      1.0  0.72840  0.23467  0.29445  1.0000
  H   H843      1.0  0.53744  0.39629  0.44863  1.0000
  S   S220      1.0  0.77192  0.16849  0.33709  1.0000
  H   H844      1.0  0.59756  0.45419  0.52330  1.0000
  H   H845      1.0  0.76944  0.12015  0.52640  1.0000
  C   C527      1.0  0.69314  0.37386  0.28866  1.0000
  H   H846      1.0  0.75662  0.36528  0.28981  1.0000
  H   H847      1.0  0.55175  0.37756  0.46913  1.0000
  C   C528      1.0  0.76396  0.04340  0.28738  1.0000
  H   H848      1.0  0.54412  0.32964  0.44913  1.0000
  Fe  Fe109     1.0  0.60722  0.40402  0.52363  1.0000
  H   H849      1.0  0.70223  0.21979  0.30376  1.0000
  C   C529      1.0  0.71015  0.23012  0.28958  1.0000
  H   H850      1.0  0.77440  0.14729  0.51037  1.0000
  N   N51       1.0  0.69571  0.25183  0.28393  1.0000
  H   H851      1.0  0.77161  0.33699  0.28548  1.0000
  C   C530      1.0  0.53428  0.28016  0.28659  1.0000
  H   H852      1.0  0.59006  0.49796  0.52496  1.0000
  C   C531      1.0  0.61178  0.46580  0.52748  1.0000
  Fe  Fe110     1.0  0.64212  0.26871  0.72378  1.0000
  S   S221      1.0  0.65902  0.29269  0.69808  1.0000
  S   S222      1.0  0.65874  0.23338  0.73587  1.0000
  Fe  Fe111     1.0  0.59862  0.30219  0.72926  1.0000
  S   S223      1.0  0.61243  0.32821  0.70312  1.0000
  S   S224      1.0  0.56611  0.31694  0.74784  1.0000
  Fe  Fe112     1.0  0.62269  0.29593  0.68352  1.0000
  S   S225      1.0  0.62211  0.29110  0.64624  1.0000
  Fe  Fe113     1.0  0.64741  0.32279  0.71982  1.0000
  S   S226      1.0  0.66930  0.35567  0.72391  1.0000
  S   S227      1.0  0.60608  0.26997  0.70808  1.0000
  S   S228      1.0  0.63333  0.29875  0.74704  1.0000
  S   S229      1.0  0.77086  0.08680  0.75426  1.0000
  C   C532      1.0  0.70210  0.38651  0.77480  1.0000
  H   H853      1.0  0.65761  0.40116  0.57114  1.0000
  S   S230      1.0  0.61981  0.53702  0.53308  1.0000
  S   S231      1.0  0.74415  0.18367  0.68331  1.0000
  Fe  Fe114     1.0  0.57293  0.37205  0.54838  1.0000
  S   S232      1.0  0.56205  0.36205  0.58370  1.0000
  H   H854      1.0  0.73825  0.51644  0.67286  1.0000
  H   H855      1.0  0.66280  0.50828  0.54119  1.0000
  H   H856      1.0  0.60959  0.37860  0.57829  1.0000
  C   C533      1.0  0.69222  0.38222  0.75406  1.0000
  C   C534      1.0  0.63430  0.45616  0.53187  1.0000
  C   C535      1.0  0.61288  0.39627  0.58561  1.0000
  C   C536      1.0  0.73832  0.52636  0.75164  1.0000
  S   S233      1.0  0.60813  0.36449  0.53202  1.0000
  H   H857      1.0  0.65225  0.37026  0.57778  1.0000
  N   N52       1.0  0.63439  0.39523  0.59925  1.0000
  H   H858      1.0  0.75141  0.36722  0.77237  1.0000
  C   C537      1.0  0.63830  0.41916  0.60833  1.0000
  C   C538      1.0  0.60596  0.31156  0.62911  1.0000
  C   C539      1.0  0.60952  0.31128  0.60597  1.0000
  C   C540      1.0  0.59648  0.32696  0.59184  1.0000
  C   C541      1.0  0.57946  0.34269  0.60078  1.0000
  C   C542      1.0  0.57601  0.34305  0.62391  1.0000
  C   C543      1.0  0.58937  0.32771  0.63806  1.0000
  H   H859      1.0  0.62229  0.29877  0.59894  1.0000
  H   H860      1.0  0.59915  0.32644  0.57403  1.0000
  H   H861      1.0  0.56281  0.35514  0.63091  1.0000
  H   H862      1.0  0.58640  0.32798  0.65584  1.0000
  H   H863      1.0  0.69223  0.39619  0.74124  1.0000
  S   S234      1.0  0.57300  0.41186  0.54154  1.0000
  H   H864      1.0  0.60248  0.35023  0.75103  1.0000
  C   C544      1.0  0.68221  0.36007  0.74988  1.0000
  H   H865      1.0  0.67016  0.46409  0.54037  1.0000
  C   C545      1.0  0.54240  0.27642  0.76315  1.0000
  H   H866      1.0  0.67478  0.32488  0.76335  1.0000
  H   H867      1.0  0.55546  0.26584  0.75416  1.0000
  H   H868      1.0  0.63312  0.35437  0.75596  1.0000
  C   C546      1.0  0.54393  0.30141  0.76305  1.0000
  C   C547      1.0  0.68414  0.22072  0.72269  1.0000
  C   C548      1.0  0.69260  0.19785  0.72956  1.0000
  C   C549      1.0  0.71165  0.18656  0.71825  1.0000
  C   C550      1.0  0.72215  0.19799  0.69978  1.0000
  C   C551      1.0  0.71392  0.22099  0.69317  1.0000
  C   C552      1.0  0.69521  0.23241  0.70471  1.0000
  H   H869      1.0  0.68417  0.18867  0.74348  1.0000
  H   H870      1.0  0.71777  0.16879  0.72342  1.0000
  H   H871      1.0  0.72210  0.23001  0.67903  1.0000
  H   H872      1.0  0.68919  0.25013  0.69948  1.0000
  H   H873      1.0  0.67149  0.38689  0.59491  1.0000
  H   H874      1.0  0.61546  0.38171  0.62805  1.0000
  H   H875      1.0  0.67994  0.23397  0.65840  1.0000
  H   H876      1.0  0.60788  0.21312  0.65393  1.0000
  H   H877      1.0  0.66007  0.24959  0.63957  1.0000
  Fe  Fe115     1.0  0.76869  0.15316  0.69499  1.0000
  C   C553      1.0  0.74415  0.52614  0.65742  1.0000
  H   H878      1.0  0.75795  0.51471  0.64924  1.0000
  C   C554      1.0  0.68216  0.34213  0.76654  1.0000
  C   C555      1.0  0.63139  0.37745  0.61766  1.0000
  H   H879      1.0  0.64700  0.37660  0.62875  1.0000
  C   C556      1.0  0.64648  0.20768  0.67947  1.0000
  H   H880      1.0  0.67070  0.19499  0.64282  1.0000
  H   H881      1.0  0.61445  0.40965  0.57167  1.0000
  H   H882      1.0  0.62906  0.35911  0.61130  1.0000
  H   H883      1.0  0.65149  0.21011  0.62316  1.0000
  H   H884      1.0  0.64164  0.22051  0.69275  1.0000
  C   C557      1.0  0.66120  0.23983  0.65590  1.0000
  H   H885      1.0  0.65445  0.41913  0.61868  1.0000
  H   H886      1.0  0.65659  0.25309  0.66881  1.0000
  N   N53       1.0  0.64511  0.21933  0.65717  1.0000
  C   C558      1.0  0.75739  0.34807  0.77197  1.0000
  H   H887      1.0  0.64049  0.43293  0.59474  1.0000
  C   C559      1.0  0.65223  0.20184  0.64017  1.0000
  H   H888      1.0  0.61480  0.24129  0.66580  1.0000
  H   H889      1.0  0.63431  0.19235  0.68124  1.0000
  H   H890      1.0  0.62304  0.42508  0.61890  1.0000
  H   H891      1.0  0.61898  0.23736  0.63667  1.0000
  S   S235      1.0  0.76291  0.11354  0.69152  1.0000
  C   C560      1.0  0.65489  0.38807  0.58520  1.0000
  H   H892      1.0  0.59681  0.40115  0.59558  1.0000
  H   H893      1.0  0.66469  0.20064  0.68297  1.0000
  H   H894      1.0  0.64050  0.18609  0.64066  1.0000
  C   C561      1.0  0.77477  0.50860  0.76564  1.0000
  C   C562      1.0  0.62060  0.22804  0.65319  1.0000
  C   C563      1.0  0.75012  0.50826  0.76413  1.0000
  S   S236      1.0  0.63987  0.42513  0.53021  1.0000
  H   H895      1.0  0.75840  0.34290  0.75425  1.0000
  H   H896      1.0  0.61344  0.37989  0.75402  1.0000
  H   H897      1.0  0.72876  0.52771  0.64608  1.0000
  C   C564      1.0  0.65269  0.47149  0.53697  1.0000
  H   H898      1.0  0.71925  0.52612  0.75036  1.0000
  C   C565      1.0  0.64859  0.49647  0.53734  1.0000
  C   C566      1.0  0.62596  0.50602  0.53304  1.0000
  C   C567      1.0  0.61508  0.36104  0.76037  1.0000
  H   H899      1.0  0.76854  0.53811  0.69353  1.0000
  C   C568      1.0  0.60759  0.49062  0.52827  1.0000
  H   H900      1.0  0.77430  0.30707  0.79096  1.0000
  Fe  Fe116     1.0  0.68102  0.46156  0.99358  1.0000
  H   H901      1.0  0.64601  0.36950  0.79232  1.0000
  S   S237      1.0  0.68852  0.43583  0.96536  1.0000
  H   H902      1.0  0.61027  0.44131  0.97544  1.0000
  H   H903      1.0  0.58981  0.39165  0.97235  1.0000
  S   S238      1.0  0.64496  0.47920  0.99401  1.0000
  S   S239      1.0  0.69972  0.49494  0.00271  1.0000
  C   C569      1.0  0.54492  0.43838  0.00656  1.0000
  H   H904      1.0  0.76394  0.34122  0.81555  1.0000
  Fe  Fe117     1.0  0.74809  0.45678  0.80105  1.0000
  S   S240      1.0  0.72345  0.44383  0.82837  1.0000
  H   H905      1.0  0.63886  0.39544  0.01242  1.0000
  Fe  Fe118     1.0  0.75534  0.44410  0.85011  1.0000
  H   H906      1.0  0.77294  0.37075  0.80764  1.0000
  Fe  Fe119     1.0  0.73627  0.40686  0.81936  1.0000
  C   C570      1.0  0.77565  0.04536  0.77971  1.0000
  S   S241      1.0  0.75680  0.46183  0.88358  1.0000
  C   C571      1.0  0.63757  0.38715  0.96823  1.0000
  S   S242      1.0  0.76612  0.40581  0.84369  1.0000
  C   C572      1.0  0.62054  0.42718  0.96657  1.0000
  H   H907      1.0  0.55988  0.46254  0.98193  1.0000
  H   H908      1.0  0.63786  0.43497  0.96161  1.0000
  H   H909      1.0  0.62478  0.37338  0.81443  1.0000
  H   H910      1.0  0.63305  0.32764  0.78897  1.0000
  N   N54       1.0  0.62379  0.40532  0.98071  1.0000
  C   C573      1.0  0.61451  0.33393  0.79228  1.0000
  H   H911      1.0  0.60220  0.37914  0.99761  1.0000
  S   S243      1.0  0.77939  0.45930  0.82329  1.0000
  C   C574      1.0  0.69202  0.34642  0.78732  1.0000
  C   C575      1.0  0.70702  0.44377  0.94245  1.0000
  C   C576      1.0  0.70786  0.42916  0.92374  1.0000
  C   C577      1.0  0.72265  0.43473  0.90538  1.0000
  C   C578      1.0  0.73699  0.45481  0.90573  1.0000
  C   C579      1.0  0.73626  0.46932  0.92447  1.0000
  C   C580      1.0  0.72121  0.46396  0.94268  1.0000
  H   H912      1.0  0.69698  0.41349  0.92343  1.0000
  H   H913      1.0  0.72307  0.42339  0.89106  1.0000
  H   H914      1.0  0.74729  0.48488  0.92491  1.0000
  H   H915      1.0  0.72078  0.47532  0.95698  1.0000
  H   H916      1.0  0.76297  0.05377  0.79086  1.0000
  S   S244      1.0  0.71515  0.37321  0.81726  1.0000
  C   C581      1.0  0.58214  0.45886  0.01067  1.0000
  H   H917      1.0  0.61107  0.33170  0.81044  1.0000
  C   C582      1.0  0.70207  0.36860  0.79146  1.0000
  Fe  Fe120     1.0  0.66327  0.51175  0.00567  1.0000
  H   H918      1.0  0.65526  0.39404  0.96308  1.0000
  C   C583      1.0  0.56206  0.45411  0.99818  1.0000
  C   C584      1.0  0.60041  0.39580  0.98715  1.0000
  H   H919      1.0  0.69212  0.33245  0.80013  1.0000
  H   H920      1.0  0.58207  0.36555  0.80771  1.0000
  H   H921      1.0  0.59517  0.47114  0.00419  1.0000
  C   C585      1.0  0.58603  0.36671  0.78956  1.0000
  S   S245      1.0  0.75816  0.41955  0.79033  1.0000
  H   H922      1.0  0.62480  0.39378  0.79078  1.0000
  H   H923      1.0  0.64071  0.37054  0.97850  1.0000
  C   C586      1.0  0.63677  0.41123  0.00090  1.0000
  N   N55       1.0  0.78035  0.34427  0.78314  1.0000
  H   H924      1.0  0.62745  0.42561  0.01026  1.0000
  N   N56       1.0  0.61071  0.35909  0.78459  1.0000
  H   H925      1.0  0.61093  0.42340  0.95110  1.0000
  H   H926      1.0  0.65478  0.41768  0.99670  1.0000
  H   H927      1.0  0.62831  0.38214  0.95291  1.0000
  C   C587      1.0  0.77796  0.35144  0.80654  1.0000
  H   H928      1.0  0.78183  0.41800  0.89242  1.0000
  H   H929      1.0  0.74326  0.33734  0.78024  1.0000
  H   H930      1.0  0.58988  0.40897  0.99703  1.0000
  C   C588      1.0  0.62723  0.37463  0.79607  1.0000
  H   H931      1.0  0.58241  0.38550  0.78371  1.0000
  H   H932      1.0  0.60253  0.32167  0.78367  1.0000
  H   H933      1.0  0.57324  0.35509  0.78118  1.0000
  S   S246      1.0  0.73319  0.48603  0.77785  1.0000
  H   H934      1.0  0.70961  0.40374  0.77791  1.0000
  Fe  Fe121     1.0  0.57918  0.70538  0.05132  1.0000
  S   S247      1.0  0.57330  0.73172  0.07920  1.0000
  S   S248      1.0  0.57993  0.66533  0.05558  1.0000
  H   H935      1.0  0.56872  0.72703  0.20643  1.0000
  S   S249      1.0  0.76164  0.94405  0.19805  1.0000
  C   C589      1.0  0.66469  0.70455  0.26329  1.0000
  S   S250      1.0  0.75293  0.98254  0.25315  1.0000
  H   H936      1.0  0.72860  0.72078  0.23337  1.0000
  S   S251      1.0  0.75459  0.87208  0.21574  1.0000
  Fe  Fe122     1.0  0.64206  0.76313  0.24247  1.0000
  S   S252      1.0  0.62015  0.79749  0.24301  1.0000
  H   H937      1.0  0.68334  0.89356  0.26833  1.0000
  Fe  Fe123     1.0  0.62957  0.75322  0.19457  1.0000
  S   S253      1.0  0.60743  0.78677  0.19152  1.0000
  S   S254      1.0  0.63509  0.72713  0.16665  1.0000
  Fe  Fe124     1.0  0.63677  0.80451  0.20934  1.0000
  S   S255      1.0  0.64970  0.84033  0.19556  1.0000
  Fe  Fe125     1.0  0.59294  0.77636  0.22533  1.0000
  S   S256      1.0  0.55278  0.77480  0.22709  1.0000
  S   S257      1.0  0.66017  0.77150  0.20988  1.0000
  S   S258      1.0  0.61372  0.74151  0.22735  1.0000
  H   H938      1.0  0.75807  0.56055  0.23106  1.0000
  H   H939      1.0  0.64485  0.77540  0.15422  1.0000
  C   C590      1.0  0.64736  0.79429  0.11265  1.0000
  H   H940      1.0  0.65453  0.70926  0.24866  1.0000
  C   C591      1.0  0.75601  0.75040  0.25641  1.0000
  C   C592      1.0  0.72510  0.91634  0.26877  1.0000
  C   C593      1.0  0.76755  0.56267  0.26558  1.0000
  C   C594      1.0  0.72547  0.86380  0.20933  1.0000
  C   C595      1.0  0.71026  0.87845  0.19646  1.0000
  C   C596      1.0  0.68703  0.87113  0.19240  1.0000
  C   C597      1.0  0.67887  0.84915  0.20111  1.0000
  C   C598      1.0  0.69409  0.83456  0.21393  1.0000
  C   C599      1.0  0.71726  0.84183  0.21795  1.0000
  H   H941      1.0  0.71647  0.89524  0.18942  1.0000
  H   H942      1.0  0.67539  0.88249  0.18238  1.0000
  H   H943      1.0  0.68801  0.81766  0.22082  1.0000
  H   H944      1.0  0.72888  0.83041  0.22793  1.0000
  C   C600      1.0  0.76224  0.55043  0.24612  1.0000
  C   C601      1.0  0.68983  0.94092  0.26332  1.0000
  C   C602      1.0  0.72672  0.72020  0.25179  1.0000
  C   C603      1.0  0.68149  0.55732  0.26719  1.0000
  C   C604      1.0  0.59128  0.73061  0.10294  1.0000
  C   C605      1.0  0.58807  0.74828  0.11899  1.0000
  C   C606      1.0  0.60138  0.74743  0.13857  1.0000
  C   C607      1.0  0.61820  0.72901  0.14215  1.0000
  C   C608      1.0  0.62167  0.71156  0.12596  1.0000
  C   C609      1.0  0.60824  0.71231  0.10643  1.0000
  H   H945      1.0  0.57498  0.76250  0.11632  1.0000
  H   H946      1.0  0.59844  0.76087  0.15092  1.0000
  H   H947      1.0  0.63468  0.69726  0.12858  1.0000
  H   H948      1.0  0.61087  0.69862  0.09415  1.0000
  C   C610      1.0  0.54587  0.78561  0.27151  1.0000
  H   H949      1.0  0.70004  0.95767  0.26497  1.0000
  C   C611      1.0  0.56807  0.72965  0.18805  1.0000
  N   N57       1.0  0.70484  0.92149  0.25400  1.0000
  H   H950      1.0  0.66717  0.66685  0.25609  1.0000
  H   H951      1.0  0.64074  0.80625  0.09890  1.0000
  C   C612      1.0  0.67193  0.68057  0.26748  1.0000
  H   H952      1.0  0.76370  0.68981  0.26094  1.0000
  H   H953      1.0  0.67483  0.78248  0.14731  1.0000
  H   H954      1.0  0.76750  0.58205  0.26544  1.0000
  C   C613      1.0  0.69085  0.89958  0.25200  1.0000
  N   N58       1.0  0.64864  0.80720  0.13374  1.0000
  C   C614      1.0  0.62487  0.81675  0.13979  1.0000
  C   C615      1.0  0.65715  0.79047  0.15145  1.0000
  C   C616      1.0  0.66519  0.82725  0.13120  1.0000
  H   H955      1.0  0.62511  0.82625  0.15585  1.0000
  H   H956      1.0  0.61186  0.80216  0.14164  1.0000
  H   H957      1.0  0.61805  0.82974  0.12695  1.0000
  H   H958      1.0  0.63520  0.77886  0.11422  1.0000
  H   H959      1.0  0.65877  0.79973  0.16749  1.0000
  H   H960      1.0  0.68339  0.82072  0.12690  1.0000
  H   H961      1.0  0.66635  0.83731  0.14693  1.0000
  H   H962      1.0  0.65942  0.84028  0.11794  1.0000
  N   N59       1.0  0.57740  0.57793  0.03287  1.0000
  H   H963      1.0  0.72609  0.91545  0.22481  1.0000
  H   H964      1.0  0.54745  0.74543  0.15027  1.0000
  Fe  Fe126     1.0  0.77453  0.95830  0.23033  1.0000
  H   H965      1.0  0.66501  0.78691  0.10752  1.0000
  H   H966      1.0  0.55940  0.71568  0.14661  1.0000
  H   H967      1.0  0.58319  0.71928  0.18067  1.0000
  S   S259      1.0  0.66413  0.75285  0.27237  1.0000
  N   N60       1.0  0.74915  0.72570  0.26271  1.0000
  H   H968      1.0  0.69911  0.93218  0.21984  1.0000
  H   H969      1.0  0.69927  0.60196  0.26107  1.0000
  C   C617      1.0  0.59444  0.55761  0.03584  1.0000
  H   H970      1.0  0.56448  0.78968  0.27183  1.0000
  C   C618      1.0  0.76790  0.70853  0.25561  1.0000
  C   C619      1.0  0.76521  0.00954  0.26222  1.0000
  H   H971      1.0  0.57273  0.61414  0.04375  1.0000
  H   H972      1.0  0.58670  0.59408  0.06358  1.0000
  Fe  Fe127     1.0  0.77332  0.90764  0.21152  1.0000
  H   H973      1.0  0.75858  0.75257  0.23812  1.0000
  Fe  Fe128     1.0  0.61082  0.66590  0.03187  1.0000
  H   H974      1.0  0.66878  0.55922  0.03126  1.0000
  C   C620      1.0  0.53590  0.77778  0.25193  1.0000
  H   H975      1.0  0.70195  0.88445  0.24559  1.0000
  H   H976      1.0  0.69233  0.54735  0.25469  1.0000
  C   C621      1.0  0.58529  0.59857  0.04554  1.0000
  C   C622      1.0  0.71076  0.58793  0.26923  1.0000
  H   H977      1.0  0.55404  0.56572  0.05904  1.0000
  H   H978      1.0  0.73617  0.93247  0.27040  1.0000
  H   H979      1.0  0.67590  0.90246  0.24029  1.0000
  N   N61       1.0  0.54514  0.72228  0.17929  1.0000
  H   H980      1.0  0.66558  0.59770  0.05122  1.0000
  H   H981      1.0  0.71242  0.73338  0.25619  1.0000
  H   H982      1.0  0.70221  0.54621  0.15750  1.0000
  H   H983      1.0  0.72141  0.57906  0.25600  1.0000
  H   H984      1.0  0.61246  0.56249  0.02990  1.0000
  H   H985      1.0  0.77283  0.75519  0.26445  1.0000
  S   S260      1.0  0.64325  0.64309  0.03981  1.0000
  H   H986      1.0  0.72048  0.70205  0.25686  1.0000
  H   H987      1.0  0.59594  0.55187  0.05361  1.0000
  H   H988      1.0  0.77037  0.70892  0.23725  1.0000
  H   H989      1.0  0.57108  0.74901  0.18447  1.0000
  C   C623      1.0  0.71374  0.92917  0.23184  1.0000
  H   H990      1.0  0.73676  0.90169  0.26215  1.0000
  H   H991      1.0  0.67447  0.94536  0.25247  1.0000
  H   H992      1.0  0.60290  0.60471  0.03967  1.0000
  H   H993      1.0  0.55613  0.68527  0.17721  1.0000
  H   H994      1.0  0.66925  0.56980  0.25797  1.0000
  H   H995      1.0  0.54052  0.58586  0.03897  1.0000
  H   H996      1.0  0.72353  0.94622  0.23264  1.0000
  C   C624      1.0  0.65854  0.59657  0.03466  1.0000
  H   H997      1.0  0.74215  0.76377  0.26155  1.0000
  H   H998      1.0  0.67059  0.54396  0.27649  1.0000
  C   C625      1.0  0.55375  0.57082  0.04106  1.0000
  C   C626      1.0  0.54495  0.72620  0.15492  1.0000
  H   H999      1.0  0.54185  0.69305  0.20299  1.0000
  H   H1000     1.0  0.72911  0.54109  0.17278  1.0000
  S   S261      1.0  0.61197  0.70603  0.03004  1.0000
  C   C627      1.0  0.54176  0.69658  0.18469  1.0000
  H   H1001     1.0  0.54720  0.55531  0.03188  1.0000
  C   C628      1.0  0.68008  0.66457  0.47106  1.0000
  S   S262      1.0  0.64372  0.58635  0.49784  1.0000
  C   C629      1.0  0.71272  0.55323  0.29403  1.0000
  H   H1002     1.0  0.66984  0.62139  0.45641  1.0000
  Fe  Fe129     1.0  0.68294  0.58330  0.49332  1.0000
  S   S263      1.0  0.69296  0.57317  0.45817  1.0000
  H   H1003     1.0  0.64504  0.63247  0.47219  1.0000
  Fe  Fe130     1.0  0.75326  0.63492  0.35558  1.0000
  S   S264      1.0  0.75062  0.64196  0.39258  1.0000
  Fe  Fe131     1.0  0.72891  0.63984  0.31052  1.0000
  H   H1004     1.0  0.64884  0.69544  0.45193  1.0000
  H   H1005     1.0  0.53994  0.66308  0.47733  1.0000
  N   N62       1.0  0.69667  0.57044  0.28229  1.0000
  H   H1006     1.0  0.68880  0.72982  0.30821  1.0000
  S   S265      1.0  0.73376  0.60907  0.33492  1.0000
  S   S266      1.0  0.74523  0.66632  0.33260  1.0000
  H   H1007     1.0  0.68280  0.68018  0.42869  1.0000
  C   C630      1.0  0.64307  0.67658  0.45415  1.0000
  H   H1008     1.0  0.60442  0.60705  0.52621  1.0000
  H   H1009     1.0  0.73708  0.01659  0.28589  1.0000
  H   H1010     1.0  0.69058  0.64882  0.42986  1.0000
  H   H1011     1.0  0.63365  0.67524  0.47052  1.0000
  C   C631      1.0  0.67554  0.66194  0.43134  1.0000
  Fe  Fe132     1.0  0.65036  0.61771  0.51887  1.0000
  C   C632      1.0  0.75376  0.02264  0.27905  1.0000
  C   C633      1.0  0.65490  0.63473  0.45619  1.0000
  C   C634      1.0  0.74594  0.72372  0.28709  1.0000
  C   C635      1.0  0.59108  0.62114  0.52447  1.0000
  C   C636      1.0  0.70952  0.59224  0.44034  1.0000
  C   C637      1.0  0.72181  0.61158  0.44841  1.0000
  C   C638      1.0  0.73460  0.62654  0.43362  1.0000
  C   C639      1.0  0.73506  0.62232  0.41070  1.0000
  C   C640      1.0  0.72280  0.60294  0.40268  1.0000
  C   C641      1.0  0.71015  0.58792  0.41747  1.0000
  H   H1012     1.0  0.72182  0.61475  0.46606  1.0000
  H   H1013     1.0  0.74423  0.64137  0.43998  1.0000
  H   H1014     1.0  0.72313  0.59945  0.38510  1.0000
  H   H1015     1.0  0.70080  0.57291  0.41112  1.0000
  H   H1016     1.0  0.77400  0.68218  0.37178  1.0000
  H   H1017     1.0  0.54220  0.65287  0.42833  1.0000
  H   H1018     1.0  0.53943  0.79481  0.30573  1.0000
  H   H1019     1.0  0.69563  0.65196  0.47089  1.0000
  N   N63       1.0  0.66341  0.65947  0.45317  1.0000
  S   S267      1.0  0.69561  0.64457  0.29051  1.0000
  H   H1020     1.0  0.56063  0.63884  0.44928  1.0000
  H   H1021     1.0  0.72320  0.59739  0.27997  1.0000
  H   H1022     1.0  0.67141  0.66279  0.48776  1.0000
  H   H1023     1.0  0.66336  0.65863  0.41744  1.0000
  H   H1024     1.0  0.64285  0.62988  0.44266  1.0000
  S   S268      1.0  0.68954  0.61669  0.51204  1.0000
  H   H1025     1.0  0.73173  0.73624  0.29302  1.0000
  H   H1026     1.0  0.69269  0.59351  0.31017  1.0000
  C   C642      1.0  0.68418  0.71611  0.29675  1.0000
  S   S269      1.0  0.68754  0.55834  0.52298  1.0000
  C   C643      1.0  0.54351  0.63753  0.44050  1.0000
  S   S270      1.0  0.76237  0.63236  0.29131  1.0000
  H   H1027     1.0  0.62996  0.67313  0.44107  1.0000
  H   H1028     1.0  0.68683  0.68311  0.46942  1.0000
  H   H1029     1.0  0.54227  0.61864  0.48229  1.0000
  H   H1030     1.0  0.70176  0.68764  0.31541  1.0000
  H   H1031     1.0  0.68282  0.93586  0.28011  1.0000
  H   H1032     1.0  0.74100  0.70523  0.29245  1.0000
  Fe  Fe133     1.0  0.76851  0.60313  0.31702  1.0000
  C   C644      1.0  0.69168  0.69226  0.30076  1.0000
  C   C645      1.0  0.68571  0.67445  0.28608  1.0000
  C   C646      1.0  0.68172  0.58331  0.29866  1.0000
  H   H1033     1.0  0.67080  0.57078  0.30887  1.0000
  H   H1034     1.0  0.76253  0.72782  0.29586  1.0000
  H   H1035     1.0  0.54256  0.67137  0.51956  1.0000
  S   S271      1.0  0.62743  0.65083  0.51298  1.0000
  H   H1036     1.0  0.54416  0.62069  0.43098  1.0000
  C   C647      1.0  0.77311  0.54976  0.28512  1.0000
  H   H1037     1.0  0.72520  0.56255  0.30489  1.0000
  C   C648      1.0  0.59751  0.64447  0.51846  1.0000
  C   C649      1.0  0.54969  0.63388  0.52666  1.0000
  C   C650      1.0  0.55602  0.65732  0.52075  1.0000
  H   H1038     1.0  0.58486  0.68072  0.51208  1.0000
  C   C651      1.0  0.57995  0.66258  0.51654  1.0000
  S   S272      1.0  0.77853  0.56429  0.31033  1.0000
  H   H1039     1.0  0.66959  0.59668  0.29036  1.0000
  H   H1040     1.0  0.64827  0.54117  0.46917  1.0000
  H   H1041     1.0  0.71913  0.91061  0.28572  1.0000
  Fe  Fe134     1.0  0.77944  0.65664  0.31542  1.0000
  H   H1042     1.0  0.72363  0.54259  0.28211  1.0000
  H   H1043     1.0  0.70280  0.54026  0.30470  1.0000
  H   H1044     1.0  0.78212  0.71311  0.37197  1.0000
  C   C652      1.0  0.67088  0.72237  0.27792  1.0000
  Fe  Fe135     1.0  0.74673  0.64631  0.73682  1.0000
  N   N64       1.0  0.75330  0.54999  0.66242  1.0000
  H   H1045     1.0  0.69212  0.78911  0.75647  1.0000
  Fe  Fe136     1.0  0.73791  0.62943  0.68988  1.0000
  S   S273      1.0  0.70659  0.62304  0.66791  1.0000
  H   H1046     1.0  0.55326  0.77171  0.73324  1.0000
  H   H1047     1.0  0.63915  0.66710  0.68449  1.0000
  S   S274      1.0  0.73616  0.61110  0.72347  1.0000
  S   S275      1.0  0.74507  0.66556  0.70366  1.0000
  Fe  Fe137     1.0  0.69103  0.59218  0.54250  1.0000
  S   S276      1.0  0.72127  0.59588  0.56657  1.0000
  H   H1048     1.0  0.77516  0.55179  0.63287  1.0000
  S   S277      1.0  0.65217  0.59593  0.55068  1.0000
  H   H1049     1.0  0.69126  0.82026  0.76297  1.0000
  H   H1050     1.0  0.57532  0.77857  0.76783  1.0000
  H   H1051     1.0  0.76467  0.97335  0.77302  1.0000
  H   H1052     1.0  0.69411  0.69062  0.70814  1.0000
  H   H1053     1.0  0.71882  0.56726  0.66221  1.0000
  H   H1054     1.0  0.72818  0.55589  0.68904  1.0000
  C   C653      1.0  0.71080  0.61648  0.63952  1.0000
  C   C654      1.0  0.69127  0.61021  0.62692  1.0000
  C   C655      1.0  0.69414  0.60424  0.60444  1.0000
  C   C656      1.0  0.71661  0.60437  0.59443  1.0000
  C   C657      1.0  0.73612  0.61073  0.60706  1.0000
  C   C658      1.0  0.73323  0.61691  0.62948  1.0000
  H   H1055     1.0  0.67384  0.60986  0.63454  1.0000
  H   H1056     1.0  0.67900  0.59931  0.59492  1.0000
  H   H1057     1.0  0.75354  0.61104  0.59938  1.0000
  H   H1058     1.0  0.74834  0.62211  0.63890  1.0000
  H   H1059     1.0  0.73206  0.99622  0.73715  1.0000
  H   H1060     1.0  0.71660  0.80766  0.74863  1.0000
  C   C659      1.0  0.69776  0.71969  0.75110  1.0000
  C   C660      1.0  0.71282  0.69932  0.75146  1.0000
  C   C661      1.0  0.76096  0.56221  0.64155  1.0000
  H   H1061     1.0  0.69834  0.73219  0.73708  1.0000
  H   H1062     1.0  0.72520  0.69637  0.73793  1.0000
  C   C662      1.0  0.72892  0.99993  0.75504  1.0000
  H   H1063     1.0  0.68998  0.63569  0.71142  1.0000
  S   S278      1.0  0.77615  0.61948  0.68422  1.0000
  H   H1064     1.0  0.67218  0.69532  0.68711  1.0000
  C   C663      1.0  0.71179  0.68282  0.76929  1.0000
  H   H1065     1.0  0.63835  0.66938  0.73498  1.0000
  H   H1066     1.0  0.74164  0.55874  0.73157  1.0000
  H   H1067     1.0  0.66255  0.68912  0.73770  1.0000
  H   H1068     1.0  0.63749  0.64166  0.70340  1.0000
  C   C664      1.0  0.54379  0.77763  0.74790  1.0000
  C   C665      1.0  0.77365  0.54711  0.67751  1.0000
  H   H1069     1.0  0.74066  0.58260  0.67716  1.0000
  H   H1070     1.0  0.66770  0.63567  0.73292  1.0000
  H   H1071     1.0  0.54218  0.73314  0.64093  1.0000
  H   H1072     1.0  0.69310  0.67073  0.68523  1.0000
  S   S279      1.0  0.72896  0.65612  0.76920  1.0000
  H   H1073     1.0  0.64114  0.69501  0.71645  1.0000
  H   H1074     1.0  0.76800  0.58026  0.64474  1.0000
  H   H1075     1.0  0.66027  0.64274  0.68235  1.0000
  C   C666      1.0  0.74953  0.96342  0.76650  1.0000
  N   N65       1.0  0.66560  0.66577  0.70987  1.0000
  C   C667      1.0  0.67938  0.64742  0.72263  1.0000
  C   C668      1.0  0.64988  0.65381  0.69438  1.0000
  C   C669      1.0  0.68195  0.68131  0.69704  1.0000
  C   C670      1.0  0.65125  0.68045  0.72537  1.0000
  H   H1076     1.0  0.69194  0.65575  0.73404  1.0000
  H   H1077     1.0  0.74390  0.01092  0.76045  1.0000
  H   H1078     1.0  0.74599  0.56483  0.62980  1.0000
  S   S280      1.0  0.66209  0.74852  0.76696  1.0000
  N   N66       1.0  0.72718  0.97749  0.76853  1.0000
  H   H1079     1.0  0.71251  0.01124  0.75640  1.0000
  H   H1080     1.0  0.75385  0.95927  0.74892  1.0000
  C   C671      1.0  0.77560  0.54528  0.74255  1.0000
  H   H1081     1.0  0.75953  0.59198  0.76545  1.0000
  C   C672      1.0  0.70745  0.96319  0.76058  1.0000
  C   C673      1.0  0.55634  0.78150  0.76750  1.0000
  C   C674      1.0  0.73440  0.56449  0.67320  1.0000
  H   H1082     1.0  0.78105  0.56475  0.68163  1.0000
  Fe  Fe138     1.0  0.77487  0.60382  0.71902  1.0000
  C   C675      1.0  0.70318  0.80412  0.76190  1.0000
  H   H1083     1.0  0.69026  0.97322  0.76187  1.0000
  C   C676      1.0  0.68175  0.72374  0.76868  1.0000
  H   H1084     1.0  0.54293  0.72146  0.66907  1.0000
  H   H1085     1.0  0.56250  0.59772  0.53314  1.0000
  H   H1086     1.0  0.71021  0.95825  0.74293  1.0000
  H   H1087     1.0  0.74864  0.94610  0.77603  1.0000
  H   H1088     1.0  0.74384  0.77909  0.76880  1.0000
  C   C677      1.0  0.75097  0.54492  0.74104  1.0000
  H   H1089     1.0  0.70573  0.94617  0.77058  1.0000
  Fe  Fe139     1.0  0.64858  0.56408  0.52888  1.0000
  C   C678      1.0  0.56727  0.61587  0.52849  1.0000
  H   H1090     1.0  0.71913  0.76089  0.77662  1.0000
  H   H1091     1.0  0.69541  0.67456  0.80103  1.0000
  H   H1092     1.0  0.70330  0.79009  0.81715  1.0000
  S   S281      1.0  0.58922  0.66308  0.00117  1.0000
  H   H1093     1.0  0.68269  0.88654  0.79424  1.0000
  Fe  Fe140     1.0  0.58768  0.70341  0.00091  1.0000
  S   S282      1.0  0.59614  0.73012  0.97282  1.0000
  C   C679      1.0  0.66590  0.67747  0.99543  1.0000
  H   H1094     1.0  0.73743  0.99409  0.79866  1.0000
  C   C680      1.0  0.64233  0.67847  0.96230  1.0000
  Fe  Fe141     1.0  0.62321  0.74736  0.84539  1.0000
  S   S283      1.0  0.61238  0.78570  0.85056  1.0000
  S   S284      1.0  0.61402  0.71653  0.86923  1.0000
  Fe  Fe142     1.0  0.64260  0.75892  0.79848  1.0000
  S   S285      1.0  0.63188  0.79796  0.80009  1.0000
  H   H1095     1.0  0.55113  0.77175  0.88474  1.0000
  Fe  Fe143     1.0  0.64720  0.79534  0.83433  1.0000
  S   S286      1.0  0.67502  0.81922  0.84881  1.0000
  Fe  Fe144     1.0  0.59813  0.78441  0.81577  1.0000
  S   S287      1.0  0.55972  0.79618  0.81099  1.0000
  S   S288      1.0  0.65927  0.75666  0.83207  1.0000
  S   S289      1.0  0.60769  0.74567  0.81123  1.0000
  H   H1096     1.0  0.78057  0.60334  0.82235  1.0000
  N   N67       1.0  0.54263  0.74500  0.86116  1.0000
  Fe  Fe145     1.0  0.76199  0.92128  0.81664  1.0000
  S   S290      1.0  0.72598  0.90994  0.80467  1.0000
  H   H1097     1.0  0.68785  0.66550  0.95717  1.0000
  H   H1098     1.0  0.64024  0.68579  0.94505  1.0000
  H   H1099     1.0  0.61174  0.76208  0.93825  1.0000
  H   H1100     1.0  0.64286  0.71860  0.98695  1.0000
  H   H1101     1.0  0.67375  0.72391  0.98292  1.0000
  C   C681      1.0  0.65108  0.57326  0.00210  1.0000
  C   C682      1.0  0.68885  0.84423  0.83583  1.0000
  C   C683      1.0  0.67907  0.85667  0.81753  1.0000
  C   C684      1.0  0.69061  0.87675  0.80810  1.0000
  C   C685      1.0  0.71207  0.88443  0.81674  1.0000
  C   C686      1.0  0.72199  0.87171  0.83477  1.0000
  C   C687      1.0  0.71037  0.85185  0.84432  1.0000
  H   H1102     1.0  0.66235  0.85120  0.81101  1.0000
  C   C688      1.0  0.54440  0.78982  0.78640  1.0000
  H   H1103     1.0  0.73840  0.87744  0.84167  1.0000
  H   H1104     1.0  0.71799  0.84243  0.85854  1.0000
  H   H1105     1.0  0.59352  0.59057  0.00241  1.0000
  N   N68       1.0  0.75679  0.58588  0.80077  1.0000
  H   H1106     1.0  0.57041  0.56963  0.99891  1.0000
  H   H1107     1.0  0.77802  0.61048  0.78140  1.0000
  C   C689      1.0  0.53926  0.72625  0.87864  1.0000
  S   S291      1.0  0.55450  0.70553  0.02212  1.0000
  H   H1108     1.0  0.66953  0.65782  0.99434  1.0000
  S   S292      1.0  0.76970  0.95924  0.82586  1.0000
  C   C690      1.0  0.60007  0.72590  0.94396  1.0000
  C   C691      1.0  0.59566  0.70408  0.93403  1.0000
  C   C692      1.0  0.60009  0.70142  0.91111  1.0000
  C   C693      1.0  0.60864  0.72061  0.89793  1.0000
  C   C694      1.0  0.61264  0.74251  0.90781  1.0000
  C   C695      1.0  0.60841  0.74510  0.93071  1.0000
  H   H1109     1.0  0.58895  0.68927  0.94400  1.0000
  H   H1110     1.0  0.59684  0.68444  0.90355  1.0000
  H   H1111     1.0  0.61924  0.75741  0.89787  1.0000
  H   H1112     1.0  0.74318  0.82248  0.77819  1.0000
  C   C696      1.0  0.68124  0.70768  0.78687  1.0000
  C   C697      1.0  0.68429  0.68500  0.95958  1.0000
  H   H1113     1.0  0.68077  0.68527  0.00451  1.0000
  H   H1114     1.0  0.76065  0.54797  0.79542  1.0000
  H   H1115     1.0  0.63330  0.59242  0.97543  1.0000
  H   H1116     1.0  0.64974  0.67972  0.00596  1.0000
  N   N69       1.0  0.71438  0.79833  0.78348  1.0000
  H   H1117     1.0  0.72562  0.60494  0.78918  1.0000
  H   H1118     1.0  0.55622  0.74773  0.82769  1.0000
  H   H1119     1.0  0.62944  0.63051  0.99559  1.0000
  H   H1120     1.0  0.56108  0.77806  0.85683  1.0000
  N   N70       1.0  0.66273  0.68900  0.97326  1.0000
  C   C698      1.0  0.65830  0.71504  0.97572  1.0000
  C   C699      1.0  0.55338  0.73406  0.84121  1.0000
  H   H1121     1.0  0.70608  0.99383  0.79431  1.0000
  S   S293      1.0  0.65097  0.54602  0.98815  1.0000
  C   C700      1.0  0.69579  0.79381  0.80037  1.0000
  C   C701      1.0  0.74662  0.56191  0.79845  1.0000
  H   H1122     1.0  0.57615  0.75553  0.87361  1.0000
  H   H1123     1.0  0.62553  0.68261  0.97141  1.0000
  C   C702      1.0  0.72962  0.77656  0.78152  1.0000
  C   C703      1.0  0.63811  0.61512  0.00339  1.0000
  H   H1124     1.0  0.76258  0.58095  0.83582  1.0000
  H   H1125     1.0  0.77944  0.01297  0.80011  1.0000
  H   H1126     1.0  0.70011  0.69242  0.96751  1.0000
  H   H1127     1.0  0.73658  0.55618  0.81363  1.0000
  H   H1128     1.0  0.64425  0.65861  0.96142  1.0000
  C   C704      1.0  0.69621  0.68721  0.78713  1.0000
  H   H1129     1.0  0.54195  0.72009  0.83448  1.0000
  C   C705      1.0  0.64040  0.59358  0.99197  1.0000
  C   C706      1.0  0.73748  0.60389  0.80382  1.0000
  C   C707      1.0  0.57608  0.58481  0.00904  1.0000
  H   H1130     1.0  0.56333  0.60006  0.00616  1.0000
  H   H1131     1.0  0.68253  0.69375  0.94282  1.0000
  C   C708      1.0  0.72287  0.98331  0.79208  1.0000
  H   H1132     1.0  0.66892  0.71071  0.80049  1.0000
  H   H1133     1.0  0.68336  0.80944  0.80176  1.0000
  H   H1134     1.0  0.65418  0.72413  0.95948  1.0000
  Fe  Fe146     1.0  0.55794  0.66523  0.02473  1.0000
  H   H1135     1.0  0.55648  0.71743  0.88326  1.0000
  C   C709      1.0  0.55843  0.76340  0.86946  1.0000
  H   H1136     1.0  0.57089  0.72545  0.84495  1.0000
  C   C710      1.0  0.64704  0.61662  0.02482  1.0000
  H   H1137     1.0  0.72159  0.96669  0.80271  1.0000
  H   H1138     1.0  0.68514  0.77820  0.79607  1.0000
  H   H1139     1.0  0.73659  0.81526  0.80693  1.0000
  C   C711      1.0  0.77246  0.58556  0.82022  1.0000
  H   H1140     1.0  0.73422  0.56166  0.78428  1.0000
  C   C712      1.0  0.66037  0.57481  0.02341  1.0000
  C   C713      1.0  0.72864  0.81872  0.79029  1.0000
  H   H1141     1.0  0.73810  0.77159  0.79763  1.0000
  C   C714      1.0  0.77063  0.59220  0.78054  1.0000
  H   H1142     1.0  0.72640  0.59960  0.81875  1.0000
  H   H1143     1.0  0.74452  0.62220  0.80577  1.0000
  H   H1144     1.0  0.71755  0.83541  0.79161  1.0000
  H   H1145     1.0  0.58927  0.54176  0.02630  1.0000
  Fe  Fe147     1.0  0.94904  0.18269  0.04466  1.0000
  S   S294      1.0  0.92827  0.18690  0.07705  1.0000
  H   H1146     1.0  0.91299  0.14260  0.06177  1.0000
  S   S295      1.0  0.97923  0.15601  0.04355  1.0000
  Fe  Fe148     1.0  0.89238  0.28263  0.20895  1.0000
  S   S296      1.0  0.89809  0.24664  0.19322  1.0000
  S   S297      1.0  0.85671  0.29964  0.20025  1.0000
  Fe  Fe149     1.0  0.94072  0.27946  0.23159  1.0000
  S   S298      1.0  0.94981  0.24380  0.21727  1.0000
  S   S299      1.0  0.96608  0.29765  0.25428  1.0000
  Fe  Fe150     1.0  0.93482  0.25906  0.18553  1.0000
  S   S300      1.0  0.95589  0.25757  0.15327  1.0000
  Fe  Fe151     1.0  0.91239  0.23489  0.22638  1.0000
  S   S301      1.0  0.90600  0.20024  0.24514  1.0000
  S   S302      1.0  0.92836  0.29587  0.19904  1.0000
  S   S303      1.0  0.90400  0.26967  0.24286  1.0000
  C   C715      1.0  0.79266  0.12223  0.23978  1.0000
  H   H1147     1.0  0.93244  0.07311  0.08798  1.0000
  S   S304      1.0  0.82315  0.40778  0.21557  1.0000
  C   C716      1.0  0.84791  0.32984  0.20448  1.0000
  C   C717      1.0  0.82505  0.33755  0.19822  1.0000
  C   C718      1.0  0.81730  0.36144  0.20119  1.0000
  C   C719      1.0  0.83237  0.37783  0.21055  1.0000
  C   C720      1.0  0.85528  0.37014  0.21671  1.0000
  C   C721      1.0  0.86304  0.34624  0.21372  1.0000
  H   H1148     1.0  0.81327  0.32500  0.19095  1.0000
  H   H1149     1.0  0.79974  0.36718  0.19611  1.0000
  H   H1150     1.0  0.86706  0.38275  0.22391  1.0000
  H   H1151     1.0  0.88069  0.34054  0.21857  1.0000
  C   C722      1.0  0.99735  0.25895  0.25812  1.0000
  C   C723      1.0  0.85914  0.21384  0.24791  1.0000
  C   C724      1.0  0.87706  0.19839  0.25590  1.0000
  H   H1152     1.0  0.78541  0.12035  0.22286  1.0000
  H   H1153     1.0  0.86300  0.22709  0.23500  1.0000
  C   C725      1.0  0.82005  0.15289  0.22826  1.0000
  H   H1154     1.0  0.02247  0.22930  0.26037  1.0000
  H   H1155     1.0  0.80965  0.16671  0.23754  1.0000
  H   H1156     1.0  0.82365  0.36367  0.25611  1.0000
  H   H1157     1.0  0.82202  0.22344  0.24967  1.0000
  H   H1158     1.0  0.83007  0.09267  0.23401  1.0000
  H   H1159     1.0  0.78669  0.37468  0.23571  1.0000
  N   N71       1.0  0.81783  0.12887  0.23896  1.0000
  Fe  Fe152     1.0  0.78563  0.42294  0.21171  1.0000
  H   H1160     1.0  0.98187  0.28329  0.18657  1.0000
  H   H1161     1.0  0.81085  0.33602  0.26535  1.0000
  C   C726      1.0  0.93662  0.20640  0.09810  1.0000
  C   C727      1.0  0.95520  0.22232  0.09504  1.0000
  C   C728      1.0  0.96101  0.23783  0.11213  1.0000
  C   C729      1.0  0.94845  0.23740  0.13242  1.0000
  C   C730      1.0  0.93002  0.22133  0.13556  1.0000
  C   C731      1.0  0.92405  0.20602  0.11840  1.0000
  H   H1162     1.0  0.96499  0.22275  0.07946  1.0000
  H   H1163     1.0  0.97533  0.25018  0.10957  1.0000
  H   H1164     1.0  0.92034  0.22067  0.15117  1.0000
  H   H1165     1.0  0.90968  0.19372  0.12089  1.0000
  C   C732      1.0  0.83161  0.11093  0.22622  1.0000
  H   H1166     1.0  0.80267  0.40217  0.26207  1.0000
  C   C733      1.0  0.82701  0.12943  0.26176  1.0000
  N   N72       1.0  0.78893  0.36748  0.27072  1.0000
  H   H1167     1.0  0.02963  0.29315  0.16523  1.0000
  C   C734      1.0  0.99275  0.28305  0.26273  1.0000
  H   H1168     1.0  0.91082  0.10239  0.11147  1.0000
  H   H1169     1.0  0.99095  0.28388  0.21492  1.0000
  H   H1170     1.0  0.98431  0.24873  0.24990  1.0000
  H   H1171     1.0  0.81643  0.14215  0.27203  1.0000
  N   N73       1.0  0.89139  0.29617  0.12894  1.0000
  C   C735      1.0  0.88122  0.30950  0.14786  1.0000
  C   C736      1.0  0.87752  0.30189  0.10878  1.0000
  C   C737      1.0  0.89062  0.27014  0.13397  1.0000
  C   C738      1.0  0.91625  0.30308  0.12518  1.0000
  H   H1172     1.0  0.89107  0.30541  0.16342  1.0000
  H   H1173     1.0  0.86245  0.30474  0.15127  1.0000
  H   H1174     1.0  0.88161  0.32925  0.14483  1.0000
  H   H1175     1.0  0.88483  0.29224  0.09415  1.0000
  H   H1176     1.0  0.85873  0.29666  0.11109  1.0000
  H   H1177     1.0  0.87753  0.32146  0.10461  1.0000
  H   H1178     1.0  0.90192  0.26512  0.14838  1.0000
  H   H1179     1.0  0.89729  0.25945  0.11970  1.0000
  H   H1180     1.0  0.87232  0.26436  0.13810  1.0000
  H   H1181     1.0  0.92483  0.29255  0.11167  1.0000
  H   H1182     1.0  0.92697  0.29966  0.14037  1.0000
  H   H1183     1.0  0.91756  0.32247  0.12065  1.0000
  N   N74       1.0  0.92404  0.10974  0.07841  1.0000
  C   C739      1.0  0.94665  0.11919  0.08609  1.0000
  C   C740      1.0  0.90575  0.11243  0.09599  1.0000
  C   C741      1.0  0.92733  0.08413  0.07308  1.0000
  C   C742      1.0  0.91644  0.12334  0.05831  1.0000
  H   H1184     1.0  0.96090  0.11702  0.07327  1.0000
  H   H1185     1.0  0.95274  0.10974  0.10154  1.0000
  H   H1186     1.0  0.88843  0.10562  0.09058  1.0000
  H   H1187     1.0  0.91090  0.07663  0.06630  1.0000
  C   C743      1.0  0.81239  0.35528  0.26938  1.0000
  H   H1188     1.0  0.94154  0.08164  0.06027  1.0000
  C   C744      1.0  0.99713  0.28658  0.19747  1.0000
  H   H1189     1.0  0.93032  0.12252  0.04510  1.0000
  H   H1190     1.0  0.82527  0.11005  0.20886  1.0000
  H   H1191     1.0  0.82631  0.11156  0.27027  1.0000
  C   C745      1.0  0.83070  0.19464  0.27290  1.0000
  H   H1192     1.0  0.84575  0.13503  0.26189  1.0000
  H   H1193     1.0  0.94500  0.13870  0.08955  1.0000
  H   H1194     1.0  0.90299  0.13165  0.10024  1.0000
  H   H1195     1.0  0.93999  0.22921  0.26800  1.0000
  H   H1196     1.0  0.89994  0.11618  0.05142  1.0000
  H   H1197     1.0  0.85074  0.11528  0.22552  1.0000
  C   C746      1.0  0.02462  0.27425  0.16876  1.0000
  H   H1198     1.0  0.83877  0.15875  0.22785  1.0000
  C   C747      1.0  0.87193  0.18144  0.27275  1.0000
  C   C748      1.0  0.83597  0.21181  0.25627  1.0000
  H   H1199     1.0  0.99546  0.24072  0.18549  1.0000
  C   C749      1.0  0.01898  0.24791  0.26419  1.0000
  H   H1200     1.0  0.81350  0.15322  0.21092  1.0000
  H   H1201     1.0  0.00548  0.24171  0.21365  1.0000
  H   H1202     1.0  0.00170  0.30580  0.19534  1.0000
  H   H1203     1.0  0.02559  0.23263  0.19205  1.0000
  N   N75       1.0  0.01751  0.27051  0.19229  1.0000
  C   C750      1.0  0.01071  0.24528  0.19603  1.0000
  H   H1204     1.0  0.00988  0.27012  0.15742  1.0000
  H   H1205     1.0  0.79014  0.10491  0.24909  1.0000
  H   H1206     1.0  0.81384  0.04402  0.25528  1.0000
  C   C751      1.0  0.79201  0.39309  0.27540  1.0000
  C   C752      1.0  0.00984  0.29588  0.27392  1.0000
  H   H1207     1.0  0.82824  0.14237  0.50842  1.0000
  S   S305      1.0  0.80092  0.07531  0.29029  1.0000
  S   S306      1.0  0.91264  0.08157  0.48792  1.0000
  H   H1208     1.0  0.88581  0.16960  0.27913  1.0000
  C   C753      1.0  0.93008  0.20394  0.30530  1.0000
  Fe  Fe153     1.0  0.87356  0.08995  0.48924  1.0000
  S   S307      1.0  0.84651  0.07810  0.46438  1.0000
  C   C754      1.0  0.01793  0.07475  0.52458  1.0000
  C   C755      1.0  0.84884  0.17981  0.28148  1.0000
  Fe  Fe154     1.0  0.79293  0.13714  0.35175  1.0000
  S   S308      1.0  0.81200  0.14562  0.38361  1.0000
  H   H1209     1.0  0.94667  0.25678  0.28106  1.0000
  H   H1210     1.0  0.95781  0.23403  0.32676  1.0000
  H   H1211     1.0  0.92349  0.19555  0.29004  1.0000
  S   S309      1.0  0.94618  0.13882  0.48173  1.0000
  S   S310      1.0  0.81456  0.13197  0.32053  1.0000
  C   C756      1.0  0.96415  0.15814  0.49626  1.0000
  S   S311      1.0  0.87815  0.12836  0.49787  1.0000
  H   H1212     1.0  0.92814  0.23621  0.33780  1.0000
  Fe  Fe155     1.0  0.78628  0.10651  0.31069  1.0000
  H   H1213     1.0  0.89387  0.23495  0.31230  1.0000
  N   N76       1.0  0.00291  0.09546  0.51730  1.0000
  S   S312      1.0  0.86974  0.07671  0.52483  1.0000
  N   N77       1.0  0.93048  0.23036  0.30266  1.0000
  H   H1214     1.0  0.89898  0.23236  0.28304  1.0000
  C   C757      1.0  0.99488  0.18777  0.51882  1.0000
  H   H1215     1.0  0.98939  0.16070  0.46922  1.0000
  H   H1216     1.0  0.97185  0.07429  0.51349  1.0000
  C   C758      1.0  0.81751  0.13487  0.49495  1.0000
  C   C759      1.0  0.83809  0.09648  0.44121  1.0000
  C   C760      1.0  0.84613  0.11989  0.43847  1.0000
  C   C761      1.0  0.83802  0.13455  0.42065  1.0000
  C   C762      1.0  0.82220  0.12587  0.40512  1.0000
  C   C763      1.0  0.81441  0.10232  0.40764  1.0000
  C   C764      1.0  0.82220  0.08776  0.42573  1.0000
  H   H1217     1.0  0.85855  0.12678  0.45006  1.0000
  H   H1218     1.0  0.84418  0.15272  0.41879  1.0000
  C   C765      1.0  0.97778  0.09043  0.52223  1.0000
  H   H1219     1.0  0.81589  0.06966  0.42772  1.0000
  C   C766      1.0  0.00049  0.18054  0.49731  1.0000
  H   H1220     1.0  0.82983  0.12529  0.48346  1.0000
  C   C767      1.0  0.95845  0.16529  0.51784  1.0000
  H   H1221     1.0  0.99902  0.13301  0.52406  1.0000
  C   C768      1.0  0.90625  0.23978  0.29845  1.0000
  H   H1222     1.0  0.99468  0.11501  0.48706  1.0000
  H   H1223     1.0  0.90587  0.25967  0.29632  1.0000
  Fe  Fe156     1.0  0.91690  0.11912  0.49951  1.0000
  C   C769      1.0  0.81104  0.09854  0.51656  1.0000
  H   H1224     1.0  0.91826  0.19827  0.31932  1.0000
  H   H1225     1.0  0.80122  0.39544  0.29137  1.0000
  H   H1226     1.0  0.80214  0.09547  0.39585  1.0000
  C   C770      1.0  0.98505  0.16599  0.48599  1.0000
  H   H1227     1.0  0.94807  0.19619  0.30852  1.0000
  H   H1228     1.0  0.96462  0.23033  0.28640  1.0000
  H   H1229     1.0  0.94019  0.26070  0.32158  1.0000
  N   N78       1.0  0.79939  0.11856  0.50406  1.0000
  C   C771      1.0  0.94612  0.23695  0.28371  1.0000
  S   S313      1.0  0.80109  0.19130  0.28148  1.0000
  H   H1230     1.0  0.00118  0.08378  0.48362  1.0000
  H   H1231     1.0  0.01647  0.18663  0.48913  1.0000
  H   H1232     1.0  0.82207  0.35631  0.28527  1.0000
  H   H1233     1.0  0.84501  0.16687  0.29464  1.0000
  C   C772      1.0  0.03153  0.28478  0.28012  1.0000
  C   C773      1.0  0.00609  0.09973  0.49312  1.0000
  H   H1234     1.0  0.79764  0.09873  0.47399  1.0000
  H   H1235     1.0  0.82297  0.08786  0.50555  1.0000
  C   C774      1.0  0.78583  0.10895  0.48557  1.0000
  C   C775      1.0  0.93952  0.24077  0.32313  1.0000
  Fe  Fe157     1.0  0.79155  0.16105  0.30544  1.0000
  H   H1236     1.0  0.96603  0.10572  0.51682  1.0000
  Fe  Fe158     1.0  0.90937  0.07223  0.52417  1.0000
  H   H1237     1.0  0.79793  0.08604  0.52401  1.0000
  H   H1238     1.0  0.02475  0.10405  0.48881  1.0000
  H   H1239     1.0  0.80946  0.15018  0.48530  1.0000
  C   C776      1.0  0.78336  0.13190  0.51918  1.0000
  C   C777      1.0  0.78581  0.05106  0.27902  1.0000
  H   H1240     1.0  0.01328  0.05818  0.51584  1.0000
  H   H1241     1.0  0.02876  0.12133  0.52583  1.0000
  H   H1242     1.0  0.94225  0.15940  0.52579  1.0000
  H   H1243     1.0  0.78297  0.35759  0.30505  1.0000
  H   H1244     1.0  0.00643  0.31453  0.27764  1.0000
  C   C778      1.0  0.79849  0.35897  0.77174  1.0000
  S   S314      1.0  0.85248  0.13608  0.55679  1.0000
  C   C779      1.0  0.97370  0.18037  0.52901  1.0000
  Fe  Fe159     1.0  0.79920  0.11269  0.67543  1.0000
  S   S315      1.0  0.81083  0.08989  0.64635  1.0000
  Fe  Fe160     1.0  0.81975  0.14530  0.70988  1.0000
  S   S316      1.0  0.85535  0.16046  0.71780  1.0000
  C   C780      1.0  0.99359  0.28304  0.76527  1.0000
  S   S317      1.0  0.81804  0.10533  0.70761  1.0000
  C   C781      1.0  0.00771  0.27612  0.74701  1.0000
  H   H1245     1.0  0.86059  0.12842  0.68214  1.0000
  N   N79       1.0  0.87725  0.14436  0.65322  1.0000
  H   H1246     1.0  0.99983  0.26670  0.73359  1.0000
  H   H1247     1.0  0.84418  0.16000  0.64223  1.0000
  S   S318      1.0  0.93172  0.04285  0.54047  1.0000
  C   C782      1.0  0.85684  0.17990  0.74035  1.0000
  H   H1248     1.0  0.84692  0.10743  0.76569  1.0000
  H   H1249     1.0  0.85412  0.17058  0.66837  1.0000
  C   C783      1.0  0.79929  0.04679  0.74596  1.0000
  H   H1250     1.0  0.89288  0.15720  0.68288  1.0000
  H   H1251     1.0  0.78828  0.53622  0.67000  1.0000
  C   C784      1.0  0.87897  0.18722  0.74758  1.0000
  H   H1252     1.0  0.81921  0.18257  0.74575  1.0000
  H   H1253     1.0  0.86942  0.13121  0.62096  1.0000
  H   H1254     1.0  0.90710  0.16691  0.65747  1.0000
  C   C785      1.0  0.86596  0.12390  0.66489  1.0000
  C   C786      1.0  0.84080  0.12285  0.58144  1.0000
  C   C787      1.0  0.82706  0.13703  0.59590  1.0000
  C   C788      1.0  0.81774  0.12715  0.61582  1.0000
  C   C789      1.0  0.82192  0.10293  0.62134  1.0000
  C   C790      1.0  0.83549  0.08872  0.60679  1.0000
  C   C791      1.0  0.84502  0.09864  0.58697  1.0000
  H   H1255     1.0  0.82363  0.15575  0.59168  1.0000
  H   H1256     1.0  0.89773  0.20720  0.77185  1.0000
  H   H1257     1.0  0.83879  0.06996  0.61094  1.0000
  H   H1258     1.0  0.85561  0.08755  0.57599  1.0000
  H   H1259     1.0  0.78947  0.31258  0.76497  1.0000
  H   H1260     1.0  0.82195  0.10518  0.53030  1.0000
  H   H1261     1.0  0.01693  0.23343  0.57589  1.0000
  H   H1262     1.0  0.89783  0.12201  0.63122  1.0000
  H   H1263     1.0  0.86806  0.18058  0.64292  1.0000
  C   C792      1.0  0.78747  0.52697  0.75472  1.0000
  C   C793      1.0  0.88472  0.13720  0.63066  1.0000
  H   H1264     1.0  0.80489  0.05604  0.73084  1.0000
  C   C794      1.0  0.03207  0.28092  0.74613  1.0000
  H   H1265     1.0  0.89281  0.15232  0.62109  1.0000
  H   H1266     1.0  0.84972  0.11857  0.65630  1.0000
  C   C795      1.0  0.83634  0.18752  0.75158  1.0000
  S   S319      1.0  0.80366  0.15233  0.67652  1.0000
  C   C796      1.0  0.89809  0.15154  0.66582  1.0000
  C   C797      1.0  0.86017  0.16478  0.65160  1.0000
  H   H1267     1.0  0.87799  0.10786  0.66586  1.0000
  H   H1268     1.0  0.83334  0.13446  0.75466  1.0000
  C   C798      1.0  0.83799  0.20171  0.77040  1.0000
  H   H1269     1.0  0.80656  0.52704  0.75582  1.0000
  H   H1270     1.0  0.96925  0.18600  0.54564  1.0000
  H   H1271     1.0  0.89491  0.18151  0.73888  1.0000
  Fe  Fe161     1.0  0.87632  0.11483  0.53342  1.0000
  H   H1272     1.0  0.80703  0.13818  0.62674  1.0000
  S   S320      1.0  0.96350  0.27469  0.76637  1.0000
  H   H1273     1.0  0.91123  0.13649  0.66763  1.0000
  H   H1274     1.0  0.00766  0.11450  0.54749  1.0000
  H   H1275     1.0  0.80076  0.35416  0.75401  1.0000
  S   S321      1.0  0.91578  0.10946  0.53584  1.0000
  H   H1276     1.0  0.81676  0.10747  0.75689  1.0000
  H   H1277     1.0  0.79330  0.13920  0.53330  1.0000
  S   S322      1.0  0.78534  0.14912  0.72860  1.0000
  H   H1278     1.0  0.00912  0.27727  0.58164  1.0000
  H   H1279     1.0  0.01433  0.26061  0.54377  1.0000
  C   C799      1.0  0.00988  0.11700  0.52921  1.0000
  H   H1280     1.0  0.01582  0.07097  0.54273  1.0000
  S   S323      1.0  0.01447  0.20574  0.53308  1.0000
  H   H1281     1.0  0.97452  0.08710  0.54030  1.0000
  C   C800      1.0  0.88062  0.20176  0.76623  1.0000
  C   C801      1.0  0.83014  0.11824  0.76529  1.0000
  C   C802      1.0  0.02859  0.27976  0.58201  1.0000
  H   H1282     1.0  0.79373  0.37846  0.77218  1.0000
  H   H1283     1.0  0.78404  0.49466  0.77511  1.0000
  H   H1284     1.0  0.80321  0.15665  0.77660  1.0000
  C   C803      1.0  0.78278  0.05772  0.76017  1.0000
  Fe  Fe162     1.0  0.78236  0.10925  0.72395  1.0000
  H   H1285     1.0  0.00354  0.23449  0.77711  1.0000
  H   H1286     1.0  0.91379  0.22644  0.88830  1.0000
  H   H1287     1.0  0.83285  0.44836  0.86507  1.0000
  S   S324      1.0  0.98022  0.16405  0.98892  1.0000
  H   H1288     1.0  0.99315  0.30142  0.79624  1.0000
  H   H1289     1.0  0.98661  0.21613  0.90639  1.0000
  Fe  Fe163     1.0  0.94997  0.19038  0.99390  1.0000
  S   S325      1.0  0.92780  0.20925  0.96722  1.0000
  C   C804      1.0  0.01923  0.23055  0.78773  1.0000
  Fe  Fe164     1.0  0.93534  0.24873  0.84273  1.0000
  S   S326      1.0  0.94424  0.28603  0.83088  1.0000
  S   S327      1.0  0.96050  0.23105  0.86765  1.0000
  Fe  Fe165     1.0  0.89407  0.24582  0.81031  1.0000
  S   S328      1.0  0.90003  0.28279  0.79595  1.0000
  C   C805      1.0  0.93770  0.05907  0.01758  1.0000
  Fe  Fe166     1.0  0.93893  0.27212  0.79662  1.0000
  C   C806      1.0  0.79920  0.40834  0.89424  1.0000
  Fe  Fe167     1.0  0.90477  0.29337  0.83138  1.0000
  S   S329      1.0  0.88641  0.32333  0.85057  1.0000
  S   S330      1.0  0.93231  0.23424  0.80846  1.0000
  S   S331      1.0  0.89650  0.25691  0.84576  1.0000
  H   H1290     1.0  0.97435  0.20735  0.94554  1.0000
  S   S332      1.0  0.82303  0.40542  0.80422  1.0000
  C   C807      1.0  0.00392  0.29552  0.78235  1.0000
  H   H1291     1.0  0.92371  0.26986  0.88310  1.0000
  H   H1292     1.0  0.94033  0.26777  0.93061  1.0000
  H   H1293     1.0  0.90289  0.32167  0.91577  1.0000
  C   C808      1.0  0.91413  0.09492  0.00952  1.0000
  C   C809      1.0  0.86729  0.34422  0.83672  1.0000
  C   C810      1.0  0.84779  0.35425  0.84825  1.0000
  C   C811      1.0  0.83341  0.37232  0.83819  1.0000
  C   C812      1.0  0.83900  0.38114  0.81684  1.0000
  C   C813      1.0  0.85827  0.37087  0.80525  1.0000
  C   C814      1.0  0.87215  0.35226  0.81500  1.0000
  H   H1294     1.0  0.84384  0.34798  0.86501  1.0000
  H   H1295     1.0  0.81831  0.37969  0.84706  1.0000
  H   H1296     1.0  0.80488  0.31522  0.79066  1.0000
  H   H1297     1.0  0.88720  0.34481  0.80600  1.0000
  C   C815      1.0  0.84065  0.13832  0.79865  1.0000
  H   H1298     1.0  0.86575  0.05418  0.91878  1.0000
  S   S333      1.0  0.86139  0.22517  0.80238  1.0000
  H   H1299     1.0  0.90796  0.29828  0.93639  1.0000
  H   H1300     1.0  0.90165  0.21871  0.92758  1.0000
  H   H1301     1.0  0.96093  0.29181  0.92815  1.0000
  H   H1302     1.0  0.95411  0.32471  0.89926  1.0000
  H   H1303     1.0  0.92861  0.32217  0.93305  1.0000
  H   H1304     1.0  0.79931  0.39990  0.91119  1.0000
  C   C816      1.0  0.93720  0.21260  0.93924  1.0000
  C   C817      1.0  0.92022  0.21803  0.92295  1.0000
  C   C818      1.0  0.92707  0.22255  0.90072  1.0000
  C   C819      1.0  0.95104  0.22238  0.89473  1.0000
  C   C820      1.0  0.96802  0.21644  0.91091  1.0000
  C   C821      1.0  0.96114  0.21146  0.93309  1.0000
  H   H1305     1.0  0.97947  0.21136  0.80357  1.0000
  H   H1306     1.0  0.91290  0.11398  0.00579  1.0000
  H   H1307     1.0  0.84322  0.40225  0.90975  1.0000
  H   H1308     1.0  0.85730  0.12745  0.80040  1.0000
  H   H1309     1.0  0.90009  0.29149  0.88672  1.0000
  H   H1310     1.0  0.90482  0.26812  0.90731  1.0000
  C   C822      1.0  0.91398  0.28072  0.89564  1.0000
  N   N80       1.0  0.93033  0.29611  0.90737  1.0000
  H   H1311     1.0  0.95919  0.27032  0.90657  1.0000
  H   H1312     1.0  0.01326  0.26531  0.81783  1.0000
  C   C823      1.0  0.91686  0.31023  0.92391  1.0000
  C   C824      1.0  0.94849  0.28091  0.91871  1.0000
  C   C825      1.0  0.89352  0.08127  0.01078  1.0000
  H   H1313     1.0  0.80064  0.45415  0.90639  1.0000
  H   H1314     1.0  0.85717  0.42305  0.89068  1.0000
  C   C826      1.0  0.94187  0.31248  0.89107  1.0000
  H   H1315     1.0  0.92855  0.32372  0.88176  1.0000
  H   H1316     1.0  0.95234  0.30227  0.87850  1.0000
  N   N81       1.0  0.81914  0.42479  0.89081  1.0000
  H   H1317     1.0  0.87643  0.08989  0.00803  1.0000
  Fe  Fe168     1.0  0.96139  0.14079  0.01421  1.0000
  H   H1318     1.0  0.02875  0.22007  0.84278  1.0000
  S   S334      1.0  0.92982  0.16555  0.01691  1.0000
  H   H1319     1.0  0.83309  0.09063  0.80212  1.0000
  H   H1320     1.0  0.81863  0.42242  0.85511  1.0000
  N   N82       1.0  0.01225  0.22766  0.81139  1.0000
  Fe  Fe169     1.0  0.99575  0.18117  0.01862  1.0000
  H   H1321     1.0  0.80293  0.09220  0.79325  1.0000
  H   H1322     1.0  0.81846  0.43591  0.92481  1.0000
  H   H1323     1.0  0.83221  0.45662  0.90545  1.0000
  C   C827      1.0  0.81764  0.44367  0.90761  1.0000
  S   S335      1.0  0.96244  0.10026  0.01322  1.0000
  H   H1324     1.0  0.83495  0.14413  0.81548  1.0000
  C   C828      1.0  0.91716  0.04548  0.01886  1.0000
  Fe  Fe170     1.0  0.78738  0.42070  0.81518  1.0000
  H   H1325     1.0  0.84349  0.39694  0.88042  1.0000
  H   H1326     1.0  0.80130  0.44677  0.86621  1.0000
  H   H1327     1.0  0.86274  0.37756  0.78873  1.0000
  C   C829      1.0  0.81713  0.10263  0.80098  1.0000
  H   H1328     1.0  0.99488  0.24849  0.83667  1.0000
  C   C830      1.0  0.99537  0.20791  0.81398  1.0000
  C   C831      1.0  0.00087  0.25013  0.81904  1.0000
  H   H1329     1.0  0.81604  0.35661  0.77980  1.0000
  H   H1330     1.0  0.02319  0.13820  0.02159  1.0000
  C   C832      1.0  0.88482  0.04479  0.95882  1.0000
  C   C833      1.0  0.84176  0.41115  0.89306  1.0000
  C   C834      1.0  0.85418  0.04494  0.93123  1.0000
  H   H1331     1.0  0.84374  0.05898  0.94015  1.0000
  C   C835      1.0  0.81795  0.43603  0.86833  1.0000
  H   H1332     1.0  0.79486  0.34857  0.81560  1.0000
  H   H1333     1.0  0.84511  0.15481  0.78879  1.0000
  H   H1334     1.0  0.02819  0.21409  0.78138  1.0000
  H   H1335     1.0  0.00348  0.19052  0.80890  1.0000
  H   H1336     1.0  0.89727  0.05409  0.94724  1.0000
  H   H1337     1.0  0.87520  0.05874  0.96858  1.0000
  S   S336      1.0  0.96687  0.20959  0.02195  1.0000
  N   N83       1.0  0.82203  0.12474  0.78783  1.0000
  C   C836      1.0  0.89502  0.05652  0.01542  1.0000
  C   C837      1.0  0.93626  0.08383  0.01308  1.0000
  H   H1338     1.0  0.81113  0.10678  0.81816  1.0000
  H   H1339     1.0  0.03159  0.24566  0.78508  1.0000
  H   H1340     1.0  0.98508  0.25512  0.80892  1.0000
  H   H1341     1.0  0.98905  0.20581  0.83154  1.0000
  C   C838      1.0  0.02829  0.30037  0.78146  1.0000
  H   H1342     1.0  0.79978  0.39371  0.88204  1.0000
  C   C839      1.0  0.78756  0.31865  0.78239  1.0000
  H   H1343     1.0  0.79335  0.14476  0.80299  1.0000
  C   C840      1.0  0.80016  0.13971  0.78628  1.0000
  H   H1344     1.0  0.82207  0.20735  0.77919  1.0000
  H   H1345     1.0  0.95476  0.05043  0.02042  1.0000
  C   C841      1.0  0.86011  0.20880  0.77783  1.0000
  H   H1346     1.0  0.78583  0.13010  0.77790  1.0000
  S   S337      1.0  0.88891  0.97909  0.04871  1.0000
  S   S338      1.0  0.95206  0.95868  0.04112  1.0000
  S   S339      1.0  0.84693  0.92619  0.06314  1.0000
  Fe  Fe171     1.0  0.81935  0.92646  0.22954  1.0000
  C   C842      1.0  0.90011  0.82523  0.21773  1.0000
  C   C843      1.0  0.91086  0.82819  0.25614  1.0000
  H   H1347     1.0  0.79537  0.00814  0.24012  1.0000
  S   S340      1.0  0.81141  0.96414  0.21781  1.0000
  C   C844      1.0  0.78667  0.01769  0.25344  1.0000
  H   H1348     1.0  0.90107  0.84567  0.25701  1.0000
  H   H1349     1.0  0.90779  0.77787  0.22573  1.0000
  H   H1350     1.0  0.83108  0.99541  0.26194  1.0000
  C   C845      1.0  0.91505  0.79024  0.23798  1.0000
  H   H1351     1.0  0.86474  0.82307  0.24804  1.0000
  H   H1352     1.0  0.99684  0.94393  0.05866  1.0000
  H   H1353     1.0  0.93366  0.79408  0.23297  1.0000
  H   H1354     1.0  0.87575  0.79716  0.26303  1.0000
  S   S341      1.0  0.81050  0.90972  0.19730  1.0000
  S   S342      1.0  0.85256  0.91939  0.24927  1.0000
  H   H1355     1.0  0.82740  0.90338  0.10244  1.0000
  H   H1356     1.0  0.91594  0.78040  0.25427  1.0000
  H   H1357     1.0  0.02371  0.90934  0.05111  1.0000
  S   S343      1.0  0.78340  0.92178  0.24457  1.0000
  H   H1358     1.0  0.91826  0.83016  0.21215  1.0000
  C   C846      1.0  0.79699  0.03819  0.26192  1.0000
  H   H1359     1.0  0.92976  0.83191  0.25224  1.0000
  Fe  Fe172     1.0  0.86512  0.95030  0.03763  1.0000
  C   C847      1.0  0.83659  0.93801  0.08858  1.0000
  C   C848      1.0  0.83740  0.96254  0.09256  1.0000
  C   C849      1.0  0.82954  0.97140  0.11311  1.0000
  C   C850      1.0  0.82099  0.95585  0.12994  1.0000
  C   C851      1.0  0.82043  0.93124  0.12608  1.0000
  C   C852      1.0  0.82811  0.92239  0.10541  1.0000
  H   H1360     1.0  0.84379  0.97476  0.07972  1.0000
  H   H1361     1.0  0.82992  0.99046  0.11595  1.0000
  C   C853      1.0  0.85286  0.89204  0.26438  1.0000
  S   S344      1.0  0.81104  0.96816  0.15530  1.0000
  H   H1362     1.0  0.99902  0.80196  0.24201  1.0000
  N   N84       1.0  0.91592  0.91843  0.09365  1.0000
  C   C854      1.0  0.93387  0.93723  0.09435  1.0000
  C   C855      1.0  0.91030  0.91384  0.07029  1.0000
  C   C856      1.0  0.89419  0.92658  0.10545  1.0000
  C   C857      1.0  0.92528  0.89611  0.10435  1.0000
  H   H1363     1.0  0.92743  0.95421  0.08607  1.0000
  H   H1364     1.0  0.95047  0.93170  0.08548  1.0000
  H   H1365     1.0  0.93848  0.94138  0.11171  1.0000
  H   H1366     1.0  0.89663  0.89990  0.06897  1.0000
  H   H1367     1.0  0.90306  0.93032  0.06198  1.0000
  H   H1368     1.0  0.92628  0.90800  0.06064  1.0000
  H   H1369     1.0  0.88008  0.91301  0.10484  1.0000
  H   H1370     1.0  0.88673  0.94343  0.09771  1.0000
  H   H1371     1.0  0.89751  0.93013  0.12321  1.0000
  H   H1372     1.0  0.91211  0.88159  0.10400  1.0000
  H   H1373     1.0  0.92976  0.89890  0.12202  1.0000
  H   H1374     1.0  0.94162  0.88950  0.09568  1.0000
  Fe  Fe173     1.0  0.79965  0.94723  0.18632  1.0000
  C   C858      1.0  0.00687  0.91095  0.04289  1.0000
  H   H1375     1.0  0.81675  0.94385  0.27498  1.0000
  H   H1376     1.0  0.88917  0.84211  0.21842  1.0000
  N   N85       1.0  0.90053  0.81255  0.23957  1.0000
  H   H1377     1.0  0.89250  0.81392  0.20477  1.0000
  C   C859      1.0  0.00782  0.79720  0.25740  1.0000
  H   H1378     1.0  0.86768  0.79481  0.23446  1.0000
  H   H1379     1.0  0.81378  0.91913  0.13889  1.0000
  C   C860      1.0  0.87612  0.80661  0.24650  1.0000
  H   H1380     1.0  0.91025  0.81966  0.27300  1.0000
  C   C861      1.0  0.99159  0.93052  0.04716  1.0000
  H   H1381     1.0  0.81941  0.88067  0.25213  1.0000
  C   C862      1.0  0.83419  0.87622  0.26281  1.0000
  H   H1382     1.0  0.78523  0.71262  0.26306  1.0000
  C   C863      1.0  0.96979  0.93293  0.03644  1.0000
  S   S345      1.0  0.96308  0.79421  0.27531  1.0000
  H   H1383     1.0  0.00476  0.98161  0.03617  1.0000
  C   C864      1.0  0.99430  0.79216  0.27664  1.0000
  H   H1384     1.0  0.79812  0.97030  0.27474  1.0000
  C   C865      1.0  0.00027  0.89343  0.02816  1.0000
  H   H1385     1.0  0.84970  0.96906  0.26090  1.0000
  C   C866      1.0  0.84313  0.98355  0.27195  1.0000
  H   H1386     1.0  0.82022  0.84219  0.27361  1.0000
  H   H1387     1.0  0.85858  0.99431  0.27647  1.0000
  C   C867      1.0  0.83469  0.85442  0.27495  1.0000
  H   H1388     1.0  0.02898  0.92368  0.50567  1.0000
  Fe  Fe174     1.0  0.96037  0.91276  0.50607  1.0000
  S   S346      1.0  0.98533  0.88730  0.48841  1.0000
  C   C868      1.0  0.85393  0.84822  0.28855  1.0000
  Fe  Fe175     1.0  0.96065  0.85854  0.50020  1.0000
  S   S347      1.0  0.94740  0.82656  0.48170  1.0000
  C   C869      1.0  0.92795  0.99182  0.49398  1.0000
  H   H1389     1.0  0.95912  0.80169  0.52353  1.0000
  N   N86       1.0  0.80763  0.68838  0.38654  1.0000
  C   C870      1.0  0.00841  0.87012  0.33052  1.0000
  H   H1390     1.0  0.79615  0.69305  0.35278  1.0000
  S   S348      1.0  0.79940  0.68964  0.30406  1.0000
  Fe  Fe176     1.0  0.88839  0.80609  0.31768  1.0000
  S   S349      1.0  0.90383  0.77335  0.30180  1.0000
  H   H1391     1.0  0.98636  0.85920  0.36894  1.0000
  Fe  Fe177     1.0  0.92713  0.80630  0.35265  1.0000
  S   S350      1.0  0.94536  0.77313  0.33939  1.0000
  S   S351      1.0  0.94442  0.83173  0.37600  1.0000
  Fe  Fe178     1.0  0.93916  0.79017  0.30570  1.0000
  C   C871      1.0  0.82225  0.99343  0.30592  1.0000
  Fe  Fe179     1.0  0.90815  0.75926  0.33662  1.0000
  S   S352      1.0  0.89692  0.72117  0.34460  1.0000
  S   S353      1.0  0.92317  0.82411  0.31887  1.0000
  S   S354      1.0  0.89050  0.79116  0.35262  1.0000
  H   H1392     1.0  0.91853  0.76616  0.52653  1.0000
  C   C872      1.0  0.92467  0.01336  0.50533  1.0000
  H   H1393     1.0  0.98543  0.83362  0.31220  1.0000
  C   C873      1.0  0.82692  0.69767  0.31497  1.0000
  C   C874      1.0  0.83360  0.72172  0.31324  1.0000
  C   C875      1.0  0.85511  0.72900  0.32207  1.0000
  C   C876      1.0  0.87028  0.71222  0.33254  1.0000
  C   C877      1.0  0.86373  0.68806  0.33407  1.0000
  C   C878      1.0  0.84209  0.68080  0.32533  1.0000
  H   H1394     1.0  0.82203  0.73490  0.30521  1.0000
  H   H1395     1.0  0.85984  0.74767  0.32093  1.0000
  H   H1396     1.0  0.87546  0.67495  0.34200  1.0000
  H   H1397     1.0  0.83735  0.66212  0.32628  1.0000
  C   C879      1.0  0.00171  0.84727  0.36455  1.0000
  H   H1398     1.0  0.82091  0.72423  0.38738  1.0000
  C   C880      1.0  0.91459  0.78578  0.52562  1.0000
  C   C881      1.0  0.81071  0.95934  0.28503  1.0000
  H   H1399     1.0  0.99293  0.88221  0.33411  1.0000
  C   C882      1.0  0.94356  0.97384  0.50208  1.0000
  H   H1400     1.0  0.84189  0.70098  0.39550  1.0000
  C   C883      1.0  0.82708  0.70557  0.38404  1.0000
  H   H1401     1.0  0.83900  0.94985  0.31962  1.0000
  H   H1402     1.0  0.83457  0.70576  0.36688  1.0000
  S   S355      1.0  0.85447  0.82009  0.30236  1.0000
  H   H1403     1.0  0.83096  0.65853  0.39487  1.0000
  H   H1404     1.0  0.88646  0.89825  0.27947  1.0000
  C   C884      1.0  0.94619  0.82821  0.45231  1.0000
  C   C885      1.0  0.95462  0.84812  0.44035  1.0000
  C   C886      1.0  0.95379  0.84889  0.41701  1.0000
  C   C887      1.0  0.94435  0.82989  0.40538  1.0000
  C   C888      1.0  0.93575  0.81000  0.41730  1.0000
  C   C889      1.0  0.93676  0.80915  0.44071  1.0000
  H   H1405     1.0  0.96183  0.86294  0.44907  1.0000
  H   H1406     1.0  0.96037  0.86440  0.40796  1.0000
  H   H1407     1.0  0.92851  0.79524  0.40851  1.0000
  H   H1408     1.0  0.93022  0.79367  0.44982  1.0000
  H   H1409     1.0  0.80909  0.00515  0.29699  1.0000
  H   H1410     1.0  0.99810  0.82936  0.37232  1.0000
  C   C890      1.0  0.87201  0.88600  0.27815  1.0000
  H   H1411     1.0  0.02334  0.81172  0.34162  1.0000
  H   H1412     1.0  0.91999  0.79236  0.50867  1.0000
  C   C891      1.0  0.87254  0.86411  0.29025  1.0000
  C   C892      1.0  0.79733  0.68964  0.40919  1.0000
  C   C893      1.0  0.98360  0.83554  0.33052  1.0000
  H   H1413     1.0  0.85457  0.94289  0.29432  1.0000
  S   S356      1.0  0.94459  0.94589  0.48910  1.0000
  H   H1414     1.0  0.83691  0.00504  0.31092  1.0000
  S   S357      1.0  0.93439  0.88429  0.51530  1.0000
  H   H1415     1.0  0.91211  0.02683  0.49928  1.0000
  N   N87       1.0  0.83094  0.97360  0.29189  1.0000
  H   H1416     1.0  0.78990  0.70786  0.41250  1.0000
  N   N88       1.0  0.00489  0.84582  0.34018  1.0000
  H   H1417     1.0  0.96923  0.96442  0.52708  1.0000
  H   H1418     1.0  0.80066  0.95208  0.29961  1.0000
  H   H1419     1.0  0.86313  0.96809  0.31016  1.0000
  H   H1420     1.0  0.01072  0.86965  0.31213  1.0000
  C   C894      1.0  0.84766  0.95796  0.30460  1.0000
  H   H1421     1.0  0.80260  0.65037  0.38467  1.0000
  H   H1422     1.0  0.90023  0.96346  0.52392  1.0000
  S   S358      1.0  0.78876  0.62680  0.33974  1.0000
  H   H1423     1.0  0.82461  0.66205  0.36586  1.0000
  C   C895      1.0  0.00588  0.78586  0.29640  1.0000
  H   H1424     1.0  0.97998  0.81745  0.33788  1.0000
  H   H1425     1.0  0.88729  0.85958  0.30091  1.0000
  H   H1426     1.0  0.99564  0.78157  0.31123  1.0000
  H   H1427     1.0  0.91784  0.98881  0.47921  1.0000
  C   C896      1.0  0.78915  0.69449  0.37007  1.0000
  H   H1428     1.0  0.81338  0.98657  0.32135  1.0000
  H   H1429     1.0  0.01760  0.85439  0.37257  1.0000
  H   H1430     1.0  0.78271  0.67671  0.41159  1.0000
  H   H1431     1.0  0.81083  0.68520  0.42202  1.0000
  H   H1432     1.0  0.96758  0.84697  0.33382  1.0000
  C   C897      1.0  0.81687  0.66377  0.38284  1.0000
  H   H1433     1.0  0.92607  0.83187  0.52436  1.0000
  C   C898      1.0  0.95673  0.97795  0.52104  1.0000
  H   H1434     1.0  0.02437  0.87842  0.33740  1.0000
  C   C899      1.0  0.93713  0.01707  0.52479  1.0000
  C   C900      1.0  0.03078  0.78500  0.29692  1.0000
  C   C901      1.0  0.02576  0.83038  0.33511  1.0000
  Fe  Fe180     1.0  0.00190  0.88246  0.52203  1.0000
  H   H1435     1.0  0.02900  0.82945  0.31685  1.0000
  H   H1436     1.0  0.89508  0.78856  0.52711  1.0000
  Fe  Fe181     1.0  0.95481  0.87948  0.54682  1.0000
  S   S359      1.0  0.93274  0.87703  0.57861  1.0000
  C   C902      1.0  0.88988  0.92438  0.54837  1.0000
  Fe  Fe182     1.0  0.95439  0.78481  0.73274  1.0000
  S   S360      1.0  0.95487  0.81852  0.71183  1.0000
  S   S361      1.0  0.97888  0.91017  0.53884  1.0000
  Fe  Fe183     1.0  0.90236  0.77502  0.72180  1.0000
  S   S362      1.0  0.89937  0.80793  0.69940  1.0000
  S   S363      1.0  0.87119  0.75377  0.73513  1.0000
  Fe  Fe184     1.0  0.93577  0.79722  0.68680  1.0000
  S   S364      1.0  0.95164  0.79504  0.65206  1.0000
  Fe  Fe185     1.0  0.91876  0.82595  0.72650  1.0000
  S   S365      1.0  0.90822  0.86260  0.73877  1.0000
  S   S366      1.0  0.93715  0.76271  0.70715  1.0000
  S   S367      1.0  0.91992  0.79396  0.74947  1.0000
  C   C903      1.0  0.87637  0.88679  0.76518  1.0000
  H   H1437     1.0  0.90422  0.98330  0.54645  1.0000
  S   S368      1.0  0.81026  0.67893  0.68368  1.0000
  S   S369      1.0  0.81326  0.98211  0.77613  1.0000
  H   H1438     1.0  0.89887  0.93543  0.59061  1.0000
  C   C904      1.0  0.01447  0.80830  0.74973  1.0000
  H   H1439     1.0  0.80549  0.83257  0.75782  1.0000
  C   C905      1.0  0.85488  0.73274  0.72049  1.0000
  C   C906      1.0  0.85848  0.72917  0.69779  1.0000
  C   C907      1.0  0.84466  0.71261  0.68673  1.0000
  C   C908      1.0  0.82728  0.69943  0.69828  1.0000
  C   C909      1.0  0.82367  0.70307  0.72098  1.0000
  C   C910      1.0  0.83736  0.71974  0.73199  1.0000
  H   H1440     1.0  0.87188  0.73909  0.68875  1.0000
  H   H1441     1.0  0.84753  0.70987  0.66917  1.0000
  H   H1442     1.0  0.81036  0.69303  0.73002  1.0000
  H   H1443     1.0  0.83451  0.72236  0.74957  1.0000
  C   C911      1.0  0.88827  0.86490  0.76142  1.0000
  H   H1444     1.0  0.92869  0.79889  0.57868  1.0000
  N   N89       1.0  0.83197  0.81601  0.73698  1.0000
  C   C912      1.0  0.92125  0.82444  0.54109  1.0000
  C   C913      1.0  0.02563  0.76447  0.66403  1.0000
  C   C914      1.0  0.91972  0.78934  0.56523  1.0000
  C   C915      1.0  0.92746  0.94197  0.55535  1.0000
  C   C916      1.0  0.84427  0.80402  0.75586  1.0000
  H   H1445     1.0  0.93363  0.93778  0.53823  1.0000
  C   C917      1.0  0.80696  0.82071  0.74321  1.0000
  H   H1446     1.0  0.99318  0.79543  0.67955  1.0000
  H   H1447     1.0  0.96295  0.80396  0.55295  1.0000
  C   C918      1.0  0.93892  0.85471  0.59926  1.0000
  C   C919      1.0  0.95671  0.83720  0.59623  1.0000
  C   C920      1.0  0.96044  0.81903  0.61256  1.0000
  C   C921      1.0  0.94675  0.81849  0.63221  1.0000
  C   C922      1.0  0.92922  0.83622  0.63540  1.0000
  C   C923      1.0  0.92522  0.85415  0.61890  1.0000
  H   H1448     1.0  0.96764  0.83769  0.58136  1.0000
  H   H1449     1.0  0.97415  0.80548  0.61004  1.0000
  H   H1450     1.0  0.91857  0.83597  0.65047  1.0000
  H   H1451     1.0  0.91147  0.86766  0.62140  1.0000
  H   H1452     1.0  0.89478  0.90827  0.55880  1.0000
  H   H1453     1.0  0.00113  0.72911  0.68368  1.0000
  H   H1454     1.0  0.89316  0.82837  0.77316  1.0000
  H   H1455     1.0  0.87947  0.90206  0.75415  1.0000
  H   H1456     1.0  0.87575  0.97074  0.54198  1.0000
  Fe  Fe186     1.0  0.78356  0.65450  0.70053  1.0000
  H   H1457     1.0  0.86256  0.83619  0.72716  1.0000
  H   H1458     1.0  0.90267  0.96701  0.58548  1.0000
  H   H1459     1.0  0.82506  0.78261  0.72130  1.0000
  H   H1460     1.0  0.01219  0.77021  0.65145  1.0000
  H   H1461     1.0  0.82122  0.01537  0.74004  1.0000
  H   H1462     1.0  0.85179  0.79634  0.71246  1.0000
  H   H1463     1.0  0.87029  0.92662  0.54886  1.0000
  C   C924      1.0  0.01023  0.78564  0.75924  1.0000
  S   S370      1.0  0.97923  0.85149  0.53261  1.0000
  H   H1464     1.0  0.02600  0.75645  0.72030  1.0000
  H   H1465     1.0  0.84245  0.85140  0.74557  1.0000
  C   C925      1.0  0.80131  0.01127  0.77063  1.0000
  H   H1466     1.0  0.83506  0.84833  0.71687  1.0000
  H   H1467     1.0  0.92411  0.76988  0.56744  1.0000
  C   C926      1.0  0.89511  0.96678  0.54154  1.0000
  S   S371      1.0  0.79208  0.56827  0.72939  1.0000
  C   C927      1.0  0.02624  0.77568  0.77472  1.0000
  H   H1468     1.0  0.79715  0.82973  0.72932  1.0000
  H   H1469     1.0  0.96795  0.84200  0.75315  1.0000
  N   N90       1.0  0.01528  0.76436  0.68670  1.0000
  H   H1470     1.0  0.93701  0.95803  0.56066  1.0000
  C   C928      1.0  0.83316  0.80031  0.71754  1.0000
  H   H1471     1.0  0.93311  0.92669  0.56644  1.0000
  N   N91       1.0  0.92711  0.79853  0.54301  1.0000
  H   H1472     1.0  0.98760  0.74669  0.70511  1.0000
  C   C929      1.0  0.89403  0.95080  0.57922  1.0000
  H   H1473     1.0  0.84257  0.81466  0.77118  1.0000
  C   C930      1.0  0.99538  0.74764  0.68800  1.0000
  H   H1474     1.0  0.83713  0.78591  0.75967  1.0000
  H   H1475     1.0  0.00233  0.81621  0.73781  1.0000
  H   H1476     1.0  0.99789  0.78898  0.70848  1.0000
  H   H1477     1.0  0.82406  0.80865  0.70292  1.0000
  H   H1478     1.0  0.86350  0.80138  0.75219  1.0000
  H   H1479     1.0  0.96324  0.00237  0.54740  1.0000
  H   H1480     1.0  0.90032  0.79187  0.56799  1.0000
  N   N92       1.0  0.90158  0.94600  0.55614  1.0000
  C   C931      1.0  0.84345  0.83897  0.73138  1.0000
  C   C932      1.0  0.00652  0.78876  0.69182  1.0000
  S   S372      1.0  0.98528  0.76913  0.75219  1.0000
  H   H1481     1.0  0.93095  0.83473  0.55348  1.0000
  C   C933      1.0  0.80849  0.02370  0.75119  1.0000
  H   H1482     1.0  0.98095  0.75341  0.67644  1.0000
  S   S373      1.0  0.78571  0.63786  0.73487  1.0000
  H   H1483     1.0  0.99427  0.85653  0.76164  1.0000
  H   H1484     1.0  0.87456  0.95388  0.58051  1.0000
  H   H1485     1.0  0.95797  0.77529  0.54113  1.0000
  C   C934      1.0  0.97479  0.85566  0.76439  1.0000
  C   C935      1.0  0.95338  0.99946  0.53247  1.0000
  C   C936      1.0  0.88417  0.84531  0.77580  1.0000
  H   H1486     1.0  0.90204  0.82820  0.54378  1.0000
  C   C937      1.0  0.95291  0.79467  0.54006  1.0000
  H   H1487     1.0  0.79789  0.80371  0.74764  1.0000
  H   H1488     1.0  0.96676  0.87326  0.75899  1.0000
  H   H1489     1.0  0.02110  0.80182  0.69177  1.0000
  H   H1490     1.0  0.89525  0.92045  0.53092  1.0000
  C   C938      1.0  0.85634  0.86944  0.79750  1.0000
  H   H1491     1.0  0.82977  0.95813  0.96045  1.0000
  Fe  Fe187     1.0  0.87993  0.95684  0.98865  1.0000
  S   S374      1.0  0.01949  0.86907  0.02224  1.0000
  S   S375      1.0  0.88001  0.94763  0.95211  1.0000
  H   H1492     1.0  0.00987  0.97366  0.97537  1.0000
  H   H1493     1.0  0.80790  0.90817  0.91836  1.0000
  H   H1494     1.0  0.91849  0.02648  0.02275  1.0000
  S   S376      1.0  0.90591  0.98515  0.99661  1.0000
  C   C939      1.0  0.97810  0.89543  0.01796  1.0000
  Fe  Fe188     1.0  0.81372  0.90532  0.82081  1.0000
  C   C940      1.0  0.86852  0.84768  0.79396  1.0000
  Fe  Fe189     1.0  0.87685  0.99963  0.01835  1.0000
  H   H1495     1.0  0.85034  0.90218  0.88572  1.0000
  H   H1496     1.0  0.80179  0.85985  0.87832  1.0000
  H   H1497     1.0  0.86971  0.99967  0.92522  1.0000
  S   S377      1.0  0.79190  0.95464  0.88784  1.0000
  S   S378      1.0  0.82597  0.94166  0.83020  1.0000
  H   H1498     1.0  0.82047  0.91019  0.87841  1.0000
  S   S379      1.0  0.89276  0.93197  0.01620  1.0000
  H   H1499     1.0  0.83496  0.88482  0.86607  1.0000
  H   H1500     1.0  0.84145  0.03407  0.92201  1.0000
  H   H1501     1.0  0.86567  0.83254  0.80520  1.0000
  S   S380      1.0  0.83632  0.87150  0.82003  1.0000
  H   H1502     1.0  0.78733  0.88481  0.89153  1.0000
  H   H1503     1.0  0.97116  0.88628  0.79798  1.0000
  C   C941      1.0  0.97856  0.86809  0.80225  1.0000
  H   H1504     1.0  0.79346  0.85770  0.90729  1.0000
  Fe  Fe190     1.0  0.91578  0.96191  0.02607  1.0000
  S   S381      1.0  0.85002  0.97247  0.00905  1.0000
  C   C942      1.0  0.80060  0.86992  0.89406  1.0000
  N   N93       1.0  0.86822  0.02975  0.94688  1.0000
  C   C943      1.0  0.85547  0.95154  0.93448  1.0000
  C   C944      1.0  0.85897  0.94927  0.91148  1.0000
  C   C945      1.0  0.83979  0.95132  0.89687  1.0000
  C   C946      1.0  0.81686  0.95523  0.90519  1.0000
  C   C947      1.0  0.81346  0.95826  0.92813  1.0000
  C   C948      1.0  0.83269  0.95640  0.94275  1.0000
  H   H1505     1.0  0.87660  0.94574  0.90494  1.0000
  H   H1506     1.0  0.84271  0.94947  0.87920  1.0000
  H   H1507     1.0  0.93440  0.86687  0.78580  1.0000
  C   C949      1.0  0.84080  0.85903  0.90401  1.0000
  H   H1508     1.0  0.99783  0.00464  0.01576  1.0000
  H   H1509     1.0  0.89216  0.99922  0.94589  1.0000
  H   H1510     1.0  0.97289  0.88183  0.00661  1.0000
  C   C950      1.0  0.85213  0.01793  0.96305  1.0000
  H   H1511     1.0  0.86222  0.00624  0.97491  1.0000
  H   H1512     1.0  0.94617  0.91698  0.01356  1.0000
  C   C951      1.0  0.94286  0.84929  0.79063  1.0000
  Fe  Fe191     1.0  0.80150  0.95582  0.80333  1.0000
  S   S382      1.0  0.78288  0.90489  0.84469  1.0000
  H   H1513     1.0  0.85846  0.86558  0.90874  1.0000
  C   C952      1.0  0.83282  0.89477  0.88179  1.0000
  H   H1514     1.0  0.83457  0.84678  0.91764  1.0000
  Fe  Fe192     1.0  0.79349  0.94246  0.85210  1.0000
  H   H1515     1.0  0.01822  0.00424  0.97887  1.0000
  C   C953      1.0  0.88170  0.01128  0.93448  1.0000
  C   C954      1.0  0.00356  0.98553  0.01799  1.0000
  H   H1516     1.0  0.97479  0.82072  0.81155  1.0000
  H   H1517     1.0  0.81516  0.88197  0.93493  1.0000
  C   C955      1.0  0.02360  0.98521  0.98238  1.0000
  H   H1518     1.0  0.83924  0.00648  0.95472  1.0000
  H   H1519     1.0  0.02310  0.75813  0.78210  1.0000
  H   H1520     1.0  0.84335  0.84825  0.88879  1.0000
  N   N94       1.0  0.02630  0.98041  0.00647  1.0000
  H   H1521     1.0  0.93753  0.84498  0.80810  1.0000
  H   H1522     1.0  0.97253  0.81165  0.78329  1.0000
  N   N95       1.0  0.96886  0.84974  0.78785  1.0000
  C   C956      1.0  0.82119  0.89327  0.92055  1.0000
  N   N96       1.0  0.82386  0.87923  0.90012  1.0000
  H   H1523     1.0  0.83817  0.90146  0.92518  1.0000
  H   H1524     1.0  0.89426  0.01946  0.92227  1.0000
  C   C957      1.0  0.96294  0.91526  0.02194  1.0000
  C   C958      1.0  0.97919  0.82594  0.79405  1.0000
  H   H1525     1.0  0.97439  0.86420  0.82009  1.0000
  H   H1526     1.0  0.79576  0.96135  0.93470  1.0000
  C   C959      1.0  0.86021  0.88900  0.78302  1.0000
  S   S383      1.0  0.79219  0.91905  0.79212  1.0000
  H   H1527     1.0  0.01954  0.94261  0.00462  1.0000
  H   H1528     1.0  0.98921  0.97436  0.01158  1.0000
  H   H1529     1.0  0.85096  0.90592  0.78569  1.0000
  H   H1530     1.0  0.99820  0.86883  0.80050  1.0000
  H   H1531     1.0  0.99885  0.82568  0.79241  1.0000
  H   H1532     1.0  0.89558  0.03385  0.97087  1.0000
  H   H1533     1.0  0.78714  0.57203  0.81841  1.0000
  H   H1534     1.0  0.84199  0.03124  0.97314  1.0000
  C   C960      1.0  0.78487  0.02222  0.78495  1.0000
  H   H1535     1.0  0.93515  0.83559  0.77992  1.0000
  H   H1536     1.0  0.78571  0.57933  0.77788  1.0000
  S   S384      1.0  0.86923  0.03945  0.01621  1.0000
