data_image0
_chemical_formula_structural       FeS2FeS2FeSFeS3FeS2FeS2FeSFeS3FeS2FeS2FeSFeS3FeS2FeS2FeSFeS3FeS2FeS2FeSFeS3FeS2FeS2FeSFeS3FeS2FeS2FeSFeS3FeS2FeS2FeSFeS3FeS2FeS2FeSFeS3FeS2FeS2FeSFeS3FeS2FeS2FeSFeS3FeS2FeS2FeSFeS3FeS2FeS2FeSFeS3FeS2FeS2FeSFeS3FeS2FeS2FeSFeS3FeS2FeS2FeSFeS3FeS2FeS2FeSFeS3FeS2FeS2FeSFeS3FeS2FeS2FeSFeS3FeS2FeS2FeSFeS3FeS2FeS2FeSFeS3FeS2FeS2FeSFeS3FeS2FeS2FeSFeS3FeS2FeS2FeSFeS3C6H4C6H4C6H4C6H4C6H4C6H4C6H4C6H4C6H4C6H4C6H4C6H4C6H4C6H4C6H4C6H4C6H4C6H4C6H4C6H4C6H4C6H4C6H4C6H4C6H4C6H4C6H4C6H4C6H4C6H4C6H4C6H4C6H4C6H4C6H4C6H4C6H4C6H4C6H4C6H4C6H4C6H4C6H4C6H4C6H4C6H4C6H4C6H4NC4H12NC4H12NC4H12NC4H12NC4H12NC4H12NC4H12NC4H12NC4H12NC4H12NC4H12NC4H12NC4H12NC4H12NC4H12NC4H12NC4H12NC4H12NC4H12NC4H12NC4H12NC4H12NC4H12NC4H12NC4H12NC4H12NC4H12NC4H12NC4H12NC4H12NC4H12NC4H12NC4H12NC4H12NC4H12NC4H12NC4H12NC4H12NC4H12NC4H12NC4H12NC4H12NC4H12NC4H12NC4H12NC4H12NC4H12NC4H12
_chemical_formula_sum              "Fe96 S192 C480 H768 N48"
_cell_length_a       54.13196899758672
_cell_length_b       55.61089847907402
_cell_length_c       19.6568448070184
_cell_angle_alpha    88.72223026118581
_cell_angle_beta     88.87062240486617
_cell_angle_gamma    89.55650642475452

_space_group_name_H-M_alt    "P 1"
_space_group_IT_number       1

loop_
  _space_group_symop_operation_xyz
  'x, y, z'

loop_
  _atom_site_type_symbol
  _atom_site_label
  _atom_site_symmetry_multiplicity
  _atom_site_fract_x
  _atom_site_fract_y
  _atom_site_fract_z
  _atom_site_occupancy
  Fe  Fe1       1.0  0.9260349418907684  0.6623653949762291  0.023310788003152227  1.0000
  S   S1        1.0  0.9372421992841261  0.6881339714444886  0.10342925227547382  1.0000
  S   S2        1.0  0.9481350751229997  0.6499791319613615  0.9324758261288151  1.0000
  Fe  Fe2       1.0  0.8740748488021783  0.6571502957212833  0.08096916306174329  1.0000
  S   S3        1.0  0.8805495447226128  0.6822136657542137  0.16632641441458815  1.0000
  S   S4        1.0  0.8369536773993599  0.6405444129698958  0.06750545986977352  1.0000
  Fe  Fe3       1.0  0.8999757981555488  0.705111657350184  0.0872933629568784  1.0000
  S   S5        1.0  0.8903338342504986  0.7444202024246428  0.07379173574566056  1.0000
  Fe  Fe4       1.0  0.916886174163542  0.6627970863525271  0.17573813264146226  1.0000
  S   S6        1.0  0.9313104063938626  0.654916394816664  0.28116829002862753  1.0000
  S   S7        1.0  0.8905608103973492  0.6815208382083204  0.0007999472211686065  1.0000
  S   S8        1.0  0.9087071396160521  0.6356476872700615  0.09638922964168972  1.0000
  Fe  Fe5       1.0  0.9538589301692033  0.9060579681115369  0.2405206423916953  1.0000
  S   S9        1.0  0.9824298120542776  0.8849546198814273  0.18252321987430542  1.0000
  S   S10       1.0  0.9600798512054821  0.9213824364257226  0.34393199348063763  1.0000
  Fe  Fe6       1.0  0.9137724180245638  0.895889461451262  0.13959395301859123  1.0000
  S   S11       1.0  0.9386133241570735  0.8732317838255219  0.07423448724276205  1.0000
  S   S12       1.0  0.8755410448453729  0.9070897551454975  0.10915970904143801  1.0000
  Fe  Fe7       1.0  0.9523375922941232  0.857861021297032  0.17327565315479498  1.0000
  S   S13       1.0  0.962664809504707  0.8194938079571764  0.19865357464327627  1.0000
  Fe  Fe8       1.0  0.9663611899332266  0.9022982164679436  0.08902381724119723  1.0000
  S   S14       1.0  0.9879604262760248  0.9147189652820634  0.9954714800377995  1.0000
  S   S15       1.0  0.924692981971464  0.8777554620220416  0.2375606206886421  1.0000
  S   S16       1.0  0.9404484978392808  0.9261537078962303  0.14800917412641912  1.0000
  Fe  Fe9       1.0  0.7597519555327905  0.852880948308701  0.2141560612738349  1.0000
  S   S17       1.0  0.7457842346063319  0.8477175301594261  0.3211248206111627  1.0000
  S   S18       1.0  0.7924085733994182  0.8310026227533849  0.17765788503271196  1.0000
  Fe  Fe10      1.0  0.7231986113388745  0.8925674596531277  0.18393912769498688  1.0000
  S   S19       1.0  0.7060395529878204  0.8917595810471909  0.2888278321164997  1.0000
  S   S20       1.0  0.7090508403083243  0.9170537476014755  0.10122764848877219  1.0000
  Fe  Fe11      1.0  0.7449464416724206  0.8878208725537617  0.3244610669660375  1.0000
  S   S21       1.0  0.7592347271719516  0.9020096819364101  0.4219270082569821  1.0000
  Fe  Fe12      1.0  0.7079799264839086  0.8518330910703446  0.2783936432540246  1.0000
  S   S22       1.0  0.6780143498343394  0.8286193996738838  0.3236145061908454  1.0000
  S   S23       1.0  0.7621329035643052  0.8930121115032663  0.2207119930016721  1.0000
  S   S24       1.0  0.7218704471767948  0.8526482387099309  0.17012683065308032  1.0000
  Fe  Fe13      1.0  0.6796093088251938  0.6757877249691048  0.09158470649353267  1.0000
  S   S25       1.0  0.7101457351655933  0.6752085682473474  0.1667262472556221  1.0000
  S   S26       1.0  0.6714795386853106  0.6415133578354132  0.03835919735485138  1.0000
  Fe  Fe14      1.0  0.6673771312258604  0.7283604262261995  0.11466883704082576  1.0000
  S   S27       1.0  0.6973607671284398  0.731938066573616  0.1907794193185957  1.0000
  S   S28       1.0  0.6465890347872167  0.76222913438552  0.08661891109076225  1.0000
  Fe  Fe15      1.0  0.7203309914998512  0.7106962711569134  0.11777052673170507  1.0000
  S   S29       1.0  0.7580233686765241  0.7243225767299383  0.08791288828006061  1.0000
  Fe  Fe16      1.0  0.6839482847030719  0.696514879696271  0.23151835432210252  1.0000
  S   S30       1.0  0.6808599571074556  0.6882064940747513  0.3435237618663175  1.0000
  S   S31       1.0  0.6915261581887309  0.7098945311892841  0.037853175441604714  1.0000
  S   S32       1.0  0.6521275357580705  0.6940979204227418  0.1605682775909707  1.0000
  Fe  Fe17      1.0  0.7356667891783814  0.5888560227105523  0.7390659671155374  1.0000
  S   S33       1.0  0.7466273364442896  0.5845730040271035  0.6292508992093226  1.0000
  S   S34       1.0  0.7480100209190164  0.6198920444365  0.8006911781557692  1.0000
  Fe  Fe18      1.0  0.7028921074654948  0.544901873819864  0.7428560952886996  1.0000
  S   S35       1.0  0.7108586467631546  0.5363552254117326  0.6336790976791525  1.0000
  S   S36       1.0  0.6742477132586062  0.5265363506989135  0.8096062612052437  1.0000
  Fe  Fe19      1.0  0.7501058446269057  0.5454610610157419  0.6583126159646502  1.0000
  S   S37       1.0  0.7814573177085332  0.5229305444643154  0.617665150484958  1.0000
  Fe  Fe20      1.0  0.7067246802919078  0.5759742528887463  0.6140237591324862  1.0000
  S   S38       1.0  0.6832284043507693  0.5915971011274846  0.5305293444085253  1.0000
  S   S39       1.0  0.7425287537909608  0.5503977100308068  0.7700156416531048  1.0000
  S   S40       1.0  0.6955317404576767  0.583991449627106  0.7213525589206286  1.0000
  Fe  Fe21      1.0  0.940637284612005  0.5375557234028843  0.49498101283893065  1.0000
  S   S41       1.0  0.9405517117083201  0.5640026354287333  0.5789406260381187  1.0000
  S   S42       1.0  0.931413798154361  0.5462510037142696  0.38588178923663785  1.0000
  Fe  Fe22      1.0  0.9512485905157393  0.4954628122824042  0.5902247569762995  1.0000
  S   S43       1.0  0.9516249280345946  0.5182165452778289  0.6829678583249729  1.0000
  S   S44       1.0  0.958994370800895  0.4557034261823083  0.5955066455928272  1.0000
  Fe  Fe23      1.0  0.9185267188634417  0.5367388021504585  0.6386809091474303  1.0000
  S   S45       1.0  0.8883509856701879  0.5535690327238829  0.7028878185823528  1.0000
  Fe  Fe24      1.0  0.9736094874910184  0.5435352627897018  0.616284919274233  1.0000
  S   S46       1.0  0.005163753880369049  0.5630438550156104  0.6619223359942507  1.0000
  S   S47       1.0  0.9158252405288343  0.5115232732648959  0.5515674799306283  1.0000
  S   S48       1.0  0.9759714009590212  0.5194393788851092  0.5264813426147884  1.0000
  Fe  Fe25      1.0  0.5241689604525666  0.6765128920866239  0.6671230817624677  1.0000
  S   S49       1.0  0.5512017741559012  0.6676606771442524  0.7493353150353016  1.0000
  S   S50       1.0  0.4838841011556262  0.6731077280085789  0.694969748910767  1.0000
  Fe  Fe26      1.0  0.5645023958015831  0.68609728358702  0.5613802015207671  1.0000
  S   S51       1.0  0.5947731683383947  0.6776374787597453  0.6344652410722854  1.0000
  S   S52       1.0  0.5710873917963111  0.699238345729577  0.4536621276703088  1.0000
  Fe  Fe27      1.0  0.5707465135422242  0.646879472750088  0.6682191881192775  1.0000
  S   S53       1.0  0.5840551674386246  0.6095046559248077  0.6921727968250397  1.0000
  Fe  Fe28      1.0  0.5724021166935296  0.6993663720968875  0.7078473696724544  1.0000
  S   S54       1.0  0.5949831533156781  0.7245050406366487  0.7692435475310878  1.0000
  S   S55       1.0  0.5423504723338342  0.6532781247510231  0.5888783434322816  1.0000
  S   S56       1.0  0.5436054186422646  0.7102498710380024  0.6323981213403004  1.0000
  Fe  Fe29      1.0  0.6363763059444865  0.868920755624679  0.8220192849272003  1.0000
  S   S57       1.0  0.6267410317199275  0.8597721422113435  0.7152881397073154  1.0000
  S   S58       1.0  0.6687955423822275  0.8510188480908708  0.8721659412112373  1.0000
  Fe  Fe30      1.0  0.5950402363130352  0.9060965793848581  0.8345906379311939  1.0000
  S   S59       1.0  0.5814330646236974  0.8997398630991582  0.729718935473191  1.0000
  S   S60       1.0  0.5800043128147263  0.9357323890349191  0.8998144389364491  1.0000
  Fe  Fe31      1.0  0.5877766978488396  0.8606470693657589  0.7558639504330321  1.0000
  S   S61       1.0  0.5603237384163563  0.8324633231459334  0.7298598363110571  1.0000
  Fe  Fe32      1.0  0.621454882910036  0.8995170999799624  0.6997848759352546  1.0000
  S   S62       1.0  0.6357101541357338  0.9206309756264174  0.6091660403351074  1.0000
  S   S63       1.0  0.5976964712378838  0.8669440845486241  0.864267289661756  1.0000
  S   S64       1.0  0.634983517311708  0.9086441438951597  0.8028248188422884  1.0000
  Fe  Fe33      1.0  0.07668845791623614  0.7087200191069214  0.618464466543135  1.0000
  S   S65       1.0  0.053015217473646466  0.7137344744713873  0.5272790907266873  1.0000
  S   S66       1.0  0.11660049199640622  0.6992212673197031  0.6004396985780092  1.0000
  Fe  Fe34      1.0  0.03490625252961577  0.7216158064379784  0.7161331374809055  1.0000
  S   S67       1.0  0.00757771766227977  0.7281763907082069  0.6331571909739995  1.0000
  S   S68       1.0  0.025436921739719676  0.7269247863595769  0.8264147789547845  1.0000
  Fe  Fe35      1.0  0.024008573293822222  0.6945336607875671  0.5898088817150154  1.0000
  S   S69       1.0  0.0005373483871002893  0.6680762244600751  0.5362938804115388  1.0000
  Fe  Fe36      1.0  0.038982730292851604  0.7467035252806846  0.5784079132563684  1.0000
  S   S70       1.0  0.03654270500200352  0.7806525063860749  0.5150186270703013  1.0000
  S   S71       1.0  0.04906977039516437  0.6863888065249266  0.6771384842376824  1.0000
  S   S72       1.0  0.06498347491240321  0.7432913575510325  0.6655256144417283  1.0000
  Fe  Fe37      1.0  0.08762477879734232  0.9264786512523585  0.5144636317109772  1.0000
  S   S73       1.0  0.06568994480837942  0.9207231148620825  0.6113096565774807  1.0000
  S   S74       1.0  0.07336551155729154  0.9310764868340778  0.408124819997014  1.0000
  Fe  Fe38      1.0  0.13677235471170648  0.9240157294962491  0.5838538474050036  1.0000
  S   S75       1.0  0.1196892100243393  0.9174859936913444  0.6870950088547605  1.0000
  S   S76       1.0  0.1780137556034835  0.927179813410261  0.5763713614657223  1.0000
  Fe  Fe39      1.0  0.09423850910941363  0.892691417919921  0.6353834167985863  1.0000
  S   S77       1.0  0.08164669134032433  0.8603369946859847  0.6959164712497683  1.0000
  Fe  Fe40      1.0  0.09264371540771488  0.9458383554119925  0.6567244377657095  1.0000
  S   S78       1.0  0.0804432848821508  0.9705100011646739  0.7392564423145236  1.0000
  S   S79       1.0  0.11417862238911773  0.8959173822322914  0.5344020149702379  1.0000
  S   S80       1.0  0.11172171497381442  0.9549414191811693  0.5575518382769735  1.0000
  Fe  Fe41      1.0  0.7370549162755433  0.024464589563836014  0.5683754046511833  1.0000
  S   S81       1.0  0.7283323648552005  0.9993843379714645  0.6566030776908391  1.0000
  S   S82       1.0  0.7399755506397074  0.012911745864131463  0.45989184989484105  1.0000
  Fe  Fe42      1.0  0.737096349060912  0.06878269843550869  0.6551881464738711  1.0000
  S   S83       1.0  0.7284217243578383  0.04763396531426145  0.750845633305388  1.0000
  S   S84       1.0  0.7418468666829184  0.10861743771461747  0.6652455706965925  1.0000
  Fe  Fe43      1.0  0.7560946059672289  0.02107386838313796  0.7112588502118488  1.0000
  S   S85       1.0  0.7837161442990813  0.005100536102200292  0.7833212670067784  1.0000
  Fe  Fe44      1.0  0.7014993060552046  0.0282654720173372  0.6874142610527229  1.0000
  S   S86       1.0  0.6632549083016038  0.020691527320351843  0.7273042312463793  1.0000
  S   S87       1.0  0.7672990448855289  0.04392530798276618  0.6204003396618732  1.0000
  S   S88       1.0  0.7076677889368767  0.051556016823073536  0.5948725796381032  1.0000
  Fe  Fe45      1.0  0.9447321675273209  0.03136838158311628  0.8151605711374309  1.0000
  S   S89       1.0  0.9487314377426511  0.009273125763308965  0.7214042473943416  1.0000
  S   S90       1.0  0.949641565678127  0.019290307967573916  0.9238644951218611  1.0000
  Fe  Fe46      1.0  0.9321653798860425  0.07706033681816588  0.7364053790699376  1.0000
  S   S91       1.0  0.9344177013982958  0.05931688006597799  0.6355664050122721  1.0000
  S   S92       1.0  0.9233635176654001  0.11610822787685683  0.7480067297505163  1.0000
  Fe  Fe47      1.0  0.914584941171941  0.028753645130782157  0.6879093336138788  1.0000
  S   S93       1.0  0.8864416192370369  0.009435592970324482  0.6280482308759964  1.0000
  Fe  Fe48      1.0  0.9681590575460804  0.041617658031696925  0.6772026215288889  1.0000
  S   S94       1.0  0.001114957943550321  0.03900768263623333  0.6082643941669481  1.0000
  S   S95       1.0  0.9086023396338214  0.048299990168214846  0.7855133267501089  1.0000
  S   S96       1.0  0.9677563185293032  0.061850112088658316  0.7740548428372933  1.0000
  Fe  Fe49      1.0  0.15377180655325523  0.401300329282208  0.1701747847657213  1.0000
  S   S97       1.0  0.15117433211767553  0.38475259489263286  0.06771169225996232  1.0000
  S   S98       1.0  0.12329184946692447  0.41939639943370755  0.22911649684132593  1.0000
  Fe  Fe50      1.0  0.20910145850374487  0.3975064958553697  0.1719415434921167  1.0000
  S   S99       1.0  0.2121837294666383  0.3809072485549594  0.06941512824942064  1.0000
  S   S100      1.0  0.2418394452503447  0.4043278254901828  0.2363046026229649  1.0000
  Fe  Fe51      1.0  0.1834481981484193  0.4079126094554257  0.03849915350175803  1.0000
  S   S101      1.0  0.18363964884243583  0.42338312469119893  0.9320628832989076  1.0000
  Fe  Fe52      1.0  0.17996904414116743  0.35879582371871555  0.10551295004200822  1.0000
  S   S102      1.0  0.18100022816586536  0.32054852443294596  0.07134810957061388  1.0000
  S   S103      1.0  0.1836275584372297  0.4269850659622942  0.13769739432443043  1.0000
  S   S104      1.0  0.1793982362401602  0.37286105248587903  0.21181462160429826  1.0000
  Fe  Fe53      1.0  0.2826276626176885  0.2351105979802905  0.09296950913821324  1.0000
  S   S105      1.0  0.2965453700823352  0.22301054508893045  0.9914654689929889  1.0000
  S   S106      1.0  0.28562779627491414  0.2735489595311077  0.12465575266322083  1.0000
  Fe  Fe54      1.0  0.2612324537049193  0.18605138255478554  0.13169962303806138  1.0000
  S   S107      1.0  0.2730394343392411  0.16981439159744502  0.032586894080682605  1.0000
  S   S108      1.0  0.23632670512745552  0.16699419263448548  0.20804803181600431  1.0000
  Fe  Fe55      1.0  0.30852817259614534  0.1895461823841552  0.04845542436259631  1.0000
  S   S109      1.0  0.345510298819199  0.1729401584486197  0.021361574055925203  1.0000
  Fe  Fe56      1.0  0.2600136640230257  0.20461533353009204  0.9853173408059832  1.0000
  S   S110      1.0  0.23573857885605437  0.20951757029751605  0.8946148139240057  1.0000
  S   S111      1.0  0.29767055830596933  0.20339855852388594  0.1516074434619015  1.0000
  S   S112      1.0  0.24520441858700545  0.21912762125138097  0.08294521117421572  1.0000
  Fe  Fe57      1.0  0.46160124319130724  0.22403737738875362  0.14621194296105955  1.0000
  S   S113      1.0  0.4572981630827824  0.23594812505215498  0.03723013317259549  1.0000
  S   S114      1.0  0.4287365899781512  0.21159038868528912  0.20877440483290138  1.0000
  Fe  Fe58      1.0  0.5166598800865843  0.23277389542277055  0.14523348305852557  1.0000
  S   S115      1.0  0.5171029657870192  0.24520950829523674  0.0357704032295354  1.0000
  S   S116      1.0  0.5528598115572784  0.22904928193226654  0.19926609924185076  1.0000
  Fe  Fe59      1.0  0.48272251153540763  0.2657190856805041  0.06360292521211619  1.0000
  S   S117      1.0  0.47705882782428666  0.30277479181018263  0.01796533132763023  1.0000
  Fe  Fe60      1.0  0.4917806945097033  0.2142980011055744  0.019195118124982757  1.0000
  S   S118      1.0  0.4971534212154281  0.1917213005059694  0.9260413057887082  1.0000
  S   S119      1.0  0.4841784253610086  0.25593265300197426  0.17492142233388133  1.0000
  S   S120      1.0  0.49425797521688974  0.20001178583439586  0.1264851034936596  1.0000
  Fe  Fe61      1.0  0.4091958254303103  0.4330044945201746  0.003542852503294114  1.0000
  S   S121      1.0  0.42741532937806  0.4203139472950419  0.09969158786379673  1.0000
  S   S122      1.0  0.42817102936809304  0.4368119903770699  0.9008363109135574  1.0000
  Fe  Fe62      1.0  0.36012518812744954  0.44317913135155723  0.07623483733063097  1.0000
  S   S123      1.0  0.3741066747261931  0.43067045407677623  0.17773426058378608  1.0000
  S   S124      1.0  0.3224617869145032  0.4593252871028648  0.05912711267101112  1.0000
  Fe  Fe63      1.0  0.40813096841550356  0.4514827613812865  0.14835805811143277  1.0000
  S   S125      1.0  0.4266014793160382  0.4793754861700413  0.2108923885809541  1.0000
  Fe  Fe64      1.0  0.3917559279032317  0.4007070276464535  0.11894147506439734  1.0000
  S   S126      1.0  0.39001065581570865  0.3621451364825173  0.15504308475062478  1.0000
  S   S127      1.0  0.39289472642623696  0.46597627350759835  0.05050648862031859  1.0000
  S   S128      1.0  0.3747273306673474  0.41135343837955246  0.019603909021728372  1.0000
  Fe  Fe65      1.0  0.17685126528359496  0.5909511630364965  0.7714970407610029  1.0000
  S   S129      1.0  0.1812692851019265  0.5825003737410637  0.6609192984633526  1.0000
  S   S130      1.0  0.15113043160649503  0.6193430646283445  0.8122028832110185  1.0000
  Fe  Fe66      1.0  0.20831051964936467  0.5484566050669644  0.8171325662735681  1.0000
  S   S131      1.0  0.2151935913760967  0.5360051656393984  0.7107698169729633  1.0000
  S   S132      1.0  0.22421526837357658  0.5292818801604383  0.9082499496021622  1.0000
  Fe  Fe67      1.0  0.22088899472055398  0.5750862654893707  0.6861262949708565  1.0000
  S   S133      1.0  0.25303862963904206  0.5834050926307284  0.6161551988611786  1.0000
  Fe  Fe68      1.0  0.17507203399236432  0.5443904572815513  0.6955581423438785  1.0000
  S   S134      1.0  0.14706773443606852  0.5232695444438319  0.63977207144853  1.0000
  S   S135      1.0  0.217199273259313  0.5871130622414099  0.79415778057211  1.0000
  S   S136      1.0  0.1675434397167239  0.5532026502030832  0.8043825934994275  1.0000
  Fe  Fe69      1.0  0.38275328680077203  0.5444548853256522  0.6901075288668125  1.0000
  S   S137      1.0  0.3816206310707461  0.546443275844625  0.5759093970140637  1.0000
  S   S138      1.0  0.35152920820330236  0.5536349850815075  0.7621682858948181  1.0000
  Fe  Fe70      1.0  0.43692928484188304  0.5297298381968032  0.6913915341977167  1.0000
  S   S139      1.0  0.44035378517853757  0.5301666560717162  0.5775284581307576  1.0000
  S   S140      1.0  0.4680241256788383  0.5207028774364825  0.7619230381928684  1.0000
  Fe  Fe71      1.0  0.4183510120715982  0.564432617890918  0.5836436301596013  1.0000
  S   S141      1.0  0.42908117643220994  0.5967929597344289  0.5199790766303208  1.0000
  Fe  Fe72      1.0  0.4035820443436451  0.5120331276409947  0.5811028934175909  1.0000
  S   S142      1.0  0.39542103047776417  0.47865372050159316  0.5229887676312897  1.0000
  S   S143      1.0  0.4177720611097142  0.5653284999703188  0.6973506304152364  1.0000
  S   S144      1.0  0.40181138897904695  0.5087029341989782  0.6951918486201744  1.0000
  Fe  Fe73      1.0  0.6306357124761077  0.1822125600189293  0.5701876922664706  1.0000
  S   S145      1.0  0.63481132470436  0.18573129705033983  0.6826960771684367  1.0000
  S   S146      1.0  0.6589625861096662  0.16462567923535495  0.5024633131637011  1.0000
  Fe  Fe74      1.0  0.5778568823865505  0.20134489172635867  0.5720373093379283  1.0000
  S   S147      1.0  0.5774971332515139  0.2058797367935739  0.6852206176993194  1.0000
  S   S148      1.0  0.5426921998566114  0.21059681161606425  0.5176630486608813  1.0000
  Fe  Fe75      1.0  0.6152055525867421  0.22109913440830015  0.667166201577365  1.0000
  S   S149      1.0  0.626737856083296  0.25484532850841585  0.7174881823694559  1.0000
  Fe  Fe76      1.0  0.5968319067614419  0.1701732447076934  0.6895800634916737  1.0000
  S   S150      1.0  0.5868054540192404  0.14283730132283293  0.7715669104223993  1.0000
  S   S151      1.0  0.614428538461869  0.21913677356857517  0.5533983981591553  1.0000
  S   S152      1.0  0.5937601459659054  0.16416814125613474  0.5777871281860572  1.0000
  Fe  Fe77      1.0  0.5701571058634772  0.37863308141055585  0.68728971884989  1.0000
  S   S153      1.0  0.5897981284744068  0.3819055694376312  0.7858852990064961  1.0000
  S   S154      1.0  0.5575023146762172  0.3433788499147347  0.646961921162927  1.0000
  Fe  Fe78      1.0  0.5638596364889886  0.43273132869329556  0.6696419404092678  1.0000
  S   S155      1.0  0.5822504575144478  0.44064875298910344  0.7674928776468426  1.0000
  S   S156      1.0  0.549983601477217  0.46288191955982044  0.60289389817115  1.0000
  Fe  Fe79      1.0  0.609751929813867  0.41278187168511576  0.734097246931584  1.0000
  S   S157      1.0  0.6506727289212606  0.41959710122567706  0.7342807025752882  1.0000
  Fe  Fe80      1.0  0.5605017195424953  0.4093234239221434  0.8094583299299865  1.0000
  S   S158      1.0  0.5403534981429897  0.4065731995875134  0.9100176339328632  1.0000
  S   S159      1.0  0.5927173368593371  0.40692418314757467  0.6324554013825675  1.0000
  S   S160      1.0  0.5394271027692951  0.404021248948533  0.7143650534081323  1.0000
  Fe  Fe81      1.0  0.23371047549782917  0.04520655874268131  0.5101168150400168  1.0000
  S   S161      1.0  0.23978556649415983  0.03540382542030951  0.6198230043470662  1.0000
  S   S162      1.0  0.2065905026361846  0.027343809440218747  0.4432565117843778  1.0000
  Fe  Fe82      1.0  0.27040740146092834  0.08587472437835966  0.5075649568387713  1.0000
  S   S163      1.0  0.2795889941542266  0.08031456873558401  0.6172772070853755  1.0000
  S   S164      1.0  0.2929938492764136  0.11138248138057437  0.4420150978654549  1.0000
  Fe  Fe83      1.0  0.2800025225388713  0.04103036452961195  0.5945040646323437  1.0000
  S   S165      1.0  0.3107318004302935  0.015893307297215387  0.6261561824240974  1.0000
  Fe  Fe84      1.0  0.238817809937196  0.07522098490777772  0.6339610724973561  1.0000
  S   S166      1.0  0.21929641972420996  0.09012075984207682  0.7255889947369882  1.0000
  S   S167      1.0  0.2739203470549647  0.04692310586969817  0.48280283892674664  1.0000
  S   S168      1.0  0.22943368805857411  0.08486220126034705  0.5261631964824343  1.0000
  Fe  Fe85      1.0  0.47283575653958315  0.06092441837361977  0.8863844396495965  1.0000
  S   S169      1.0  0.46215869055094844  0.08159220976283173  0.7925975436927707  1.0000
  S   S170      1.0  0.4772946740982762  0.08122805135660144  0.9829511098984308  1.0000
  Fe  Fe86      1.0  0.46844315584547014  0.012850997771851835  0.8177771020274106  1.0000
  S   S171      1.0  0.4563472670037679  0.029865348271363334  0.7186779537993719  1.0000
  S   S172      1.0  0.47322979629203227  0.9725639098015015  0.8212513990556338  1.0000
  Fe  Fe87      1.0  0.4867239153989728  0.055798696283323686  0.7376205437312403  1.0000
  S   S173      1.0  0.5131511784049267  0.06793586764126795  0.6550356204403937  1.0000
  Fe  Fe88      1.0  0.4327419119359884  0.053878412151619814  0.7839143258960091  1.0000
  S   S174      1.0  0.39542303623780756  0.07121285776562969  0.770042492574418  1.0000
  S   S175      1.0  0.5004585306981242  0.03741475721423915  0.8322342203011011  1.0000
  S   S176      1.0  0.44186909257340523  0.034533811641180634  0.8815017023298378  1.0000
  Fe  Fe89      1.0  0.05514499675165463  0.16822149564731845  0.8121557895145167  1.0000
  S   S177      1.0  0.06885388659307856  0.16340151465988445  0.7051915343162726  1.0000
  S   S178      1.0  0.015556509364488047  0.1758665911973639  0.8413733829541898  1.0000
  Fe  Fe90      1.0  0.10695337033318367  0.16800451404068592  0.8693192712879978  1.0000
  S   S179      1.0  0.1251658157458942  0.16312573158248697  0.7671333459265074  1.0000
  S   S180      1.0  0.12947325778293883  0.1692565265930151  0.9636772563542352  1.0000
  Fe  Fe91      1.0  0.09759539118500504  0.19043625590321198  0.7307357934634845  1.0000
  S   S181      1.0  0.10718957463183632  0.2197015568525783  0.654444474945447  1.0000
  Fe  Fe92      1.0  0.09502656092122533  0.136510915341879  0.7516509649883383  1.0000
  S   S182      1.0  0.1038880354119954  0.10145498721456502  0.7016941571843286  1.0000
  S   S183      1.0  0.08177196089488326  0.19765965729018067  0.8344957250726698  1.0000
  S   S184      1.0  0.07893543742607212  0.13903189493709833  0.8573606818563524  1.0000
  Fe  Fe93      1.0  0.07875388616720569  0.40228345236268087  0.6976457431867071  1.0000
  S   S185      1.0  0.113550126870408  0.38923887249901523  0.7459813453744538  1.0000
  S   S186      1.0  0.0589666840310854  0.4334620707216032  0.744902664349866  1.0000
  Fe  Fe94      1.0  0.08705608820530919  0.3713848197986249  0.5744033449766492  1.0000
  S   S187      1.0  0.12287308305231555  0.3560079543904066  0.6120893364139944  1.0000
  S   S188      1.0  0.07352992302102768  0.3607180705762615  0.4724881257295406  1.0000
  Fe  Fe95      1.0  0.10224697338997366  0.3528872660173375  0.7118799522248496  1.0000
  S   S189      1.0  0.10700054690394012  0.32206115478606295  0.7862114059094091  1.0000
  Fe  Fe96      1.0  0.13057032870298943  0.3937413896259464  0.6421567395793983  1.0000
  S   S190      1.0  0.16760758814734847  0.41148524188325525  0.6324098972484673  1.0000
  S   S191      1.0  0.06557685787889178  0.36540852703285615  0.6722735544988774  1.0000
  S   S192      1.0  0.09652686676688574  0.40944416311789666  0.5958226339508749  1.0000
  C   C1        1.0  0.10856575259384016  0.29385733603306563  0.7483214498384854  1.0000
  C   C2        1.0  0.10545118514783705  0.2916425732587663  0.678294696792029  1.0000
  C   C3        1.0  0.10582421611043902  0.26879999558857337  0.6493392445276548  1.0000
  C   C4        1.0  0.10908005525549824  0.2481692032275217  0.6904350424083339  1.0000
  C   C5        1.0  0.11277207877813411  0.2504458825292606  0.7601887188994785  1.0000
  C   C6        1.0  0.11247954585477715  0.2732723310624935  0.7891199453820885  1.0000
  H   H1        1.0  0.10231578684361467  0.3074457771450304  0.6465369417595279  1.0000
  H   H2        1.0  0.10306292778426486  0.26709444710176994  0.5952755110384679  1.0000
  H   H3        1.0  0.11595529605935329  0.23464948370971647  0.7918484640933046  1.0000
  H   H4        1.0  0.1150355169944357  0.2749430160152148  0.8432621161356275  1.0000
  C   C7        1.0  0.18698876320362176  0.09068221815754053  0.7204801793709353  1.0000
  C   C8        1.0  0.17291303234238817  0.09936024392706092  0.7752746429356452  1.0000
  C   C9        1.0  0.14733009833732685  0.1024168846165003  0.7696804201888696  1.0000
  C   C10       1.0  0.1356339755563044  0.09622066862206083  0.7098702148739383  1.0000
  C   C11       1.0  0.14951894671094135  0.08666984113812745  0.6558958950978943  1.0000
  C   C12       1.0  0.17526614551694872  0.08413777129584481  0.6608967757908699  1.0000
  H   H5        1.0  0.18181707528468494  0.10417153306971488  0.821806848238356  1.0000
  H   H6        1.0  0.13665364964564367  0.10966227138670333  0.811726274917061  1.0000
  H   H7        1.0  0.1404789600941171  0.08215789869219198  0.609293358918121  1.0000
  H   H8        1.0  0.18603333506234832  0.07749903625409504  0.6183383395041923  1.0000
  C   C13       1.0  0.3716467505669293  0.053450917848478996  0.7393710807042755  1.0000
  C   C14       1.0  0.34752252944457124  0.06266296523985182  0.740845465141303  1.0000
  C   C15       1.0  0.3284819560480931  0.05039787958216291  0.7095191052989654  1.0000
  C   C16       1.0  0.33353593759929046  0.02911707748862047  0.6753491931191257  1.0000
  C   C17       1.0  0.35746837016854477  0.019273529880083018  0.6765349470029542  1.0000
  C   C18       1.0  0.3765453608570452  0.0313806119003317  0.708881601634651  1.0000
  H   H9        1.0  0.3435817828231775  0.07952199125077875  0.7654107396210089  1.0000
  H   H10       1.0  0.3098942343833085  0.05746222650090527  0.7117699202030964  1.0000
  H   H11       1.0  0.3614072411288434  0.0026223628540134043  0.6508407847244277  1.0000
  H   H12       1.0  0.39513658626089465  0.02407919712044304  0.7080368129748245  1.0000
  C   C19       1.0  0.5685045912044836  0.11971721214682425  0.740895665638723  1.0000
  C   C20       1.0  0.5510995320465804  0.10850841061289097  0.7842033550607014  1.0000
  C   C21       1.0  0.5346424288668984  0.09183001242725415  0.7583094578570249  1.0000
  C   C22       1.0  0.5355552373374438  0.08635740739952537  0.6892620421372411  1.0000
  C   C23       1.0  0.5536831184022534  0.09667780687335188  0.6466719245303542  1.0000
  C   C24       1.0  0.5701972354701855  0.1132509769190916  0.6725806050665917  1.0000
  H   H13       1.0  0.5497601971538227  0.11320166436172387  0.8372784310999449  1.0000
  H   H14       1.0  0.5208805455452922  0.08362156092335783  0.7914982407269978  1.0000
  H   H15       1.0  0.5546136816431743  0.09226940933473611  0.5933007675922655  1.0000
  H   H16       1.0  0.5840915003767069  0.12100990050410491  0.639276233602158  1.0000
  C   C25       1.0  0.6069463094677011  0.27930974922947066  0.7008852479282365  1.0000
  C   C26       1.0  0.5834644662698051  0.27573991017730237  0.6745260539022843  1.0000
  C   C27       1.0  0.5680453468435681  0.2955223508855105  0.6602387277871644  1.0000
  C   C28       1.0  0.5763152390375537  0.3189280971815075  0.6704535875708877  1.0000
  C   C29       1.0  0.5996807045679655  0.3225166410578465  0.6973032713906042  1.0000
  C   C30       1.0  0.6148870322413746  0.30270004758937424  0.7130640747345777  1.0000
  H   H17       1.0  0.5771619981495184  0.2577691917641333  0.6652060811593624  1.0000
  H   H18       1.0  0.5498001339083043  0.2927042225685931  0.6405487124677834  1.0000
  H   H19       1.0  0.6063398866446817  0.3405365955809763  0.7045394819203626  1.0000
  H   H20       1.0  0.6330843426960591  0.3055286115443603  0.7332157360598569  1.0000
  C   C31       1.0  0.4925272190600408  0.5064444017590013  0.7192633560069163  1.0000
  C   C32       1.0  0.5065113571026887  0.48895032919304765  0.7535452185740963  1.0000
  C   C33       1.0  0.5248530001379865  0.4760773786946573  0.7183068124238635  1.0000
  C   C34       1.0  0.5293150638071654  0.48079364796665947  0.6490262113243278  1.0000
  C   C35       1.0  0.5162825614916433  0.49917567810486346  0.6156887305074559  1.0000
  C   C36       1.0  0.49779008861617885  0.5118918605674151  0.6507185373084766  1.0000
  H   H21       1.0  0.502629890131288  0.48471683617404876  0.8066531183528428  1.0000
  H   H22       1.0  0.5350503059895703  0.46205865362772375  0.744361388763403  1.0000
  H   H23       1.0  0.5199100979766212  0.5030416544839351  0.5622116931395327  1.0000
  H   H24       1.0  0.487749464605939  0.5259102672283509  0.6244143126975711  1.0000
  C   C37       1.0  0.15422521047605486  0.4925449748448956  0.634489783516781  1.0000
  C   C38       1.0  0.13912229591427325  0.47784828729047  0.5966040321386703  1.0000
  C   C39       1.0  0.14375989631033745  0.45307947268432636  0.5942536086872038  1.0000
  C   C40       1.0  0.16329077951457383  0.4428031909966773  0.6304741776154216  1.0000
  C   C41       1.0  0.17890705700810913  0.4575740160781953  0.6667155961639812  1.0000
  C   C42       1.0  0.17427840576310882  0.4824306650618361  0.6690420318836681  1.0000
  H   H25       1.0  0.12375649493271733  0.4856205439871345  0.5691545084460959  1.0000
  H   H26       1.0  0.1324082324150487  0.4420667695057384  0.5634070301843552  1.0000
  H   H27       1.0  0.19417819168396813  0.4497426054425386  0.694420357090609  1.0000
  H   H28       1.0  0.18600453759506425  0.4936538252445352  0.6983276198578752  1.0000
  C   C43       1.0  0.27994997087099  0.5742509550614966  0.6572721035491763  1.0000
  C   C44       1.0  0.2980011760622219  0.5609574487292356  0.6223812055693351  1.0000
  C   C45       1.0  0.3198321755536002  0.5540379962377291  0.6549363668834904  1.0000
  C   C46       1.0  0.32385186118312453  0.5609091380527684  0.72176036777536  1.0000
  C   C47       1.0  0.305722699731486  0.5740754365581203  0.7567241312105283  1.0000
  C   C48       1.0  0.2836874485687954  0.5805382735764885  0.7247280536156071  1.0000
  H   H29       1.0  0.2949309599102763  0.5557873506030812  0.5704873273026889  1.0000
  H   H30       1.0  0.333317795604223  0.5431451438678738  0.6285268090951269  1.0000
  H   H31       1.0  0.3087964972541065  0.5795920115467367  0.8083023716793665  1.0000
  H   H32       1.0  0.2698634233570996  0.5909940109640127  0.7516330236829881  1.0000
  C   C49       1.0  0.4585679702676567  0.42563058819493166  0.8988201875111768  1.0000
  C   C50       1.0  0.4671692677454722  0.4104707772302943  0.9510062823556956  1.0000
  C   C51       1.0  0.49226890575625853  0.4042334303325875  0.953540776053517  1.0000
  C   C52       1.0  0.5087160064231545  0.4126161804731248  0.9028041240893702  1.0000
  C   C53       1.0  0.4999128930847441  0.4267905305423073  0.8487018743785432  1.0000
  C   C54       1.0  0.47488300603836514  0.43341145208739945  0.8468834661288356  1.0000
  H   H33       1.0  0.45457260182930076  0.40358427035045563  0.989679132193532  1.0000
  H   H34       1.0  0.4989457419902819  0.3930669311383698  0.9951965269638576  1.0000
  H   H35       1.0  0.51260266897158  0.43362540758828466  0.8101700596990667  1.0000
  H   H36       1.0  0.46841425514345697  0.44540845355454056  0.8069223049634172  1.0000
  C   C55       1.0  0.418668097795386  0.47870980546682035  0.2981494835491961  1.0000
  C   C56       1.0  0.4236073088356317  0.49872280862511853  0.33771121208748656  1.0000
  C   C57       1.0  0.4165489026357248  0.4988930414017819  0.40689016038371645  1.0000
  C   C58       1.0  0.40472661934801324  0.47892491324276404  0.4368183177449533  1.0000
  C   C59       1.0  0.4000071541909501  0.4588295381298325  0.39742862627793124  1.0000
  C   C60       1.0  0.4068729680483836  0.4587474688615843  0.32817446697399294  1.0000
  H   H37       1.0  0.432770285110191  0.514203179278981  0.3147448832498652  1.0000
  H   H38       1.0  0.4202509767834547  0.5144788334680791  0.43692631658696357  1.0000
  H   H39       1.0  0.3909627967614294  0.4432935025015542  0.42046079648654255  1.0000
  H   H40       1.0  0.4033493744043254  0.44308649577166165  0.2983586238146967  1.0000
  C   C61       1.0  0.4910742116030921  0.16112533992259478  0.9418584231518174  1.0000
  C   C62       1.0  0.4809630641447039  0.15318327335656384  0.004286568261416823  1.0000
  C   C63       1.0  0.4776412797662641  0.12854337941572777  0.01767509358149133  1.0000
  C   C64       1.0  0.483542840761258  0.11181361401148358  0.9676879240478541  1.0000
  C   C65       1.0  0.4933252630084382  0.11978161317729462  0.9049125676549105  1.0000
  C   C66       1.0  0.49722667461769526  0.1443660806279487  0.8921174573898121  1.0000
  H   H41       1.0  0.47552793762711787  0.1659417822481427  0.04227412437118394  1.0000
  H   H42       1.0  0.47021437016833334  0.12250219160344704  0.06656860354728122  1.0000
  H   H43       1.0  0.49837646995441864  0.10692886490246156  0.8668410262786042  1.0000
  H   H44       1.0  0.5054520498771616  0.15030950405042898  0.8442487460201505  1.0000
  C   C67       1.0  0.5497785516762128  0.22306403991758267  0.28734292561923325  1.0000
  C   C68       1.0  0.5267626947755446  0.22486962705375332  0.3204949926026672  1.0000
  C   C69       1.0  0.5247331344977523  0.22077980356788085  0.39114186920227073  1.0000
  C   C70       1.0  0.5456365576700638  0.21460443283619104  0.42884670913982903  1.0000
  C   C71       1.0  0.5686191299411283  0.21246780912265126  0.39567513724311504  1.0000
  C   C72       1.0  0.5706924441775959  0.21681358207292206  0.3250701069240729  1.0000
  H   H45       1.0  0.5105230647050589  0.22956515749140333  0.29178065238047673  1.0000
  H   H46       1.0  0.5069041501143655  0.2224494882051107  0.41650960769788037  1.0000
  H   H47       1.0  0.5847910102953995  0.20741305177827593  0.42425243425494946  1.0000
  H   H48       1.0  0.5885013251535115  0.21517873959587563  0.2995389417049303  1.0000
  C   C73       1.0  0.4528721340752066  0.3190557965527069  0.05670951965629367  1.0000
  C   C74       1.0  0.4402079630916449  0.3097726742367831  0.11413384609475563  1.0000
  C   C75       1.0  0.4209366182811244  0.32310152338296266  0.14444445491590852  1.0000
  C   C76       1.0  0.4142224403973736  0.34563975219221543  0.11717079541857567  1.0000
  C   C77       1.0  0.4267492398285378  0.35480216712660684  0.05942883806782229  1.0000
  C   C78       1.0  0.4460893437239776  0.3415739856843186  0.02940788588216936  1.0000
  H   H49       1.0  0.4454801065192327  0.2924814447407497  0.13568079818149248  1.0000
  H   H50       1.0  0.41152982285533135  0.3161644169174851  0.18970993695910202  1.0000
  H   H51       1.0  0.42148429138576754  0.37203915208792454  0.037532674320620796  1.0000
  H   H52       1.0  0.45577728282966573  0.34882638588339887  0.9849473752963268  1.0000
  C   C79       1.0  0.15885284354820478  0.18070242449691828  0.9445590783780208  1.0000
  C   C80       1.0  0.16242310015725145  0.19691747638358698  0.8898786080979922  1.0000
  C   C81       1.0  0.18597350195097484  0.20635733973328627  0.8759104481902019  1.0000
  C   C82       1.0  0.20603472529264827  0.19917420056963034  0.9155766086464807  1.0000
  C   C83       1.0  0.20238566501000393  0.18318716005239838  0.970679008856768  1.0000
  C   C84       1.0  0.17879819467157418  0.1739776904250304  0.9851646571275839  1.0000
  H   H53       1.0  0.14694076344509707  0.20251059261017368  0.8591666323954514  1.0000
  H   H54       1.0  0.18859304168425128  0.21932272917888426  0.8346461845174709  1.0000
  H   H55       1.0  0.21781180521056165  0.1775140205801964  0.001437558948008899  1.0000
  H   H56       1.0  0.17608577313405513  0.16132578462601135  0.027252977958120983  1.0000
  C   C85       1.0  0.25221716197147054  0.1522941668743005  0.27404754787219  1.0000
  C   C86       1.0  0.2779876057077655  0.15041712049409173  0.27193506065325534  1.0000
  C   C87       1.0  0.29038370597218854  0.13822615878514305  0.3245341588872648  1.0000
  C   C88       1.0  0.27704163772428475  0.12762366565045538  0.378942102796097  1.0000
  C   C89       1.0  0.2512654679459541  0.12950057930759568  0.3811466042759035  1.0000
  C   C90       1.0  0.2388759901263905  0.141884417429682  0.3288047250118666  1.0000
  H   H57       1.0  0.28838470446062064  0.1581939811437452  0.22954345764438575  1.0000
  H   H58       1.0  0.31033077762319367  0.1368000559131011  0.32253926796720794  1.0000
  H   H59       1.0  0.24087956627197543  0.12165955453881891  0.4233584847474813  1.0000
  H   H60       1.0  0.2189398056968432  0.1434820270205548  0.3307671757958651  1.0000
  C   C91       1.0  0.40660964769531927  0.19753870891263475  0.1594665428087072  1.0000
  C   C92       1.0  0.382635261729256  0.1943276977370308  0.1858760185785205  1.0000
  C   C93       1.0  0.3639489852755449  0.18589569109723303  0.14434435367029885  1.0000
  C   C94       1.0  0.3691790309702012  0.180697407734795  0.07629194596584643  1.0000
  C   C95       1.0  0.3934316649672449  0.1827652557907543  0.050824381223609105  1.0000
  C   C96       1.0  0.41213186026790327  0.19117023555365636  0.09238446479629392  1.0000
  H   H61       1.0  0.3783712886760465  0.19892560995147052  0.23803695552861137  1.0000
  H   H62       1.0  0.34550743131207917  0.18351398875723718  0.16504367571617673  1.0000
  H   H63       1.0  0.39763108128660263  0.17874310643283353  0.9982653099239741  1.0000
  H   H64       1.0  0.43075581259094503  0.19294763770000925  0.0722692526623483  1.0000
  C   C97       1.0  0.11078943570651166  0.4025080165349549  0.297386750422095  1.0000
  C   C98       1.0  0.10207526216666386  0.41449424909609345  0.3549920346772497  1.0000
  C   C99       1.0  0.0916743756895047  0.40148949594029787  0.41005190136538305  1.0000
  C   C100      1.0  0.08893173628583029  0.3765850330486291  0.4065010750492794  1.0000
  C   C101      1.0  0.09759659203377964  0.3645680642419383  0.3487706399463923  1.0000
  C   C102      1.0  0.10904001541397214  0.37747662762715917  0.2947391999142263  1.0000
  H   H65       1.0  0.10343589373060354  0.43387060978621994  0.3570289557529609  1.0000
  H   H66       1.0  0.08496488759438085  0.41086897895451285  0.45413633432487677  1.0000
  H   H67       1.0  0.09544333589619323  0.345288228234616  0.3458291188981155  1.0000
  H   H68       1.0  0.11566044932876293  0.36818506767799813  0.2500747813883851  1.0000
  C   C103      1.0  0.19600998204997797  0.45238200190364547  0.9255042174785192  1.0000
  C   C104      1.0  0.20729989560971013  0.4627636652075602  0.9809613545593545  1.0000
  C   C105      1.0  0.21599315825772825  0.4864390829823144  0.9756138356795152  1.0000
  C   C106      1.0  0.2131492778281261  0.49980128957199993  0.9150316448410266  1.0000
  C   C107      1.0  0.20214111316047798  0.4893025880140708  0.8593967671258598  1.0000
  C   C108      1.0  0.1938559659728508  0.4655180585687277  0.8643489791038406  1.0000
  H   H69       1.0  0.20930452540642247  0.45263092356229223  0.027986142134627467  1.0000
  H   H70       1.0  0.22463381497015783  0.49448741778090555  0.01867333032892282  1.0000
  H   H71       1.0  0.20011157444040542  0.4994817376214938  0.8124814775746844  1.0000
  H   H72       1.0  0.18540835156753827  0.4574116353583966  0.8211359816097028  1.0000
  C   C109      1.0  0.21062805717756522  0.30852157792578977  0.08419117973313939  1.0000
  C   C110      1.0  0.2196426917135315  0.29035722473469294  0.042102892820793825  1.0000
  C   C111      1.0  0.24294180063373585  0.2800281868331326  0.053545322760624625  1.0000
  C   C112      1.0  0.2570943752592332  0.2874855166845704  0.10791788324465168  1.0000
  C   C113      1.0  0.24822088818785704  0.30589034618010597  0.14944505031206945  1.0000
  C   C114      1.0  0.22511021363469155  0.31659858337902513  0.13716655970646174  1.0000
  H   H73       1.0  0.20874749997882708  0.284376606424498  0.0002563615585888801  1.0000
  H   H74       1.0  0.25000092207593005  0.26633638110532126  0.01993541094031137  1.0000
  H   H75       1.0  0.2588561065399281  0.31132220160336616  0.19237403356466615  1.0000
  H   H76       1.0  0.2181223328343602  0.3305147519511643  0.17016403783997666  1.0000
  C   C115      1.0  0.2633449768502707  0.42182148616470994  0.19010634896147624  1.0000
  C   C116      1.0  0.25722167950369645  0.432389744990435  0.12734848152674072  1.0000
  C   C117      1.0  0.2752073861026802  0.4447921017530351  0.08833573810111406  1.0000
  C   C118      1.0  0.29951414844271007  0.44590652293794064  0.11105489329454277  1.0000
  C   C119      1.0  0.3054746960239867  0.43558228214577205  0.1741870001098157  1.0000
  C   C120      1.0  0.2873381666856927  0.42393627418267454  0.2142126399746927  1.0000
  H   H77       1.0  0.2386966845963503  0.43085504481568443  0.10849865613006826  1.0000
  H   H78       1.0  0.27039595221116103  0.4528099992926355  0.039657897483468485  1.0000
  H   H79       1.0  0.32399433217541823  0.43661867695615825  0.19253287970330973  1.0000
  H   H80       1.0  0.2920932231025344  0.4158598251110617  0.26287721265384756  1.0000
  C   C121      1.0  0.9495235543797721  0.1326685259595118  0.7704845771090889  1.0000
  C   C122      1.0  0.9734453984069  0.1262872831048972  0.7480388667439717  1.0000
  C   C123      1.0  0.9940079187612192  0.1397177577294878  0.76784433094024  1.0000
  C   C124      1.0  0.9906577471699559  0.15912096018823732  0.8114538924362016  1.0000
  C   C125      1.0  0.9667490887084031  0.16557912405411984  0.8328318286496232  1.0000
  C   C126      1.0  0.9462804119282713  0.15258730498315098  0.8119112136896254  1.0000
  H   H81       1.0  0.9760079754161202  0.11136840689619673  0.7142313498036992  1.0000
  H   H82       1.0  0.012318359165561121  0.1351776453606311  0.7491523741536122  1.0000
  H   H83       1.0  0.9640092310394736  0.18061690710522532  0.8662253847260873  1.0000
  H   H84       1.0  0.9279088816170988  0.15768359722689762  0.8291577607038005  1.0000
  C   C127      1.0  0.7202872405915803  0.1251680338804787  0.6170782851294528  1.0000
  C   C128      1.0  0.7113209753826724  0.14726106127608488  0.6404892474176276  1.0000
  C   C129      1.0  0.6927258801441775  0.15973013589629748  0.6050043782409013  1.0000
  C   C130      1.0  0.6832844704857041  0.15024812640241073  0.5455566802656625  1.0000
  C   C131      1.0  0.6928776255771397  0.1285828575745202  0.5209957292391062  1.0000
  C   C132      1.0  0.711164849534927  0.11595208643016454  0.5570078591340965  1.0000
  H   H85       1.0  0.7184522294004462  0.15456096616713275  0.686676086969386  1.0000
  H   H86       1.0  0.6857834900160739  0.1767145731186122  0.6234387785334998  1.0000
  H   H87       1.0  0.6858711591553419  0.1213580882871904  0.4745387677842701  1.0000
  H   H88       1.0  0.7184450690259934  0.09925090900451874  0.5376004332261518  1.0000
  C   C133      1.0  0.8124840964644992  0.0036312976301500206  0.7412703773450191  1.0000
  C   C134      1.0  0.813736228949925  0.0019311784046205371  0.6704397238420172  1.0000
  C   C135      1.0  0.8366497222467355  0.002823828716729038  0.636146131495072  1.0000
  C   C136      1.0  0.8583122776018709  0.005838351753907567  0.6725066504324434  1.0000
  C   C137      1.0  0.8571595382468948  0.006987722195376245  0.7435420702959497  1.0000
  C   C138      1.0  0.8342463108764834  0.005609548239416062  0.7780387177637041  1.0000
  H   H89       1.0  0.7970165936154814  0.999894050482006  0.6419413164892863  1.0000
  H   H90       1.0  0.8374873378637395  0.0018233089860402172  0.5812222806093976  1.0000
  H   H91       1.0  0.8738900636162603  0.009036466291158396  0.7717267102430749  1.0000
  H   H92       1.0  0.8332689182350935  0.00695578507974659  0.8328423785981693  1.0000
  C   C139      1.0  0.1874893469908391  0.9532423444659889  0.5314559366695268  1.0000
  C   C140      1.0  0.21003613322016912  0.9638195710159638  0.5467320990868703  1.0000
  C   C141      1.0  0.2164474965614573  0.9862227506246944  0.5176338152783978  1.0000
  C   C142      1.0  0.20048068166592004  0.9979112806029057  0.4724054071364987  1.0000
  C   C143      1.0  0.17857336160460077  0.9867332631372702  0.4542186810166502  1.0000
  C   C144      1.0  0.17199889677960684  0.9644859519790903  0.48410429614695977  1.0000
  H   H93       1.0  0.22221156395421657  0.9550392088461921  0.5827462565085193  1.0000
  H   H94       1.0  0.23369969582204314  0.9944564439908984  0.5306004956439095  1.0000
  H   H95       1.0  0.16627436786267827  0.9956050790838425  0.4187419127789054  1.0000
  H   H96       1.0  0.15496420710163  0.9560196954804534  0.4703611603604776  1.0000
  C   C145      1.0  0.058544391476889945  0.9898508849856872  0.7037304738817082  1.0000
  C   C146      1.0  0.06135582106455573  0.9976584853584249  0.635999399580667  1.0000
  C   C147      1.0  0.0438068314352702  0.01312980092875038  0.6071100116700844  1.0000
  C   C148      1.0  0.023116289475522134  0.020189079605347438  0.6454077250786507  1.0000
  C   C149      1.0  0.019982526981862536  0.011982260130485534  0.7127953682436926  1.0000
  C   C150      1.0  0.037907522651501546  0.9969910626915421  0.7423008437209399  1.0000
  H   H97       1.0  0.07717274636719629  0.9920315686141202  0.6058838394018894  1.0000
  H   H98       1.0  0.04617373995754437  0.01945081260400716  0.5549096642340589  1.0000
  H   H99       1.0  0.0038499828073881304  0.017267651247275806  0.7422463608327943  1.0000
  H   H100      1.0  0.035513362363445156  0.9905465770688336  0.7943423258053756  1.0000
  C   C151      1.0  0.12667100389995492  0.6774514913841949  0.6598748633527562  1.0000
  C   C152      1.0  0.14736535281982913  0.6630960883784842  0.6448845371630771  1.0000
  C   C153      1.0  0.15510654602409826  0.6452124147793157  0.6915193344418477  1.0000
  C   C154      1.0  0.14234214596528164  0.6419089716009425  0.7535651182650583  1.0000
  C   C155      1.0  0.12186800605060173  0.6564901286285465  0.7688220000188125  1.0000
  C   C156      1.0  0.11398321622968718  0.6741698847129298  0.7219771999681592  1.0000
  H   H101      1.0  0.15731735637692876  0.6656759185575151  0.5970338133815516  1.0000
  H   H102      1.0  0.1711702838560806  0.6342850377468762  0.6799222718081341  1.0000
  H   H103      1.0  0.11206253916720307  0.6540937910208877  0.8169900646371837  1.0000
  H   H104      1.0  0.09834801093543613  0.6855246513850511  0.7346156034437142  1.0000
  C   C157      1.0  0.04680079655230452  0.804071897668847  0.5647905132332228  1.0000
  C   C158      1.0  0.058249292705694344  0.8240684962985119  0.5339137456117622  1.0000
  C   C159      1.0  0.06823001506726589  0.8419622588954468  0.5740623750072014  1.0000
  C   C160      1.0  0.06713949082255578  0.8395469970408199  0.6450585170836282  1.0000
  C   C161      1.0  0.0552361856109096  0.8197948419007323  0.6758483673512957  1.0000
  C   C162      1.0  0.044871120157013555  0.802169442695467  0.6356935581917574  1.0000
  H   H105      1.0  0.06027932058346353  0.8252345370987925  0.4792266873853457  1.0000
  H   H106      1.0  0.07743217152257124  0.8571998806603778  0.5501268459816596  1.0000
  H   H107      1.0  0.05425030268351283  0.8179682440739098  0.7307680877728254  1.0000
  H   H108      1.0  0.035526704825838085  0.787012156063563  0.659739964823921  1.0000
  C   C163      1.0  0.5494071033695243  0.9446782430958997  0.8833029017790756  1.0000
  C   C164      1.0  0.5341841283598907  0.9307422040314419  0.8434552052951204  1.0000
  C   C165      1.0  0.5103916357847076  0.9390079706618258  0.8271088980903492  1.0000
  C   C166      1.0  0.5019581007953864  0.9614963725589656  0.8490357378582947  1.0000
  C   C167      1.0  0.517013572303608  0.9752289033956084  0.8899211364911277  1.0000
  C   C168      1.0  0.5405728880279247  0.966691772481705  0.9076842220524296  1.0000
  H   H109      1.0  0.5406500471923799  0.9135392752113998  0.8254721193107722  1.0000
  H   H110      1.0  0.4987179732310928  0.9282166315286439  0.7959767715198429  1.0000
  H   H111      1.0  0.5104168993982874  0.9923059121836936  0.9084764326683438  1.0000
  H   H112      1.0  0.552178159133879  0.9774187929953618  0.9391612187703965  1.0000
  C   C169      1.0  0.6407367435624614  0.9499697617898657  0.636125810943247  1.0000
  C   C170      1.0  0.657893911220602  0.9646727576303598  0.6015300914251274  1.0000
  C   C171      1.0  0.6641137774333433  0.9869804745766457  0.6280199761471967  1.0000
  C   C172      1.0  0.6529822107043664  0.9946663338220881  0.6886527086118898  1.0000
  C   C173      1.0  0.6348708009387349  0.9805556399844351  0.7212544085969305  1.0000
  C   C174      1.0  0.6287734992579253  0.9582004732799345  0.6950485861217818  1.0000
  H   H113      1.0  0.666965540724749  0.9585823015114827  0.555445298976125  1.0000
  H   H114      1.0  0.6777720896372955  0.9980628547451669  0.6017954528049886  1.0000
  H   H115      1.0  0.6264586359743394  0.9863319320714088  0.7685716666172732  1.0000
  H   H116      1.0  0.6150564218763159  0.9471844006596962  0.7211340155603454  1.0000
  C   C175      1.0  0.4677769476654017  0.6533015263120973  0.6439445469947239  1.0000
  C   C176      1.0  0.44742508646879936  0.6409174139532376  0.6717904074334434  1.0000
  C   C177      1.0  0.43540337609283974  0.6236831550832619  0.633638796854524  1.0000
  C   C178      1.0  0.4434312649368252  0.6190159958703322  0.5671486742835967  1.0000
  C   C179      1.0  0.4631426619271353  0.6321026106505905  0.538302545018279  1.0000
  C   C180      1.0  0.475450736877748  0.649089605598607  0.5768671928388752  1.0000
  H   H117      1.0  0.44131328414253584  0.6443129544021399  0.7234732017301397  1.0000
  H   H118      1.0  0.419895679478528  0.6141055841710995  0.6556936124427833  1.0000
  H   H119      1.0  0.4691646797128736  0.6288631146523519  0.48645299825374266  1.0000
  H   H120      1.0  0.4906498006929333  0.6591498678767252  0.5543242332462375  1.0000
  C   C181      1.0  0.5852285357681796  0.7545444685152184  0.760469498395144  1.0000
  C   C182      1.0  0.5610202930063004  0.7600014000878479  0.741892160027485  1.0000
  C   C183      1.0  0.5535381187795024  0.7840134928837804  0.7328581130632897  1.0000
  C   C184      1.0  0.5701898922519819  0.8026735497197689  0.7426836025184603  1.0000
  C   C185      1.0  0.5944121227456812  0.7972849686810161  0.7618488525176661  1.0000
  C   C186      1.0  0.6019254910014187  0.7732042192896482  0.7706984723853196  1.0000
  H   H121      1.0  0.5478605735431993  0.7457508982460386  0.7356912190321153  1.0000
  H   H122      1.0  0.5347264659197833  0.7881549742850849  0.7186411943844035  1.0000
  H   H123      1.0  0.6073593680037618  0.8116467743894948  0.7693355354472675  1.0000
  H   H124      1.0  0.6207152895804603  0.7690210282320377  0.7849071228607193  1.0000
  C   C187      1.0  0.9858058511598986  0.4495792486424495  0.6417732822441987  1.0000
  C   C188      1.0  0.0010261532651922867  0.46836070657077306  0.6610403640502901  1.0000
  C   C189      1.0  0.023192737562350407  0.4633000321989177  0.6943838348395163  1.0000
  C   C190      1.0  0.030514658672568862  0.4394424793910966  0.7068807789570072  1.0000
  C   C191      1.0  0.015291850890859271  0.4206214455140579  0.6879216854165262  1.0000
  C   C192      1.0  0.9927303760645951  0.42571389406679017  0.6564677504179173  1.0000
  H   H125      1.0  0.9958729533234459  0.48680996062986487  0.6497383400814875  1.0000
  H   H126      1.0  0.03491929478275768  0.47789095268366205  0.7090539202394315  1.0000
  H   H127      1.0  0.020731667915025342  0.4021742760991551  0.6984352674574122  1.0000
  H   H128      1.0  0.9807671124646486  0.4111508355730725  0.6429660551579979  1.0000
  C   C193      1.0  0.005439876199336835  0.5919428870798914  0.6253470536284931  1.0000
  C   C194      1.0  0.01391568327636139  0.6112114398590761  0.6626102040868249  1.0000
  C   C195      1.0  0.012035131884109651  0.6346808016984801  0.6358834443985827  1.0000
  C   C196      1.0  0.002324479864622253  0.6388721916574543  0.5712439269348745  1.0000
  C   C197      1.0  0.9939584509833165  0.6195257290762722  0.5339097268383911  1.0000
  C   C198      1.0  0.9955623831267978  0.596062662048379  0.5609180178439173  1.0000
  H   H129      1.0  0.021144488479626355  0.608141861405558  0.7129898112738716  1.0000
  H   H130      1.0  0.01731993748442817  0.6495189103223699  0.6663607559226769  1.0000
  H   H131      1.0  0.9861706121207868  0.622610607428834  0.4841953429599379  1.0000
  H   H132      1.0  0.9892221655598671  0.5811562598962785  0.5316259240526997  1.0000
  C   C199      1.0  0.6699799094218172  0.49578210562148733  0.7956416525899112  1.0000
  C   C200      1.0  0.6859910684851075  0.48297421897813325  0.7527390519848692  1.0000
  C   C201      1.0  0.680499229298224  0.45915553710323476  0.7362623523005343  1.0000
  C   C202      1.0  0.6590168925632283  0.4481538588249666  0.7625286287139716  1.0000
  C   C203      1.0  0.6437208344006363  0.46061013286645636  0.8079874981170022  1.0000
  C   C204      1.0  0.649232688690049  0.48434773438209083  0.8246614598440938  1.0000
  H   H133      1.0  0.702278058482195  0.49156524703681914  0.7310289679035992  1.0000
  H   H134      1.0  0.6925746688623609  0.44946464274877496  0.7017430868674072  1.0000
  H   H135      1.0  0.6276894114060609  0.4519268402847422  0.8305665694663056  1.0000
  H   H136      1.0  0.6370724992102276  0.49405724376671034  0.8588812797139281  1.0000
  C   C205      1.0  0.6536445605758656  0.5944023182972453  0.5672350911536865  1.0000
  C   C206      1.0  0.6377242904114403  0.613018361054474  0.546701911342552  1.0000
  C   C207      1.0  0.6154795969718024  0.6169369462057148  0.5828032515279874  1.0000
  C   C208      1.0  0.6093073075625395  0.6023110641543757  0.6394272375411572  1.0000
  C   C209      1.0  0.6245510077005517  0.5829129638115187  0.6574248544515684  1.0000
  C   C210      1.0  0.6466792698536996  0.5789877418628153  0.6212785600258424  1.0000
  H   H137      1.0  0.6430529273160697  0.6250906445460411  0.5051693802498392  1.0000
  H   H138      1.0  0.6034827955803912  0.6316656720597407  0.5678884374291108  1.0000
  H   H139      1.0  0.6198869384446136  0.5715750150425413  0.701218507839825  1.0000
  H   H140      1.0  0.6588231019200675  0.5644560559119488  0.6367385990987742  1.0000
  C   C211      1.0  0.8107023860688741  0.5306641704665341  0.6467172722668862  1.0000
  C   C212      1.0  0.8311144893631831  0.5161606144352697  0.6301034963840938  1.0000
  C   C213      1.0  0.8549509407500567  0.5228395031521464  0.648616621861512  1.0000
  C   C214      1.0  0.8584683861826552  0.5441027571047088  0.6835630626446025  1.0000
  C   C215      1.0  0.8380320884567226  0.5584698634453351  0.7011107041792194  1.0000
  C   C216      1.0  0.8141322523261126  0.5517589295223757  0.6827950198702277  1.0000
  H   H141      1.0  0.8284637708989004  0.4997409520403811  0.6026779506666451  1.0000
  H   H142      1.0  0.8705488057760917  0.5113988115395326  0.6362707414769871  1.0000
  H   H143      1.0  0.840767429636373  0.5750634589786657  0.72741659439423  1.0000
  H   H144      1.0  0.7984302226441292  0.563100293747953  0.6952318549178784  1.0000
  C   C217      1.0  0.6504617022104084  0.6915692569134809  0.37424799880799214  1.0000
  C   C218      1.0  0.6432881895209288  0.68018705986202  0.43559309111234445  1.0000
  C   C219      1.0  0.6187592276218608  0.6818870069692485  0.45924822033112617  1.0000
  C   C220      1.0  0.6014663008652704  0.6954200561494313  0.4225348530519896  1.0000
  C   C221      1.0  0.6086640505222803  0.7067762730869617  0.36111502081295627  1.0000
  C   C222      1.0  0.6331405491430028  0.70487934706607  0.33704678717705944  1.0000
  H   H145      1.0  0.6566087361529233  0.6698028808068002  0.4644492447404324  1.0000
  H   H146      1.0  0.6132475048273957  0.6723829669617587  0.5052046465205149  1.0000
  H   H147      1.0  0.5953507037747797  0.7171920186820665  0.33227778132135616  1.0000
  H   H148      1.0  0.6386499279578077  0.7140183726242205  0.29022636202435637  1.0000
  C   C223      1.0  0.694552731686001  0.6342949924745542  0.9779242487945363  1.0000
  C   C224      1.0  0.6927494119489211  0.6130479478658569  0.941536226747416  1.0000
  C   C225      1.0  0.7096569657338819  0.6081627238767288  0.888509912878555  1.0000
  C   C226      1.0  0.7282333743992553  0.6246665323973088  0.8711237671285754  1.0000
  C   C227      1.0  0.7307309935136824  0.645392881935523  0.9094849678050472  1.0000
  C   C228      1.0  0.7139517267305308  0.6501703874101085  0.9629533490405549  1.0000
  H   H149      1.0  0.6780435239600232  0.6004928157205274  0.9536651977661184  1.0000
  H   H150      1.0  0.7081270132838543  0.5916821861706283  0.860860835203815  1.0000
  H   H151      1.0  0.7452963770094947  0.6580572119718451  0.8969680606444903  1.0000
  H   H152      1.0  0.7158078383063698  0.6663689959800337  0.9916171268335827  1.0000
  C   C229      1.0  0.7531050752596364  0.9326475458117846  0.4328760393928178  1.0000
  C   C230      1.0  0.7593496728710131  0.943336946081519  0.4939395077519137  1.0000
  C   C231      1.0  0.7550657539093194  0.9679743068826788  0.502946708569319  1.0000
  C   C232      1.0  0.7447998696169634  0.9819677351750161  0.4505318073109023  1.0000
  C   C233      1.0  0.7387128275222932  0.9712465152496009  0.38930824194076613  1.0000
  C   C234      1.0  0.7426083010365052  0.9465347034973993  0.3806984995984395  1.0000
  H   H153      1.0  0.7675623127675383  0.9326262279965576  0.5342952854102225  1.0000
  H   H154      1.0  0.7601581226830851  0.976254259888779  0.5498409407274929  1.0000
  H   H155      1.0  0.7307391183130666  0.982079977181517  0.348778199848764  1.0000
  H   H156      1.0  0.7376676874942639  0.9383614789492699  0.333469124319904  1.0000
  C   C235      1.0  0.6979509253136417  0.8989990393810001  0.03694589456954955  1.0000
  C   C236      1.0  0.713025256560411  0.880982862696384  0.009421190880879005  1.0000
  C   C237      1.0  0.7041075622646048  0.8664713114871234  0.9580925890276328  1.0000
  C   C238      1.0  0.6799546716182501  0.8696330848563192  0.935196187026662  1.0000
  C   C239      1.0  0.6648977816281231  0.8876831451975894  0.9626272456286651  1.0000
  C   C240      1.0  0.6739629173605926  0.9024647454302043  0.01320646092535549  1.0000
  H   H157      1.0  0.7316830094751073  0.8784894525288416  0.027186669226526128  1.0000
  H   H158      1.0  0.7159944785562704  0.8529734303028298  0.935725373477806  1.0000
  H   H159      1.0  0.6461250118957225  0.8900718038280243  0.9456945727002982  1.0000
  H   H160      1.0  0.6621448550940234  0.9161477588350001  0.0352347741941863  1.0000
  C   C241      1.0  0.6655160277019012  0.8112746660296419  0.2595577117325027  1.0000
  C   C242      1.0  0.6626080129949746  0.820952172682086  0.19378080859937263  1.0000
  C   C243      1.0  0.6546130304634816  0.8063012766957122  0.14143416554560284  1.0000
  C   C244      1.0  0.6505509477828271  0.7817738197877623  0.15433599760563532  1.0000
  C   C245      1.0  0.6523834963596187  0.7724152787530376  0.2206529215737228  1.0000
  C   C246      1.0  0.6596028397918517  0.7872052861149065  0.2733962210678355  1.0000
  H   H161      1.0  0.6666469068802463  0.8397130255493408  0.18326531704682547  1.0000
  H   H162      1.0  0.6526563545619868  0.8138003117666559  0.09064688219429562  1.0000
  H   H163      1.0  0.6488364820482786  0.753566746503026  0.2311053391737292  1.0000
  H   H164      1.0  0.661777263685153  0.7796634863218069  0.32416811087251046  1.0000
  C   C247      1.0  0.9798450360539895  0.9444938744440505  0.9743183299837027  1.0000
  C   C248      1.0  0.9743918533443746  0.9607030226980028  0.025783321363800793  1.0000
  C   C249      1.0  0.9660262645390166  0.9839346783706372  0.009302209992325228  1.0000
  C   C250      1.0  0.9630182174333234  0.9910790930401195  0.9412761801844962  1.0000
  C   C251      1.0  0.9692730633928974  0.9751754301660661  0.8893952529384512  1.0000
  C   C252      1.0  0.9777546096168602  0.951862692051618  0.9059503920687405  1.0000
  H   H165      1.0  0.9767922104202114  0.9554052366820044  0.07847451404805694  1.0000
  H   H166      1.0  0.9614954564560425  0.9963001132224728  0.04952676509581666  1.0000
  H   H167      1.0  0.9671150612206774  0.9806252588942223  0.8367788713640422  1.0000
  H   H168      1.0  0.9818839950548898  0.9393326167198806  0.8659193118652116  1.0000
  C   C253      1.0  0.9914693151705364  0.9243310941611945  0.3622514302024957  1.0000
  C   C254      1.0  0.00902027983730469  0.9265938504064608  0.30956986003449616  1.0000
  C   C255      1.0  0.03406414045670303  0.9289811863621891  0.3246043420506451  1.0000
  C   C256      1.0  0.04171553072958267  0.9288450133954954  0.392287436113112  1.0000
  C   C257      1.0  0.02415650525551971  0.9264858151485192  0.44517252284645503  1.0000
  C   C258      1.0  0.9990064522792306  0.9243235327604822  0.4300886323226342  1.0000
  H   H169      1.0  0.00330133697745838  0.9269466099349808  0.2571451791364426  1.0000
  H   H170      1.0  0.04761180874505899  0.9308874283968965  0.2836126489996021  1.0000
  H   H171      1.0  0.029966624380181495  0.9263239521691672  0.4974527430879523  1.0000
  H   H172      1.0  0.9854438711729218  0.9223419118813999  0.47094026747915263  1.0000
  C   C259      1.0  0.8531801309771179  0.8847951395074288  0.12311127634418396  1.0000
  C   C260      1.0  0.8286390857233897  0.8899019559506968  0.1066891486199204  1.0000
  C   C261      1.0  0.8101563682040787  0.8729308450888433  0.12094191213626715  1.0000
  C   C262      1.0  0.8160764210861751  0.8508781129919729  0.15227143216055938  1.0000
  C   C263      1.0  0.8407817925712628  0.8454082646584902  0.1666434137554147  1.0000
  C   C264      1.0  0.8593392608622692  0.8624155882740799  0.152301857751993  1.0000
  H   H173      1.0  0.8238341717738704  0.9070745814666316  0.08338390878607482  1.0000
  H   H174      1.0  0.7912718965376286  0.8769194950286374  0.10747628966138391  1.0000
  H   H175      1.0  0.8455568358028943  0.8283707067255832  0.1905330507724412  1.0000
  H   H176      1.0  0.8783266795346821  0.8583076855958752  0.1645393216364932  1.0000
  C   C265      1.0  0.9706912692887048  0.6704829322854384  0.9041185131300901  1.0000
  C   C266      1.0  0.9825723840126145  0.6851160220686954  0.9500610176332539  1.0000
  C   C267      1.0  0.9999371090143694  0.702061300949902  0.9262240639473586  1.0000
  C   C268      1.0  0.005514778155484956  0.7042624355684591  0.8565109095305372  1.0000
  C   C269      1.0  0.9938443194589004  0.6894378837696993  0.8106937021457753  1.0000
  C   C270      1.0  0.9764162942077551  0.6726031099802093  0.8344672435639477  1.0000
  H   H177      1.0  0.9785154802525775  0.6832676034458411  0.003935171351451716  1.0000
  H   H178      1.0  0.00904044770127399  0.713481519926425  0.9617069629266747  1.0000
  H   H179      1.0  0.9978750859613378  0.6912475179589858  0.7567195891647873  1.0000
  H   H180      1.0  0.9669598679649458  0.661708085674912  0.7984586825904924  1.0000
  C   C271      1.0  0.9310356283380412  0.6246956750964453  0.31036610092300665  1.0000
  C   C272      1.0  0.9377358590298243  0.6190580860359488  0.3774968391739999  1.0000
  C   C273      1.0  0.9382940891821615  0.5950220271692426  0.40111640714377605  1.0000
  C   C274      1.0  0.9319861447967405  0.5765185658319641  0.357792949785896  1.0000
  C   C275      1.0  0.9251368384466603  0.5821727193690958  0.2909687273917382  1.0000
  C   C276      1.0  0.9246555994289475  0.6061603708024578  0.26736499245058515  1.0000
  H   H181      1.0  0.9424474879272371  0.6332579119629066  0.4114904586451364  1.0000
  H   H182      1.0  0.9437460679154562  0.5908918761899229  0.45258072183675907  1.0000
  H   H183      1.0  0.9202286240509041  0.567938628912256  0.2572011276806972  1.0000
  H   H184      1.0  0.9195069450274532  0.6101846170140617  0.21573765175080384  1.0000
  C   C277      1.0  0.9100947586062876  0.7649388723392991  0.11131185403746979  1.0000
  C   C278      1.0  0.9055436707605007  0.7896373670954313  0.10235613384331967  1.0000
  C   C279      1.0  0.9215062887028729  0.8064572361457786  0.12969663408251475  1.0000
  C   C280      1.0  0.9421759816874223  0.798632042698551  0.16573584025104582  1.0000
  C   C281      1.0  0.9466742165247602  0.7739312631823395  0.17504953745941987  1.0000
  C   C282      1.0  0.9306185635520249  0.7570728527360282  0.14791489295277094  1.0000
  H   H185      1.0  0.8898516143946326  0.7958570105040358  0.07342799289463975  1.0000
  H   H186      1.0  0.9178575473145923  0.8254794691191516  0.1226502163865857  1.0000
  H   H187      1.0  0.9626361657032538  0.7678510131916367  0.20307436145157576  1.0000
  H   H188      1.0  0.9341770927886723  0.7380585305094813  0.15524122354409142  1.0000
  C   C283      1.0  0.8148448265765227  0.6637082960462025  0.07091186191936738  1.0000
  C   C284      1.0  0.822106538373177  0.6877241471745776  0.06313055611207032  1.0000
  C   C285      1.0  0.8044430491457608  0.7062331231831014  0.06616760277419464  1.0000
  C   C286      1.0  0.779530392269355  0.7008253400311156  0.07812726620903909  1.0000
  C   C287      1.0  0.7722111694064896  0.6768047532631315  0.08414891381969691  1.0000
  C   C288      1.0  0.7898537039353103  0.6582643749242335  0.08120494997676797  1.0000
  H   H189      1.0  0.8413068025398864  0.6920958701206051  0.05441329052307142  1.0000
  H   H190      1.0  0.8101220632832505  0.7247104172201164  0.059341530473396416  1.0000
  H   H191      1.0  0.7529982089963234  0.6724183551943185  0.09091065041678248  1.0000
  H   H192      1.0  0.7841130033297119  0.6397590791891925  0.08772583974757375  1.0000
  N   N1        1.0  0.4020026237274948  0.10881146933761321  0.9619384365589945  1.0000
  C   C289      1.0  0.3979733151074987  0.08253536121659755  0.9641935440659514  1.0000
  C   C290      1.0  0.419452054970131  0.1149545279152473  0.9055873339524498  1.0000
  C   C291      1.0  0.4124553666320698  0.11624463112035266  0.02706642602445397  1.0000
  C   C292      1.0  0.3782537945958042  0.12144433189542769  0.9507208978204595  1.0000
  H   H193      1.0  0.38488824786477843  0.07718915640205815  0.006044174939964453  1.0000
  H   H194      1.0  0.41563668515475993  0.07251839081336509  0.9723449683950545  1.0000
  H   H195      1.0  0.3902749905482283  0.07620815181360485  0.9156513408689559  1.0000
  H   H196      1.0  0.4236792626496277  0.13451048304677604  0.9036307230790896  1.0000
  H   H197      1.0  0.4372368156595415  0.10511526870812182  0.9114766837203717  1.0000
  H   H198      1.0  0.4119519894444218  0.11001115990754906  0.8554988322388604  1.0000
  H   H199      1.0  0.39932625437074293  0.11290573604227672  0.07044156132687607  1.0000
  H   H200      1.0  0.41696442302334075  0.13574885699702155  0.02612959211974042  1.0000
  H   H201      1.0  0.42981247090504476  0.10613195650291107  0.038199062105687576  1.0000
  H   H202      1.0  0.3696358586774681  0.11578182486570388  0.9026992729672237  1.0000
  H   H203      1.0  0.38075263435218426  0.1412805910316952  0.9471867626800757  1.0000
  H   H204      1.0  0.3647610547621718  0.11785095321174666  0.9931501891983401  1.0000
  N   N2        1.0  0.9421274716000735  0.7529359888598216  0.9000101951018201  1.0000
  C   C293      1.0  0.9238645438204187  0.755268069701691  0.84529398852501  1.0000
  C   C294      1.0  0.9673508752471955  0.7541817966293565  0.8700334589700097  1.0000
  C   C295      1.0  0.9387507401200373  0.729576511166919  0.9362082884770822  1.0000
  C   C296      1.0  0.9384457830301222  0.7726546388489408  0.9484524540909022  1.0000
  H   H205      1.0  0.9046131394021508  0.7542409732819947  0.8662682604909248  1.0000
  H   H206      1.0  0.9261956129745832  0.7406013196566755  0.8079334130409297  1.0000
  H   H207      1.0  0.9258027190102935  0.7727150664453617  0.8169236935794807  1.0000
  H   H208      1.0  0.9816957961315721  0.7518073265984386  0.9095423884764532  1.0000
  H   H209      1.0  0.9705498066638614  0.7398753695777777  0.8320493207798634  1.0000
  H   H210      1.0  0.970828759210344  0.7717198835216426  0.8434021982164382  1.0000
  H   H211      1.0  0.9414634342869088  0.7142412907877076  0.901291152932272  1.0000
  H   H212      1.0  0.9198623372496256  0.7280058231364661  0.9591393491713016  1.0000
  H   H213      1.0  0.9520831778107545  0.7271972867769211  0.9782631143172772  1.0000
  H   H214      1.0  0.951136814734533  0.770800541287189  0.9922626600472207  1.0000
  H   H215      1.0  0.9192413728611551  0.7727568722454113  0.9696750635743675  1.0000
  H   H216      1.0  0.941763810124037  0.7905586370951289  0.9237398949672129  1.0000
  N   N3        1.0  0.999437896532022  0.6827689001583479  0.32951195350165985  1.0000
  C   C297      1.0  0.007336038796980748  0.6991536719803798  0.383007415759596  1.0000
  C   C298      1.0  0.9798544863742424  0.694531053516184  0.2889876980011946  1.0000
  C   C299      1.0  0.9897904379788119  0.660363698809271  0.361600304827178  1.0000
  C   C300      1.0  0.02076433706015668  0.6769485552001101  0.2845870003691829  1.0000
  H   H217      1.0  0.022212497636756368  0.6908301130139578  0.4142152730047907  1.0000
  H   H218      1.0  0.9917626998183217  0.7034153376267568  0.4187911725355674  1.0000
  H   H219      1.0  0.01447366010020179  0.7164188101116821  0.3611497459348517  1.0000
  H   H220      1.0  0.9740645644029591  0.6829322544817354  0.24674961274418358  1.0000
  H   H221      1.0  0.9629985216989292  0.6980475483893179  0.32081572945015263  1.0000
  H   H222      1.0  0.9860866616308733  0.711964673273293  0.2660627844240973  1.0000
  H   H223      1.0  0.004061401671398235  0.6509671277254264  0.39259201426877727  1.0000
  H   H224      1.0  0.9833204117029026  0.6476134763057536  0.3229737825507407  1.0000
  H   H225      1.0  0.9738117907698609  0.66411869980366  0.3964374058037616  1.0000
  H   H226      1.0  0.03586700753453709  0.6680724540935833  0.3137788187893906  1.0000
  H   H227      1.0  0.028475214644600566  0.6934183266566678  0.25925571387067875  1.0000
  H   H228      1.0  0.015386866068953564  0.6644414066176478  0.24400604267516135  1.0000
  N   N4        1.0  0.09486664879574519  0.5893899641180679  0.6528805667696689  1.0000
  C   C301      1.0  0.07213507703191559  0.5749310590076148  0.6606422834254668  1.0000
  C   C302      1.0  0.11142855841137614  0.5838360103097561  0.7100846509906517  1.0000
  C   C303      1.0  0.0883551445276254  0.6152821807151888  0.6524983295298035  1.0000
  C   C304      1.0  0.10769821179047968  0.58346248808247  0.5882323446750546  1.0000
  H   H229      1.0  0.059227744258137045  0.578581867390463  0.6181269425433158  1.0000
  H   H230      1.0  0.061898689805544915  0.5789771229124974  0.7087622391519188  1.0000
  H   H231      1.0  0.07635011141431607  0.5552985141606  0.6612184783470093  1.0000
  H   H232      1.0  0.10283355743785674  0.5886355616785189  0.7599338393379731  1.0000
  H   H233      1.0  0.11660049382497525  0.5644127498354291  0.7123658672166399  1.0000
  H   H234      1.0  0.1288963880880343  0.5941439629899273  0.7047679055992037  1.0000
  H   H235      1.0  0.07541401482160534  0.6200682388870863  0.6109005178099733  1.0000
  H   H236      1.0  0.10506418822774428  0.6266970951877059  0.6453148854573122  1.0000
  H   H237      1.0  0.07930154983843425  0.6205433164542825  0.7013701263087253  1.0000
  H   H238      1.0  0.1249614918907139  0.5940797867427099  0.5808823814928469  1.0000
  H   H239      1.0  0.0957783896915862  0.5872739972633273  0.5437391729016215  1.0000
  H   H240      1.0  0.11313408840575916  0.5640795924452332  0.5872883182341025  1.0000
  N   N5        1.0  0.171143165998208  0.3469953665194883  0.8655636846899784  1.0000
  C   C305      1.0  0.19418575654809672  0.35535329745778294  0.8961186452922912  1.0000
  C   C306      1.0  0.17014002112068433  0.3555907023724702  0.7939250065974889  1.0000
  C   C307      1.0  0.1496800578668349  0.3566544625933837  0.9040436932899205  1.0000
  C   C308      1.0  0.1705655641652121  0.3204088243831329  0.868529933293717  1.0000
  H   H241      1.0  0.21078615742722862  0.34817104982258495  0.8690331194483673  1.0000
  H   H242      1.0  0.19526147160784876  0.34949522960920476  0.9505032541289689  1.0000
  H   H243      1.0  0.1953330647027814  0.37533441142184526  0.8942151162599696  1.0000
  H   H244      1.0  0.18624011645336688  0.3490120002924283  0.7634703822498157  1.0000
  H   H245      1.0  0.1531535391103085  0.34920659621113187  0.7690973581702801  1.0000
  H   H246      1.0  0.17003716672343336  0.3756325294573082  0.7901067900927528  1.0000
  H   H247      1.0  0.1493209162593531  0.34966423640755795  0.9575651750723208  1.0000
  H   H248      1.0  0.13193349083949035  0.3514419440654636  0.8810146511675945  1.0000
  H   H249      1.0  0.1500512516164258  0.37667746069896857  0.9052507520172233  1.0000
  H   H250      1.0  0.18634202844723838  0.3124554723417023  0.8395206229484301  1.0000
  H   H251      1.0  0.1532689116285157  0.3134669961481651  0.8467128856462809  1.0000
  H   H252      1.0  0.17141118191898588  0.3134310462402563  0.9220193704043453  1.0000
  N   N6        1.0  0.4555027142030708  0.4423205953740248  0.6195099830892578  1.0000
  C   C309      1.0  0.46362125011349314  0.4589591795299357  0.5639167292612705  1.0000
  C   C310      1.0  0.4411600063468445  0.45581370189843895  0.6710358018381047  1.0000
  C   C311      1.0  0.47735828922149687  0.43108107021136693  0.6515304494120723  1.0000
  C   C312      1.0  0.43977472713254995  0.4234936578639856  0.591383067107629  1.0000
  H   H253      1.0  0.4748384981045856  0.4495022665177509  0.5245390857082541  1.0000
  H   H254      1.0  0.4751112740795352  0.47363576991047746  0.5833942270485265  1.0000
  H   H255      1.0  0.44758777037155684  0.4675652365781481  0.5380957021687086  1.0000
  H   H256      1.0  0.43509612262825753  0.44396276205713353  0.7145857235261205  1.0000
  H   H257      1.0  0.45219028383324833  0.4706340057477249  0.6922288708291157  1.0000
  H   H258      1.0  0.42425321776724817  0.46398312273495995  0.6486279862897903  1.0000
  H   H259      1.0  0.48892959224036353  0.42110600737964027  0.6139439601396316  1.0000
  H   H260      1.0  0.47194083249533375  0.41822170189412955  0.6933357723109314  1.0000
  H   H261      1.0  0.4893791398532797  0.44482926071977624  0.6739155127087525  1.0000
  H   H262      1.0  0.43307362597911936  0.41073750491498245  0.6319913129698856  1.0000
  H   H263      1.0  0.4500193291443288  0.4129076926822551  0.552404556578652  1.0000
  H   H264      1.0  0.42320415698182334  0.4315266684889304  0.5664445593090415  1.0000
  N   N7        1.0  0.6771057974320438  0.6150494475831161  0.32259458674777397  1.0000
  C   C313      1.0  0.663304211604674  0.5952668015967019  0.3569659441131103  1.0000
  C   C314      1.0  0.6594808817478919  0.6325136587166912  0.29245650669660556  1.0000
  C   C315      1.0  0.6932344282476517  0.6052759264347305  0.2681315843944743  1.0000
  C   C316      1.0  0.6924286913676834  0.6271365810841604  0.3728635470883863  1.0000
  H   H265      1.0  0.6760545270859358  0.5819089557819747  0.38107272774635637  1.0000
  H   H266      1.0  0.6515875336954378  0.5856060785480305  0.3207951402122826  1.0000
  H   H267      1.0  0.651044893185297  0.6021510769498064  0.39843225604787935  1.0000
  H   H268      1.0  0.6474506326319088  0.6408270213544573  0.3322339548481933  1.0000
  H   H269      1.0  0.6693032164942061  0.647432929129478  0.26495417460913706  1.0000
  H   H270      1.0  0.6473190541695616  0.623941254044091  0.2551593402253263  1.0000
  H   H271      1.0  0.703887738285689  0.6198539561126494  0.241357058745979  1.0000
  H   H272      1.0  0.6822831583681764  0.5961499435939118  0.2290152300190232  1.0000
  H   H273      1.0  0.7067759314797736  0.5920201419763371  0.28900719692017646  1.0000
  H   H274      1.0  0.7053142192315787  0.6142953933770742  0.39847312588402617  1.0000
  H   H275      1.0  0.6808232785259187  0.6353898536445874  0.413642707235262  1.0000
  H   H276      1.0  0.7036607413153959  0.6417829978707013  0.3486358022007025  1.0000
  N   N8        1.0  0.8905685035098191  0.9604045317049501  0.9529825919417092  1.0000
  C   C317      1.0  0.9077255108309386  0.9396407951980267  0.9490698478510325  1.0000
  C   C318      1.0  0.8648006645150538  0.9517567486978782  0.9541089790269032  1.0000
  C   C319      1.0  0.8945927757099571  0.9765830440602051  0.8930988680998078  1.0000
  C   C320      1.0  0.8951727183239646  0.9736255288684643  0.01585927382306407  1.0000
  H   H277      1.0  0.9273037103605954  0.9455250835711273  0.9495243764578165  1.0000
  H   H278      1.0  0.9051316710742802  0.9293733927983193  0.901869166349542  1.0000
  H   H279      1.0  0.9050011026104813  0.9269419320216133  0.9931913706700827  1.0000
  H   H280      1.0  0.8607715141808877  0.9414709757787753  0.9077269712081899  1.0000
  H   H281      1.0  0.8610827360516293  0.9396287061403265  0.9989692520277531  1.0000
  H   H282      1.0  0.8513515093939915  0.9669785266192793  0.9566201952960405  1.0000
  H   H283      1.0  0.882508672127172  0.9928468165096728  0.8955646388867055  1.0000
  H   H284      1.0  0.8907330815077648  0.967416293540832  0.8447116848691644  1.0000
  H   H285      1.0  0.9140037388320497  0.98299192599276  0.8897386513182985  1.0000
  H   H286      1.0  0.8823198223431534  0.9892068579090724  0.02130804011143983  1.0000
  H   H287      1.0  0.9142912550388684  0.9808708485288972  0.015848788230499178  1.0000
  H   H288      1.0  0.8928855139623055  0.9617318064509429  0.061934958974396936  1.0000
  N   N9        1.0  0.9691405319294488  0.99402223708377  0.4724976507363894  1.0000
  C   C321      1.0  0.95756468043493  0.978120113597668  0.4232039982382263  1.0000
  C   C322      1.0  0.9764653938854003  0.016797816130706078  0.437757657962732  1.0000
  C   C323      1.0  0.9912903122617838  0.9819971438685834  0.5005816858741627  1.0000
  C   C324      1.0  0.9513009266096007  0.9991922146047019  0.5283519944588622  1.0000
  H   H289      1.0  0.951984513188044  0.9606587550480766  0.4475009460324284  1.0000
  H   H290      1.0  0.9705118724152375  0.9738567187586578  0.3802956829648698  1.0000
  H   H291      1.0  0.9407457948802299  0.986521760287196  0.4010163436651657  1.0000
  H   H292      1.0  0.9853722075828947  0.029190160773414853  0.4735258714613799  1.0000
  H   H293      1.0  0.9899551069886848  0.01357805213444796  0.3953885410660418  1.0000
  H   H294      1.0  0.9602176217935291  0.026471010723104982  0.41628507623568933  1.0000
  H   H295      1.0  0.0005701504131798707  0.9935448975836506  0.5376676256130479  1.0000
  H   H296      1.0  0.00514732462903611  0.9778036142007913  0.459792092397036  1.0000
  H   H297      1.0  0.9865069489738627  0.9648188174452533  0.5275496198450425  1.0000
  H   H298      1.0  0.9342943608136384  0.008256372775171661  0.509223494612925  1.0000
  H   H299      1.0  0.9594437632413844  0.01128264752870689  0.5661172824055554  1.0000
  H   H300      1.0  0.9454369626678069  0.9824805810711263  0.5561642700226388  1.0000
  N   N10       1.0  0.11629013218655526  0.47277919337525187  0.8320749347481028  1.0000
  C   C325      1.0  0.08960661845755813  0.4786644231184639  0.8342500808637241  1.0000
  C   C326      1.0  0.13043461848951798  0.49442500989619065  0.811188804865368  1.0000
  C   C327      1.0  0.1209703611561328  0.4536114641749246  0.7824872968165789  1.0000
  C   C328      1.0  0.12407272733250951  0.4643206766354732  0.9002565897706194  1.0000
  H   H301      1.0  0.08284189430484457  0.48402992772640624  0.7828862489696167  1.0000
  H   H302      1.0  0.08541178985466225  0.4935883226796355  0.8694791096718993  1.0000
  H   H303      1.0  0.07845307894803089  0.4628417059255666  0.8516424215069148  1.0000
  H   H304      1.0  0.12447355335003873  0.5015680753678977  0.7607448201745148  1.0000
  H   H305      1.0  0.12803401856875074  0.5090623557579561  0.8484636796886144  1.0000
  H   H306      1.0  0.15055951978606097  0.49042376771463764  0.8066812935985341  1.0000
  H   H307      1.0  0.14086393930836527  0.44838731061907033  0.7798960527702333  1.0000
  H   H308      1.0  0.11540268898708628  0.45934560380508715  0.730306519617295  1.0000
  H   H309      1.0  0.11020709236625414  0.43723680602589454  0.7964306586211733  1.0000
  H   H310      1.0  0.12093562218867504  0.4783185039205576  0.9391219026254569  1.0000
  H   H311      1.0  0.144047274239834  0.45956632953094245  0.9003736081098122  1.0000
  H   H312      1.0  0.1138174114374435  0.4479145602608953  0.9173567931138696  1.0000
  N   N11       1.0  0.016936105296345927  0.42429186951649744  0.45263193324540446  1.0000
  C   C329      1.0  0.03537675888665048  0.42630348096197673  0.5066518281263304  1.0000
  C   C330      1.0  0.028919601218184043  0.41405950009770986  0.39141534207845485  1.0000
  C   C331      1.0  0.006727674246165494  0.4484154003492591  0.4360104374800341  1.0000
  C   C332      1.0  0.9967040695496058  0.4083358214587658  0.47662854001726557  1.0000
  H   H313      1.0  0.05116024421426468  0.4377986348457319  0.489771885277005  1.0000
  H   H314      1.0  0.04294581364876926  0.4083369650497284  0.5220987011829531  1.0000
  H   H315      1.0  0.027185064828877392  0.4346062798263795  0.5528245535927658  1.0000
  H   H316      1.0  0.044439361142814215  0.42548259926343485  0.3720100096424966  1.0000
  H   H317      1.0  0.03667607960285646  0.3957810516907479  0.40256844901225236  1.0000
  H   H318      1.0  0.015627157024941773  0.41233302851286746  0.3493758384303223  1.0000
  H   H319      1.0  0.99254021475566  0.447593863085626  0.3959255096678096  1.0000
  H   H320      1.0  0.021432897776587412  0.4609766604345472  0.41763294027125264  1.0000
  H   H321      1.0  0.9976014589167684  0.45657220625431755  0.48150256128042057  1.0000
  H   H322      1.0  0.9864099119598986  0.4161248557063833  0.5205291928207115  1.0000
  H   H323      1.0  0.0038581622186615316  0.39033150959803037  0.49307085373634857  1.0000
  H   H324      1.0  0.9829886555846372  0.40560846728600664  0.43614691954678114  1.0000
  N   N12       1.0  0.011793361412002715  0.8458134545749323  0.35879107481108424  1.0000
  C   C333      1.0  0.9863503504561265  0.8556676620066831  0.3585503804985303  1.0000
  C   C334      1.0  0.021707676731667735  0.8452193195180621  0.2882302024492189  1.0000
  C   C335      1.0  0.011495623121354772  0.8211465159594468  0.38842812527777554  1.0000
  C   C336      1.0  0.027596660216929088  0.8612717951420834  0.3996701600058286  1.0000
  H   H325      1.0  0.9783603228305896  0.8566981036869155  0.41099008506144824  1.0000
  H   H326      1.0  0.9738712831735488  0.8444217157386118  0.32821073508774884  1.0000
  H   H327      1.0  0.9858548434132949  0.8741514829892423  0.3358377215288747  1.0000
  H   H328      1.0  0.040605139228303555  0.8372237056735871  0.2862235235144317  1.0000
  H   H329      1.0  0.009763747507798735  0.8343802855833157  0.25522430345195635  1.0000
  H   H330      1.0  0.02289436924033983  0.8636503953752231  0.2651508119064966  1.0000
  H   H331      1.0  0.03032826327704163  0.8129662138773673  0.38878308101216374  1.0000
  H   H332      1.0  0.9994787339592309  0.8091263263094821  0.3590894544552069  1.0000
  H   H333      1.0  0.004512799984944359  0.8208886338376119  0.44213482515812663  1.0000
  H   H334      1.0  0.047131921107923754  0.8549395742111267  0.39902637168612465  1.0000
  H   H335      1.0  0.021116300353028358  0.8617682669122355  0.45374030999011933  1.0000
  H   H336      1.0  0.02767916423626615  0.8800842083754388  0.3793728875912267  1.0000
  N   N13       1.0  0.5315168798619798  0.32988746626705223  0.8795809077816604  1.0000
  C   C337      1.0  0.5167733645465598  0.3079098215493066  0.8714867308638089  1.0000
  C   C338      1.0  0.526235294255091  0.33995016105855236  0.9473979149040208  1.0000
  C   C339      1.0  0.524925670372283  0.3478225932660522  0.8262435628248713  1.0000
  C   C340      1.0  0.558112845145669  0.32389856804712164  0.873080591226242  1.0000
  H   H337      1.0  0.5209050381282947  0.2941651571077905  0.9118729470094009  1.0000
  H   H338      1.0  0.5205172298957536  0.29964276593833866  0.8212314751754889  1.0000
  H   H339      1.0  0.49660378992182624  0.3118817557519899  0.8756568164696882  1.0000
  H   H340      1.0  0.5372545402962514  0.3564178939303462  0.955692521381151  1.0000
  H   H341      1.0  0.5063655941861654  0.34496035139232434  0.9536330636480825  1.0000
  H   H342      1.0  0.5304703310555016  0.32671399076423724  0.988969266199121  1.0000
  H   H343      1.0  0.5361738632120095  0.36435956568648464  0.8299969539360307  1.0000
  H   H344      1.0  0.5051707173396631  0.3533446326544811  0.830728856351195  1.0000
  H   H345      1.0  0.5282281637189554  0.3406899930701349  0.7743316235171616  1.0000
  H   H346      1.0  0.5637122317854173  0.3101615747833882  0.9119429609025762  1.0000
  H   H347      1.0  0.5697559541752664  0.3400742964940983  0.8797831426502435  1.0000
  H   H348      1.0  0.5628207067030875  0.31667568411051483  0.8219450796051365  1.0000
  N   N14       1.0  0.04290188118357596  0.07123998061363415  0.8233027204568346  1.0000
  C   C341      1.0  0.03194067561966207  0.04934598918007894  0.85494908263991  1.0000
  C   C342      1.0  0.028674582535558102  0.09260525935171293  0.8452405388795673  1.0000
  C   C343      1.0  0.042334185884960185  0.06977535898470283  0.7482833711194224  1.0000
  C   C344      1.0  0.06878900622951667  0.07324374282651787  0.8448854076155932  1.0000
  H   H349      1.0  0.04258738979001775  0.03298098787075499  0.8406819997524537  1.0000
  H   H350      1.0  0.012589665090152247  0.04683048148910252  0.838847088952679  1.0000
  H   H351      1.0  0.031557632904049226  0.05020814207044789  0.9114816541778801  1.0000
  H   H352      1.0  0.036360243408029236  0.10940697730452811  0.8218842341506251  1.0000
  H   H353      1.0  0.008995202468246477  0.09163962484543647  0.8301441548940822  1.0000
  H   H354      1.0  0.02889256561886122  0.09458791108928251  0.90143389298085  1.0000
  H   H355      1.0  0.02311715170737938  0.06817394742665307  0.7297717708403975  1.0000
  H   H356      1.0  0.05305429069183254  0.05400106267839577  0.7296210775055529  1.0000
  H   H357      1.0  0.05052601122597733  0.08607716394360752  0.7229885027165781  1.0000
  H   H358      1.0  0.07002706844418882  0.07465490359431501  0.9010898088248055  1.0000
  H   H359      1.0  0.0777085680458256  0.08943393803943019  0.8216872135613184  1.0000
  H   H360      1.0  0.08008719725605373  0.057502784232575266  0.828641279716991  1.0000
  N   N15       1.0  0.1574540082176725  0.009004662749318326  0.6737636220825038  1.0000
  C   C345      1.0  0.13047662902532858  0.010868692038490169  0.6859686458337482  1.0000
  C   C346      1.0  0.16506930566577346  0.9834138054331503  0.6755743845417083  1.0000
  C   C347      1.0  0.1704857810015456  0.02197958450541959  0.7270511665262664  1.0000
  C   C348      1.0  0.16379208233512238  0.01973506594195973  0.6062731449521046  1.0000
  H   H361      1.0  0.12403753070853082  0.029952893428726535  0.6844076335811695  1.0000
  H   H362      1.0  0.12495806380752786  0.0029253020253310336  0.736433868150563  1.0000
  H   H363      1.0  0.12012990475046526  0.001114488597067309  0.6468652763403046  1.0000
  H   H364      1.0  0.18535753803384022  0.981328804047527  0.6667957894103257  1.0000
  H   H365      1.0  0.16029470213995706  0.974507646155114  0.7252777381866166  1.0000
  H   H366      1.0  0.1558498409029821  0.9731326194981385  0.6354505229935583  1.0000
  H   H367      1.0  0.190860494001516  0.021877775914771025  0.7176196107799596  1.0000
  H   H368      1.0  0.1669245642573411  0.013736697783789609  0.7783521918741502  1.0000
  H   H369      1.0  0.16442147612382715  0.041108809459612816  0.7290510863870041  1.0000
  H   H370      1.0  0.15795962574963643  0.03890274201784094  0.6023529199579553  1.0000
  H   H371      1.0  0.15465395407226973  0.010067243806938686  0.5647552481759813  1.0000
  H   H372      1.0  0.18405796050724  0.01902602058286096  0.595734410932617  1.0000
  N   N16       1.0  0.5545743236057139  0.9917079111886254  0.6904837414431191  1.0000
  C   C349      1.0  0.5306245048846508  0.9791077689258066  0.6939714575248104  1.0000
  C   C350      1.0  0.5503480302335261  0.01733838234982077  0.6725642703635432  1.0000
  C   C351      1.0  0.5707873431263475  0.9806096332741939  0.6383392776622556  1.0000
  C   C352      1.0  0.5664854032588008  0.9898232267884611  0.7573954417920923  1.0000
  H   H373      1.0  0.5211600851200399  0.9798837489218554  0.6442434596630259  1.0000
  H   H374      1.0  0.517786619925433  0.9873073565736281  0.7320753261373099  1.0000
  H   H375      1.0  0.5330037434822666  0.9598121901823139  0.7089238447666663  1.0000
  H   H376      1.0  0.5679809827184858  0.0274444477089113  0.6681816306459867  1.0000
  H   H377      1.0  0.5406786052811254  0.019581883014670343  0.6233098351275549  1.0000
  H   H378      1.0  0.5386071622863124  0.026259809052141536  0.711896740602549  1.0000
  H   H379      1.0  0.5891026523343433  0.9895895334885497  0.6346928635952986  1.0000
  H   H380      1.0  0.562415903269979  0.9817846368134975  0.5871076694061752  1.0000
  H   H381      1.0  0.5742642862031693  0.9612122379320605  0.6504923549319014  1.0000
  H   H382      1.0  0.5842220635971335  0.9997471474220715  0.7573010872794799  1.0000
  H   H383      1.0  0.5705330267458354  0.9707434685196243  0.77203568194504  1.0000
  H   H384      1.0  0.5544310120324155  0.9974375323291493  0.798222464346002  1.0000
  N   N17       1.0  0.3516880508960299  0.6252828398419297  0.6139477581391763  1.0000
  C   C353      1.0  0.346256017431516  0.6499736596266169  0.6365405258309135  1.0000
  C   C354      1.0  0.3606556998794748  0.6105877937271946  0.6721207393407509  1.0000
  C   C355      1.0  0.3708627961371852  0.6260160454038279  0.5593205649365872  1.0000
  C   C356      1.0  0.32895556859517355  0.6145143866023282  0.5878864926254047  1.0000
  H   H385      1.0  0.3394357306421258  0.6615818760556488  0.5939048929171545  1.0000
  H   H386      1.0  0.3630479566991899  0.658616101240986  0.6565879704155295  1.0000
  H   H387      1.0  0.33182022030851327  0.6500057361775319  0.6777449549686178  1.0000
  H   H388      1.0  0.3652395990625048  0.5919136667280754  0.656764189652706  1.0000
  H   H389      1.0  0.3775602019314846  0.6183280007674419  0.6939523483683062  1.0000
  H   H390      1.0  0.3464804874986558  0.6092128965329604  0.7138507891516592  1.0000
  H   H391      1.0  0.36462216615054177  0.6365728221594841  0.5140080963016176  1.0000
  H   H392      1.0  0.3758246970314385  0.6076147956031872  0.5420722270826828  1.0000
  H   H393      1.0  0.3881920318160499  0.6343875884734644  0.5766501147448739  1.0000
  H   H394      1.0  0.3324881450276814  0.5959545210764395  0.5698012044247234  1.0000
  H   H395      1.0  0.3213884290949886  0.6252393956272375  0.5444987440417969  1.0000
  H   H396      1.0  0.31415498653056595  0.6133470027677884  0.6280262217344721  1.0000
  N   N18       1.0  0.7000420691153698  0.9576308914626582  0.8750560218486403  1.0000
  C   C357      1.0  0.6815583027669249  0.9671172747723681  0.8268757821975649  1.0000
  C   C358      1.0  0.7042692801952448  0.9317617406315093  0.86306211586624  1.0000
  C   C359      1.0  0.6907413220357769  0.9607962696883944  0.9455636486681248  1.0000
  C   C360      1.0  0.7234836144497451  0.9708436931067996  0.8646756307343682  1.0000
  H   H397      1.0  0.6636405348755245  0.957504560925684  0.8328821644541059  1.0000
  H   H398      1.0  0.68794419449321  0.9652415447187718  0.7730146795296815  1.0000
  H   H399      1.0  0.6777154838026903  0.9865637829080192  0.8348116775449805  1.0000
  H   H400      1.0  0.7116335011032878  0.9287010258783583  0.8106944843023824  1.0000
  H   H401      1.0  0.7176050855646121  0.9238047482431814  0.8998406781214876  1.0000
  H   H402      1.0  0.6868002945421936  0.9214215941034813  0.8690846547943387  1.0000
  H   H403      1.0  0.7039331085247567  0.9533259010257796  0.9835721834801177  1.0000
  H   H404      1.0  0.6728236948524511  0.9514234829984245  0.9545960472803712  1.0000
  H   H405      1.0  0.6876654783522061  0.9801208952684844  0.956881820960746  1.0000
  H   H406      1.0  0.7378504427000457  0.9642748145372919  0.9004777753774805  1.0000
  H   H407      1.0  0.7208946426954347  0.9904768805920473  0.872710561749507  1.0000
  H   H408      1.0  0.7310738728446863  0.9688515091021069  0.8119688148502481  1.0000
  N   N19       1.0  0.5917753271700817  0.7997628621863218  0.9792686313820318  1.0000
  C   C361      1.0  0.5715560940231307  0.8128031449570877  0.9444344465717932  1.0000
  C   C362      1.0  0.5893827778024724  0.8033230061529297  0.05343609090455037  1.0000
  C   C363      1.0  0.6158996945985588  0.8090789144259259  0.954301856731986  1.0000
  C   C364      1.0  0.5902578603727064  0.7738090390226813  0.9651482872036133  1.0000
  H   H409      1.0  0.5732023266475387  0.8113107473888149  0.8881495682581229  1.0000
  H   H410      1.0  0.5715561550554403  0.8323003330743413  0.9560293607691664  1.0000
  H   H411      1.0  0.553129478458056  0.8056179615007786  0.9601383777590103  1.0000
  H   H412      1.0  0.6040384249682554  0.7933452655783751  0.08148856120361092  1.0000
  H   H413      1.0  0.5909994074721119  0.8226579092759798  0.06613203900634579  1.0000
  H   H414      1.0  0.571267355099744  0.7968116670371537  0.07390910780738125  1.0000
  H   H415      1.0  0.6314972902107878  0.7993423776246235  0.9790201684285844  1.0000
  H   H416      1.0  0.6179402830581685  0.8285428128586875  0.9649528337868853  1.0000
  H   H417      1.0  0.6182447020715252  0.8070081956833332  0.8983461985461274  1.0000
  H   H418      1.0  0.6054080538317903  0.7634400958139715  0.9901342849038509  1.0000
  H   H419      1.0  0.5917118733681915  0.7704524366790234  0.9096413876572125  1.0000
  H   H420      1.0  0.5724474156484565  0.7660579548163855  0.9839952177271073  1.0000
  N   N20       1.0  0.5022671916953029  0.16031069298001968  0.6507589150456761  1.0000
  C   C365      1.0  0.493248496026949  0.1796986962949847  0.6953758304032579  1.0000
  C   C366      1.0  0.49362618617855053  0.13675666773806056  0.6778905262006926  1.0000
  C   C367      1.0  0.5295308871954775  0.1604481462012286  0.6482084496900317  1.0000
  C   C368      1.0  0.4928670847509176  0.16440556504263276  0.5812894828478554  1.0000
  H   H421      1.0  0.5003321862329092  0.1774106506903179  0.7479664335223365  1.0000
  H   H422      1.0  0.472718842711789  0.18008018751303442  0.699146529663062  1.0000
  H   H423      1.0  0.49944897351872547  0.1976752581625236  0.6758058718433625  1.0000
  H   H424      1.0  0.49982092015148494  0.12181265709846653  0.6446080762879952  1.0000
  H   H425      1.0  0.5009813609212355  0.1327682877909532  0.7294489852602656  1.0000
  H   H426      1.0  0.47312170859178176  0.13605771898933905  0.6819225270526147  1.0000
  H   H427      1.0  0.5366284233676376  0.17792685208168277  0.6280408035282168  1.0000
  H   H428      1.0  0.5370322747966703  0.14628017487437456  0.6143060575170297  1.0000
  H   H429      1.0  0.5373836704725408  0.15747097737474247  0.6996240158898004  1.0000
  H   H430      1.0  0.49965320533289237  0.15026472000836194  0.5461040580925879  1.0000
  H   H431      1.0  0.49918086139537166  0.18201585772450554  0.5592405927109596  1.0000
  H   H432      1.0  0.47232836629462943  0.16437886663765772  0.5808974048520338  1.0000
  N   N21       1.0  0.591588203323667  0.7650286947128662  0.5324360828253492  1.0000
  C   C369      1.0  0.5992221626202903  0.7876889224746236  0.5635404580646137  1.0000
  C   C370      1.0  0.6030437902343908  0.7444192857061656  0.5690677218575867  1.0000
  C   C371      1.0  0.599650043323529  0.7649670565025554  0.4601234097876534  1.0000
  C   C372      1.0  0.5643859901263752  0.7630058336561119  0.5370898110316978  1.0000
  H   H433      1.0  0.5906347314530946  0.8036413788516902  0.5379029027299617  1.0000
  H   H434      1.0  0.6196252538213516  0.7899115648041564  0.5606723163564543  1.0000
  H   H435      1.0  0.5935022950273566  0.788153657429594  0.6181776280871136  1.0000
  H   H436      1.0  0.5978419626472044  0.7270502273084433  0.546582802968461  1.0000
  H   H437      1.0  0.6235615139764773  0.7453962734483779  0.567137998005536  1.0000
  H   H438      1.0  0.5970851524577987  0.7436605079855512  0.6235466369243567  1.0000
  H   H439      1.0  0.5918262883500512  0.7805656735995622  0.43113706386144607  1.0000
  H   H440      1.0  0.5935027631956548  0.7483642193077008  0.434933760479988  1.0000
  H   H441      1.0  0.6201432150868371  0.7656706248417495  0.45450930796304373  1.0000
  H   H442      1.0  0.5579654580074778  0.7460578030092344  0.5141477910436475  1.0000
  H   H443      1.0  0.5551055501108442  0.7782426410943352  0.50998993352028  1.0000
  H   H444      1.0  0.5576456244490259  0.762989829816088  0.5909823640750866  1.0000
  N   N22       1.0  0.8274846439047039  0.7624966587006248  0.20023124368274692  1.0000
  C   C373      1.0  0.8332001000165159  0.7744917270449181  0.13399427894408555  1.0000
  C   C374      1.0  0.8341445523060842  0.7785188738899294  0.2558718109911329  1.0000
  C   C375      1.0  0.8418200665794249  0.7398096077219288  0.20591485124871456  1.0000
  C   C376      1.0  0.8007767692208999  0.7572551299398621  0.20506260273969024  1.0000
  H   H445      1.0  0.8289653527132841  0.7627056375739537  0.09080287918847763  1.0000
  H   H446      1.0  0.8531047759707603  0.7790914060278695  0.12926771681937632  1.0000
  H   H447      1.0  0.8224061544041356  0.7914654403952812  0.12730946371180396  1.0000
  H   H448      1.0  0.8232317811941142  0.7955860238148162  0.25370287179888007  1.0000
  H   H449      1.0  0.8304688043713353  0.7698622109139007  0.3065999537475548  1.0000
  H   H450      1.0  0.8540801080323204  0.7833263291587949  0.2527834643989937  1.0000
  H   H451      1.0  0.8375524254322222  0.7298885102551531  0.25444036652358215  1.0000
  H   H452      1.0  0.8620768598186872  0.7432024111244743  0.20363373008886443  1.0000
  H   H453      1.0  0.8377689352266053  0.7275494044573414  0.16358174337099252  1.0000
  H   H454      1.0  0.7951837127417185  0.7450633193134572  0.16423218144565577  1.0000
  H   H455      1.0  0.789421729723048  0.7739871041385219  0.2000163857957502  1.0000
  H   H456      1.0  0.7956598843465718  0.7483062407889192  0.2544732515373951  1.0000
  N   N23       1.0  0.4787125340898295  0.4879851108996228  0.0027935358624706645  1.0000
  C   C377      1.0  0.501945406796952  0.47524322591266493  0.9850288545216818  1.0000
  C   C378      1.0  0.4843703844420984  0.5098555007432934  0.04070731120217319  1.0000
  C   C379      1.0  0.46290150147124753  0.47202578357896363  0.045740902355674296  1.0000
  C   C380      1.0  0.46558322682281805  0.49477016835648674  0.9398365826768793  1.0000
  H   H457      1.0  0.5141465952086818  0.4864514546996533  0.9511587765400282  1.0000
  H   H458      1.0  0.49821286858582353  0.45839015264970717  0.9578946838135143  1.0000
  H   H459      1.0  0.5125123850403986  0.47003890634324375  0.03116444998735557  1.0000
  H   H460      1.0  0.4671795647987668  0.519862178352532  0.05479139533395849  1.0000
  H   H461      1.0  0.49405848740735175  0.5052929596078558  0.08883537406843112  1.0000
  H   H462      1.0  0.49639244993233894  0.522281959720196  0.009964983449982201  1.0000
  H   H463      1.0  0.4723370378709248  0.4660002291782844  0.09306462938470239  1.0000
  H   H464      1.0  0.4577393488118509  0.45565677593410603  0.018008425122381322  1.0000
  H   H465      1.0  0.4454850968961811  0.4812412104942495  0.061642565957113815  1.0000
  H   H466      1.0  0.4476440024015865  0.5038827472301164  0.951162278176786  1.0000
  H   H467      1.0  0.46136060952904306  0.47873534708448495  0.9093620893067582  1.0000
  H   H468      1.0  0.4767663749370304  0.5071020964665391  0.9064330247466144  1.0000
  N   N24       1.0  0.3018991674825718  0.359227666117054  0.10766335109682479  1.0000
  C   C381      1.0  0.29327477252501927  0.37870602940186593  0.06140450715799628  1.0000
  C   C382      1.0  0.32759348680337  0.364008570769824  0.12736151788082828  1.0000
  C   C383      1.0  0.300908939803478  0.3360386423307018  0.0726149450861382  1.0000
  C   C384      1.0  0.2858080611834577  0.3581475235082028  0.16928918751713407  1.0000
  H   H469      1.0  0.2941884127170167  0.3964299912060054  0.08596681896279024  1.0000
  H   H470      1.0  0.27373130623520187  0.3760413671389086  0.04673606915715922  1.0000
  H   H471      1.0  0.3048405233541086  0.37990288598995414  0.01403002971936318  1.0000
  H   H472      1.0  0.3347415980502264  0.34978118623906895  0.16273452246385434  1.0000
  H   H473      1.0  0.3403914454475874  0.3648127421287555  0.08231660713016287  1.0000
  H   H474      1.0  0.3290950412777089  0.38148569676256006  0.15354995941791993  1.0000
  H   H475      1.0  0.30697153764025353  0.32089900261011833  0.10647137396185569  1.0000
  H   H476      1.0  0.31301690266742477  0.336043395631325  0.026234222619766046  1.0000
  H   H477      1.0  0.28177383354918867  0.3319621658977867  0.05675638609253886  1.0000
  H   H478      1.0  0.2870397666956338  0.3748322042771248  0.1989705279251086  1.0000
  H   H479      1.0  0.29103501008285315  0.3428955612682404  0.20383123634308342  1.0000
  H   H480      1.0  0.26602057878226043  0.35599596598015243  0.15627296951451264  1.0000
  N   N25       1.0  0.6487164989190927  0.09467769667265118  0.6993911110582197  1.0000
  C   C385      1.0  0.628650054584454  0.08335487875623537  0.7405741513678801  1.0000
  C   C386      1.0  0.6438894039263899  0.12077520464784797  0.6920629679607438  1.0000
  C   C387      1.0  0.6498476358834515  0.0838976407360062  0.6313191022102009  1.0000
  C   C388      1.0  0.6725306555148914  0.09070657399051216  0.7335457519951611  1.0000
  H   H481      1.0  0.6321319753134953  0.0637461940153104  0.7487765898804153  1.0000
  H   H482      1.0  0.6105613842563997  0.08536682919907192  0.7152096310481533  1.0000
  H   H483      1.0  0.6267028927937606  0.09165980414068299  0.7914240779511305  1.0000
  H   H484      1.0  0.6588321826635399  0.1298355334058833  0.6620247971474555  1.0000
  H   H485      1.0  0.6263618474128684  0.12454034270023745  0.6652918316871301  1.0000
  H   H486      1.0  0.6425281229758347  0.12954615606032935  0.742357054461928  1.0000
  H   H487      1.0  0.6649909260505724  0.09188532568717583  0.5991953186642948  1.0000
  H   H488      1.0  0.6323242515421094  0.0868860805122044  0.6035901506845255  1.0000
  H   H489      1.0  0.6532525270133067  0.06413075993830611  0.6349945471136922  1.0000
  H   H490      1.0  0.6766705813780483  0.07119337654918774  0.7403992075444827  1.0000
  H   H491      1.0  0.6725045598121252  0.0988959545862379  0.7846468508490944  1.0000
  H   H492      1.0  0.6881304784447665  0.09874061174717612  0.7033734937709621  1.0000
  N   N26       1.0  0.8593507524109244  0.5596822518430224  0.4574152810206996  1.0000
  C   C389      1.0  0.8344806876511697  0.5647596782755113  0.48630984123779364  1.0000
  C   C390      1.0  0.8782301502396784  0.5698516819690589  0.5016134335181196  1.0000
  C   C391      1.0  0.8616754237910345  0.5707022312614378  0.3884642331993802  1.0000
  C   C392      1.0  0.8630945766337023  0.5333854751819715  0.4532933077314984  1.0000
  H   H493      1.0  0.8307656009987482  0.584428637656802  0.4886919849123623  1.0000
  H   H494      1.0  0.8324545604362651  0.5572636819472572  0.5390181102317951  1.0000
  H   H495      1.0  0.8197172312000859  0.5566018095704429  0.455855187587964  1.0000
  H   H496      1.0  0.8773544836797207  0.5616087304349505  0.5537052279889912  1.0000
  H   H497      1.0  0.8971743561889074  0.5666140290919298  0.4808256452571372  1.0000
  H   H498      1.0  0.8758634040590006  0.5896203586119751  0.5066260451921133  1.0000
  H   H499      1.0  0.8800162442402165  0.5665416508064244  0.3646806653102308  1.0000
  H   H500      1.0  0.8598792877654309  0.5906423158764517  0.3896679542574421  1.0000
  H   H501      1.0  0.8473433070685981  0.5638830289191448  0.3541377253283132  1.0000
  H   H502      1.0  0.8817482735388185  0.5289334467239916  0.4318204781604681  1.0000
  H   H503      1.0  0.8491741763423605  0.525062578516198  0.42042067175802983  1.0000
  H   H504      1.0  0.8615270440462078  0.5244505541429614  0.5043764773268715  1.0000
  N   N27       1.0  0.5730315060693839  0.17787578830088888  0.9659244548814182  1.0000
  C   C393      1.0  0.5574972228939746  0.19847796663263167  0.9870076646808866  1.0000
  C   C394      1.0  0.5916115393742302  0.1860929538676829  0.914523916572919  1.0000
  C   C395      1.0  0.5573180461997068  0.15937255209748508  0.9361620609488376  1.0000
  C   C396      1.0  0.5856067952404256  0.1675452413934399  0.026040011547819653  1.0000
  H   H505      1.0  0.5427326143643219  0.19273150288021573  0.02407205237973842  1.0000
  H   H506      1.0  0.5481494199410115  0.20710812222815492  0.9427007029302986  1.0000
  H   H507      1.0  0.5685489936484411  0.21251361105998604  0.011809564100444314  1.0000
  H   H508      1.0  0.6036333490395918  0.17095431834659913  0.8974022848300471  1.0000
  H   H509      1.0  0.5826428743412276  0.19374856729180936  0.8682242278795419  1.0000
  H   H510      1.0  0.6037244339235687  0.2002296033795142  0.934810725550397  1.0000
  H   H511      1.0  0.5430073196247893  0.15274894232525493  0.9733697692193117  1.0000
  H   H512      1.0  0.5684257137514799  0.14358843781855812  0.9192977082552093  1.0000
  H   H513      1.0  0.547493332182805  0.1666399261589789  0.8908108336656864  1.0000
  H   H514      1.0  0.5974026658471685  0.1518437594192882  0.012228590428583486  1.0000
  H   H515      1.0  0.571992044718388  0.16133443249338428  0.06581184738228818  1.0000
  H   H516      1.0  0.5976097753030525  0.18105711069946287  0.049851816819114  1.0000
  N   N28       1.0  0.17888785590688544  0.4135554914926254  0.41219977309132744  1.0000
  C   C397      1.0  0.18802434091804493  0.4325313267662766  0.4565723797472619  1.0000
  C   C398      1.0  0.19865026695314447  0.3955206388916687  0.40064899963806244  1.0000
  C   C399      1.0  0.17166206968534797  0.4244144538694279  0.34618680488072934  1.0000
  C   C400      1.0  0.15724825330953002  0.4017316408169997  0.44519781195269525  1.0000
  H   H517      1.0  0.17348209479997861  0.4463287975624781  0.466836328055084  1.0000
  H   H518      1.0  0.20425000160564424  0.4419262414219395  0.43307737842237215  1.0000
  H   H519      1.0  0.1937616609254166  0.42492623200763757  0.5067701414534924  1.0000
  H   H520      1.0  0.21513186120433653  0.4037591727673307  0.37476907266956616  1.0000
  H   H521      1.0  0.20476034385386704  0.38710769963324343  0.44946956559620554  1.0000
  H   H522      1.0  0.19227078070999243  0.38085870393690796  0.36770379154719235  1.0000
  H   H523      1.0  0.18747321329942004  0.4335957140715273  0.3197679477912247  1.0000
  H   H524      1.0  0.15641434109245808  0.43779793939514666  0.3523308797445384  1.0000
  H   H525      1.0  0.16498807511635333  0.4105076385213605  0.3114013725951446  1.0000
  H   H526      1.0  0.14939371772670068  0.3877521872715975  0.41229254754690714  1.0000
  H   H527      1.0  0.14223055081562302  0.4149308438703041  0.45629723010787526  1.0000
  H   H528      1.0  0.1621658844347762  0.3928530020047418  0.4944833935522126  1.0000
  N   N29       1.0  0.02922227787574183  0.2472453836771978  0.7271527791851223  1.0000
  C   C401      1.0  0.01636305429635776  0.23507535104171692  0.7851672651793444  1.0000
  C   C402      1.0  0.04308619531887681  0.2292482131290903  0.6870975006647012  1.0000
  C   C403      1.0  0.046559373714828434  0.2651351805814887  0.753027818807479  1.0000
  C   C404      1.0  0.010920259792986498  0.2594796709552002  0.683326367817341  1.0000
  H   H529      1.0  0.005478520937954645  0.2479778475120242  0.8163620633821927  1.0000
  H   H530      1.0  0.029701411127354582  0.22580805643644825  0.8195485208325834  1.0000
  H   H531      1.0  0.0034251218615890533  0.22108385143255488  0.7677713550278145  1.0000
  H   H532      1.0  0.05321526808938071  0.23772940192360423  0.6429941828962488  1.0000
  H   H533      1.0  0.05713685589315909  0.2197960031463987  0.7184659898322251  1.0000
  H   H534      1.0  0.03069426195634284  0.2152396408118211  0.6673435600843248  1.0000
  H   H535      1.0  0.056613773059779327  0.2746713479571583  0.7106473241602496  1.0000
  H   H536      1.0  0.060700030182359255  0.2564288223930365  0.7859830633179035  1.0000
  H   H537      1.0  0.03683923346273321  0.27899937356416654  0.783755670224096  1.0000
  H   H538      1.0  0.00015449454397420403  0.2732435406119525  0.7118660671384129  1.0000
  H   H539      1.0  0.9975381576923397  0.24643316820103378  0.6631375264675966  1.0000
  H   H540      1.0  0.020088435206267796  0.268780349616223  0.6389512984332771  1.0000
  N   N30       1.0  0.8245348972976212  0.9219439836180933  0.31671862634169634  1.0000
  C   C405      1.0  0.8039565883175864  0.9355718431838697  0.2854788217463917  1.0000
  C   C406      1.0  0.8202768272908596  0.8958617640392564  0.3103193363534471  1.0000
  C   C407      1.0  0.8258595559296062  0.9278689674913086  0.3895188914482781  1.0000
  C   C408      1.0  0.847988962622674  0.9284737260093678  0.2814444408588641  1.0000
  H   H541      1.0  0.8062305927329603  0.955326121850866  0.2905763425942942  1.0000
  H   H542      1.0  0.7859548974954964  0.9307741250958591  0.31026639427160174  1.0000
  H   H543      1.0  0.8025230814615724  0.9317779682367869  0.2303141365853263  1.0000
  H   H544      1.0  0.8355243206862616  0.88499797779767  0.33285197211548034  1.0000
  H   H545      1.0  0.8027553987747211  0.8902544988644361  0.3365714563111424  1.0000
  H   H546      1.0  0.8189695317964497  0.8907993644715388  0.2560782511004869  1.0000
  H   H547      1.0  0.8412345931685605  0.9180137253248449  0.41482385762827856  1.0000
  H   H548      1.0  0.8084326895207771  0.9230212364172059  0.4175094940791577  1.0000
  H   H549      1.0  0.8286984106896317  0.9474711928468882  0.3963793650439864  1.0000
  H   H550      1.0  0.8639247114014442  0.9182186274740738  0.30271277702528554  1.0000
  H   H551      1.0  0.8519572520435394  0.9479791185539411  0.2857380730654606  1.0000
  H   H552      1.0  0.8473854674256153  0.9244763923514673  0.22623662646727527  1.0000
  N   N31       1.0  0.05257878742964395  0.9112743735498318  0.8513656251052268  1.0000
  C   C409      1.0  0.047475951043137066  0.9329279314533934  0.891750157566763  1.0000
  C   C410      1.0  0.07954738917670312  0.9085236838124815  0.8406983770366444  1.0000
  C   C411      1.0  0.04052846209383776  0.9138545920121961  0.7847555282469506  1.0000
  C   C412      1.0  0.04276631534354358  0.8898019807747576  0.8880849364103945  1.0000
  H   H553      1.0  0.05621690907313748  0.9315907402295897  0.9424648857683501  1.0000
  H   H554      1.0  0.027323091822507806  0.9355015597394284  0.9009733972608401  1.0000
  H   H555      1.0  0.05455078357974541  0.9494710650205509  0.8651748933048687  1.0000
  H   H556      1.0  0.08410706373054833  0.8925326446064419  0.8095786043302374  1.0000
  H   H557      1.0  0.08750780507999845  0.924525143466672  0.8134922357718845  1.0000
  H   H558      1.0  0.08924821233433877  0.9063104715169841  0.8898153169249905  1.0000
  H   H559      1.0  0.020122942202540628  0.915627434342349  0.7908923805477405  1.0000
  H   H560      1.0  0.04448743913972919  0.8980188454565299  0.7523637499732962  1.0000
  H   H561      1.0  0.04718701716464979  0.9301246859181999  0.7561757098285166  1.0000
  H   H562      1.0  0.04646216990842178  0.8731523545967373  0.8589089176024369  1.0000
  H   H563      1.0  0.022410848645391335  0.8912980818237521  0.8968238870242793  1.0000
  H   H564      1.0  0.05124294421743225  0.88739578740178  0.9389269155354419  1.0000
  N   N32       1.0  0.23749034059218582  0.0656377647573716  0.27763084460264825  1.0000
  C   C413      1.0  0.2268537719563687  0.06834235324673332  0.20917265973023777  1.0000
  C   C414      1.0  0.26135857176040944  0.07835560187959434  0.27888151391882865  1.0000
  C   C415      1.0  0.24144165656684125  0.0398378299044424  0.29417583054777446  1.0000
  C   C416      1.0  0.22025346423359976  0.07606227613946359  0.3284111870768039  1.0000
  H   H565      1.0  0.20877142428991105  0.05902075181311228  0.20660053103840015  1.0000
  H   H566      1.0  0.23936716511384973  0.06068348575231486  0.16945813418018654  1.0000
  H   H567      1.0  0.22366710145334637  0.08766112301876272  0.19529091345973382  1.0000
  H   H568      1.0  0.2591281483474561  0.09774500975491596  0.26473514393874703  1.0000
  H   H569      1.0  0.26953356773313675  0.07740818935619265  0.3304892095438321  1.0000
  H   H570      1.0  0.27507161447184164  0.07057440755889166  0.24251823170766484  1.0000
  H   H571      1.0  0.24942821717782238  0.03720815953835843  0.345622792573249  1.0000
  H   H572      1.0  0.25421859733388874  0.031224145428410788  0.2568397401951227  1.0000
  H   H573      1.0  0.22372173468449316  0.029747118111919546  0.2948628087720094  1.0000
  H   H574      1.0  0.22792265052066565  0.07470266088335142  0.3804079158812763  1.0000
  H   H575      1.0  0.20226958250490915  0.06643531393801783  0.3303814830446651  1.0000
  H   H576      1.0  0.216401195303538  0.0953928381940965  0.3169268981849374  1.0000
  N   N33       1.0  0.21018750942831682  0.16502363601668063  0.7151946669998944  1.0000
  C   C417      1.0  0.19334460286962432  0.15336632062880046  0.6678688697112986  1.0000
  C   C418      1.0  0.23609047636649785  0.16045934700158462  0.6936356401926677  1.0000
  C   C419      1.0  0.20612206189636756  0.15510173462005444  0.7848803840081611  1.0000
  C   C420      1.0  0.2052571115691907  0.19119188683544613  0.7145430779236943  1.0000
  H   H577      1.0  0.19483943985767585  0.1614757057892872  0.6157223642195381  1.0000
  H   H578      1.0  0.17370513061717718  0.15492527049875143  0.6852816600380773  1.0000
  H   H579      1.0  0.19767022955451805  0.13391567133399987  0.663470168743209  1.0000
  H   H580      1.0  0.24040467763061862  0.14080261895903667  0.6944504953263515  1.0000
  H   H581      1.0  0.2398723113438004  0.16745910744223838  0.6410252037671484  1.0000
  H   H582      1.0  0.24923498921970536  0.16915167723504979  0.7282483140503293  1.0000
  H   H583      1.0  0.18667395949203489  0.1577441879399744  0.8029171204018496  1.0000
  H   H584      1.0  0.21837675153691286  0.1637496583027875  0.8218437866698424  1.0000
  H   H585      1.0  0.21028084288971283  0.13552352918728527  0.7875988400416696  1.0000
  H   H586      1.0  0.18573336333509394  0.19512073862945956  0.7298522567674037  1.0000
  H   H587      1.0  0.20845763520649854  0.19939272811868403  0.6630205834873376  1.0000
  H   H588      1.0  0.21746440163024752  0.20052839805836645  0.7504029795260413  1.0000
  N   N34       1.0  0.5899062704855497  0.28355513178429403  0.45486171692969696  1.0000
  C   C421      1.0  0.5818055031218067  0.3060282044235524  0.4201380246489739  1.0000
  C   C422      1.0  0.6077806713278807  0.2893200707180678  0.5079929539542071  1.0000
  C   C423      1.0  0.6017363600152484  0.2674876893024033  0.40469711283080706  1.0000
  C   C424      1.0  0.5681963764078687  0.27144282121984054  0.48645157107862047  1.0000
  H   H589      1.0  0.568198409611281  0.3023369614934987  0.37993973577176804  1.0000
  H   H590      1.0  0.5976962098389224  0.31563328184802136  0.3954899454398386  1.0000
  H   H591      1.0  0.5728324139709036  0.31857856591696343  0.45673879956156355  1.0000
  H   H592      1.0  0.6248070640246666  0.2976706031631594  0.4857656373346254  1.0000
  H   H593      1.0  0.5997652302110434  0.3021793266463611  0.5451275885946719  1.0000
  H   H594      1.0  0.6135477179714806  0.2729634559009647  0.5374979641661313  1.0000
  H   H595      1.0  0.6077263937192965  0.25019683855856506  0.428990808576687  1.0000
  H   H596      1.0  0.6183531704166269  0.2758721330008929  0.38019147950917603  1.0000
  H   H597      1.0  0.5887924770081044  0.2629911108365554  0.363534822274512  1.0000
  H   H598      1.0  0.5736255392581109  0.25483592157216967  0.515238633611534  1.0000
  H   H599      1.0  0.5547539588747854  0.26600832712950556  0.44755102472986646  1.0000
  H   H600      1.0  0.5582413589818134  0.2833432925082785  0.5226268518976253  1.0000
  N   N35       1.0  0.6879231251605823  0.8798602995589729  0.5048294117182158  1.0000
  C   C425      1.0  0.6969442483188159  0.9048857896233529  0.5061028130018316  1.0000
  C   C426      1.0  0.682921070529781  0.8709676213016516  0.5751374307656129  1.0000
  C   C427      1.0  0.7068930832082657  0.8643754200186149  0.47261162238778204  1.0000
  C   C428      1.0  0.6649650029944636  0.8791688721903496  0.4653770402612942  1.0000
  H   H601      1.0  0.7006745315240958  0.9122296227552328  0.4537392585649186  1.0000
  H   H602      1.0  0.7144947777576209  0.9061252980636477  0.5343394249315898  1.0000
  H   H603      1.0  0.683158697724939  0.9170100283099745  0.5308302652097406  1.0000
  H   H604      1.0  0.6760294305038321  0.8521662700568331  0.5759126114375691  1.0000
  H   H605      1.0  0.6998250176671931  0.871421034409354  0.6063513789016961  1.0000
  H   H606      1.0  0.6686485768547025  0.882159137031627  0.6010902742082284  1.0000
  H   H607      1.0  0.7004973317557905  0.8454670984714919  0.4688964849081164  1.0000
  H   H608      1.0  0.7244687583390121  0.864357923714549  0.5010754009229856  1.0000
  H   H609      1.0  0.7113941228236197  0.8708386005569035  0.42017081060728545  1.0000
  H   H610      1.0  0.6577963525146523  0.8605216374845414  0.4622691873163123  1.0000
  H   H611      1.0  0.6680904453324527  0.8858964304363568  0.4121401227132546  1.0000
  H   H612      1.0  0.6501645073776668  0.8905463518958886  0.4887249173395116  1.0000
  N   N36       1.0  0.13047491581668866  0.7744121541473288  0.5980726218720205  1.0000
  C   C429      1.0  0.11833848412160287  0.7622039618769962  0.5417275167016702  1.0000
  C   C430      1.0  0.15375628185395063  0.7853899760859279  0.5726114963081924  1.0000
  C   C431      1.0  0.1359700930401281  0.7566666342104075  0.6529932353721609  1.0000
  C   C432      1.0  0.11391148024335489  0.7934083376293665  0.6247910578996114  1.0000
  H   H613      1.0  0.10066233883535071  0.7537917503791213  0.5588943345615789  1.0000
  H   H614      1.0  0.130150903264231  0.7474554124629986  0.5211315106120439  1.0000
  H   H615      1.0  0.11396163016946217  0.7749822468939038  0.49921438083286734  1.0000
  H   H616      1.0  0.1634119281471271  0.7947551558168383  0.6138334686640653  1.0000
  H   H617      1.0  0.16668209228650677  0.7715533776781115  0.5519688789125619  1.0000
  H   H618      1.0  0.15029071350043455  0.7989256399404334  0.531205322079763  1.0000
  H   H619      1.0  0.118871846729882  0.7478493588229036  0.6731645190067828  1.0000
  H   H620      1.0  0.14509046127998815  0.7651747532543208  0.6965043825146672  1.0000
  H   H621      1.0  0.14828814198874807  0.7419534437067054  0.6344244349863221  1.0000
  H   H622      1.0  0.12243319798006705  0.8031734070191724  0.6671395391506835  1.0000
  H   H623      1.0  0.09620717451229922  0.7858068120082201  0.6447636650697368  1.0000
  H   H624      1.0  0.10921193191099357  0.8069990652741139  0.5845766086625973  1.0000
  N   N37       1.0  0.8029397859808223  0.595131618443649  0.9236979760876627  1.0000
  C   C433      1.0  0.8217670918921305  0.587667116295476  0.9735453439534577  1.0000
  C   C434      1.0  0.8105246942578017  0.5871229305023875  0.8551242636160302  1.0000
  C   C435      1.0  0.8005104416222772  0.6216350112715016  0.922958845245279  1.0000
  C   C436      1.0  0.7789757317007634  0.5841450434059595  0.9433527779903882  1.0000
  H   H625      1.0  0.8399881598225516  0.5960301000753889  0.9611999711531539  1.0000
  H   H626      1.0  0.8244108710919604  0.5678037899051817  0.9751287066244011  1.0000
  H   H627      1.0  0.8164350652819938  0.5934236093514285  0.025807507974687116  1.0000
  H   H628      1.0  0.7966096996486395  0.592546768592076  0.8164579377666213  1.0000
  H   H629      1.0  0.8285082443738601  0.5951039996726807  0.8386457694303857  1.0000
  H   H630      1.0  0.8124829910295066  0.5671887677027152  0.8535000444161089  1.0000
  H   H631      1.0  0.7874471010412472  0.6281860174155286  0.883733789726613  1.0000
  H   H632      1.0  0.8185689235522905  0.6305536105385752  0.9125173610409284  1.0000
  H   H633      1.0  0.7934682692668381  0.6281628583731741  0.9726352994690697  1.0000
  H   H634      1.0  0.7802954411968075  0.5641647189502883  0.9457565671908831  1.0000
  H   H635      1.0  0.7644854437909592  0.5888743371907604  0.9059778969906026  1.0000
  H   H636      1.0  0.7722422038952406  0.5903986863803394  0.9938719450946307  1.0000
  N   N38       1.0  0.7197291703927792  0.7932697906320889  0.025471919399361553  1.0000
  C   C437      1.0  0.7241535883375236  0.7718999105998735  0.9834233753856115  1.0000
  C   C438      1.0  0.7411951053077109  0.8094904999939719  0.01917798015503469  1.0000
  C   C439      1.0  0.7161814635007991  0.7855609040036061  0.0973936529612831  1.0000
  C   C440      1.0  0.6972853091464059  0.8059988517817395  0.001979102458825821  1.0000
  H   H637      1.0  0.7084769178941339  0.759088293731971  0.9883553424294967  1.0000
  H   H638      1.0  0.7411084229193485  0.7619596248246228  0.9991405995482849  1.0000
  H   H639      1.0  0.72643699877243  0.7769267866717969  0.9285892904697517  1.0000
  H   H640      1.0  0.7381875017358389  0.8260420880327519  0.04910767411666361  1.0000
  H   H641      1.0  0.7582846828201089  0.8005910203191742  0.03836997556509458  1.0000
  H   H642      1.0  0.7447187510980382  0.815261100589948  0.9653322886396997  1.0000
  H   H643      1.0  0.7129711909502477  0.8011490207929174  0.13105414073101707  1.0000
  H   H644      1.0  0.7324647753541019  0.7752777505519742  0.11654591617387977  1.0000
  H   H645      1.0  0.6998327606562776  0.7737244584638159  0.10375783081754242  1.0000
  H   H646      1.0  0.6991311201180177  0.8120242909068321  0.9477488106238692  1.0000
  H   H647      1.0  0.6932699192261712  0.8222005718117011  0.032747874956405854  1.0000
  H   H648      1.0  0.6808076118885802  0.7941670042796459  0.006112100016711697  1.0000
  N   N39       1.0  0.9482286086353923  0.5904782370997831  0.8017566902807597  1.0000
  C   C441      1.0  0.945148794220191  0.5981883349266738  0.729988757468834  1.0000
  C   C442      1.0  0.9494496435410994  0.563948754965858  0.8066203515547  1.0000
  C   C443      1.0  0.9269477042840585  0.5992183258302965  0.8427309916017707  1.0000
  C   C444      1.0  0.971383048649822  0.6004980953282439  0.8274178836559954  1.0000
  H   H649      1.0  0.9448258588624617  0.6181413779263976  0.7241458483891793  1.0000
  H   H650      1.0  0.9276272544544468  0.5912508147662778  0.7093809132903897  1.0000
  H   H651      1.0  0.9605577182292079  0.5914437925947721  0.697317533718478  1.0000
  H   H652      1.0  0.9514266505756276  0.5574987849943327  0.8602226389797739  1.0000
  H   H653      1.0  0.932458681370866  0.5556838014743056  0.7866163386621515  1.0000
  H   H654      1.0  0.9655146708635545  0.5568400145616398  0.7767631917696804  1.0000
  H   H655      1.0  0.929132489462651  0.5947780045923436  0.8978065248043821  1.0000
  H   H656      1.0  0.9093472001207822  0.591143132729675  0.8260774640107684  1.0000
  H   H657      1.0  0.9249491619655288  0.6191200240507253  0.8379354442188147  1.0000
  H   H658      1.0  0.9713480766753563  0.6204415759515665  0.8235150963946951  1.0000
  H   H659      1.0  0.9877589845301967  0.5938876395456624  0.7979464909258221  1.0000
  H   H660      1.0  0.9740142718807219  0.5955758131872398  0.8820034368344775  1.0000
  N   N40       1.0  0.3737085059936179  0.26559996031777455  0.08887811739212248  1.0000
  C   C445      1.0  0.354866414979585  0.28107647600985464  0.12179652571162602  1.0000
  C   C446      1.0  0.38591990798402875  0.2790240581609177  0.031972160958246176  1.0000
  C   C447      1.0  0.36170508366541515  0.24399632713282365  0.06259310727522971  1.0000
  C   C448      1.0  0.3923878569071551  0.25823151707474795  0.13918299586040297  1.0000
  H   H661      1.0  0.34542248593106906  0.27142850688799547  0.16518612502011873  1.0000
  H   H662      1.0  0.3402442176595898  0.2865918689702633  0.08549892642642432  1.0000
  H   H663      1.0  0.36326290679737583  0.29765456655566486  0.14188151320065526  1.0000
  H   H664      1.0  0.3948225677261498  0.29566432581846896  0.04978211061843818  1.0000
  H   H665      1.0  0.40069323136235263  0.2679875732897565  0.007253216957989084  1.0000
  H   H666      1.0  0.3725112875458849  0.284442254283865  0.992215158144206  1.0000
  H   H667      1.0  0.375424555045995  0.2317244586368178  0.0382253579168812  1.0000
  H   H668      1.0  0.34758484896415887  0.24876525258494958  0.024098399304411933  1.0000
  H   H669      1.0  0.3521296988342872  0.23354725609581387  0.1041369925101645  1.0000
  H   H670      1.0  0.4014259423490112  0.27397802120686077  0.16165964794731563  1.0000
  H   H671      1.0  0.407282227194114  0.24711816696962358  0.11554069063933237  1.0000
  H   H672      1.0  0.38411612349452395  0.2473220043312542  0.18189474831163974  1.0000
  N   N41       1.0  0.16949603772273614  0.2347981436883168  0.1130582306233754  1.0000
  C   C449      1.0  0.17542494807884534  0.2391021467335441  0.04009192205916357  1.0000
  C   C450      1.0  0.14301172902543963  0.24002445123029098  0.12588891046245876  1.0000
  C   C451      1.0  0.18462920175600925  0.2507432845914963  0.1543847032510035  1.0000
  C   C452      1.0  0.17475992833189655  0.20937808740130814  0.13170108883599374  1.0000
  H   H673      1.0  0.19521335028509  0.23513045789682266  0.028080914400116397  1.0000
  H   H674      1.0  0.17177059967187466  0.2581465882229865  0.024508023719755693  1.0000
  H   H675      1.0  0.1641667315793478  0.2274998806409948  0.007488703590970314  1.0000
  H   H676      1.0  0.13780943125197795  0.23689289916629627  0.18042029551775568  1.0000
  H   H677      1.0  0.13838924422042312  0.25908603676710146  0.11245012379867149  1.0000
  H   H678      1.0  0.13107507886037653  0.22835420469118475  0.09511535303505748  1.0000
  H   H679      1.0  0.18103649976557742  0.24766535508872015  0.20980598768215075  1.0000
  H   H680      1.0  0.1806644120176013  0.2700583045172481  0.1425467731038772  1.0000
  H   H681      1.0  0.20473229164339957  0.2477441870937337  0.14471722275833976  1.0000
  H   H682      1.0  0.19434146761497717  0.20439559085155073  0.1202499113312794  1.0000
  H   H683      1.0  0.16291197051509437  0.1969448308650317  0.10325151974539337  1.0000
  H   H684      1.0  0.17139130376091988  0.20565473207797014  0.1869477756735626  1.0000
  N   N42       1.0  0.8307962828277027  0.08450113125472693  0.692506371846885  1.0000
  C   C453      1.0  0.8210187817661293  0.06941135058831548  0.7496182010538146  1.0000
  C   C454      1.0  0.8404070327577746  0.06883670544819148  0.6380871625917229  1.0000
  C   C455      1.0  0.851022075120769  0.09967800701271312  0.7167408316494349  1.0000
  C   C456      1.0  0.8107437801814193  0.10001194149926013  0.665602885839106  1.0000
  H   H685      1.0  0.8133165475308324  0.08058716267780726  0.7913614271245276  1.0000
  H   H686      1.0  0.8356832645317767  0.05759854138902823  0.7714282473667736  1.0000
  H   H687      1.0  0.8059033546242907  0.05751640961735597  0.7329675210778415  1.0000
  H   H688      1.0  0.8475332064897916  0.07956456166366856  0.593547797481545  1.0000
  H   H689      1.0  0.8558785422816778  0.057216863560110874  0.6563424719155381  1.0000
  H   H690      1.0  0.8257993180107495  0.05671544094824844  0.6196385532594417  1.0000
  H   H691      1.0  0.8444899527933925  0.11179162111029213  0.7577888236626269  1.0000
  H   H692      1.0  0.8589869671531623  0.11121963402377823  0.6749081467325069  1.0000
  H   H693      1.0  0.8665096197962837  0.08860196088343802  0.7374823332971182  1.0000
  H   H694      1.0  0.8173988436557699  0.11183776769259149  0.6227681468367491  1.0000
  H   H695      1.0  0.802695599325436  0.11181969736170103  0.7055031035635776  1.0000
  H   H696      1.0  0.7952457382358737  0.08919147592216904  0.6463275923862577  1.0000
  N   N43       1.0  0.5106012917103994  0.5876718470026148  0.6991059042033113  1.0000
  C   C457      1.0  0.5263074147326134  0.567825603052453  0.7253880346613045  1.0000
  C   C458      1.0  0.4844070453339818  0.580418875462192  0.7028671864287965  1.0000
  C   C459      1.0  0.5176840188224059  0.5932925790796415  0.6275324980819031  1.0000
  C   C460      1.0  0.513973486644321  0.6092088570241461  0.7405698831708935  1.0000
  H   H697      1.0  0.524682609898075  0.5515017053141504  0.6942036381034299  1.0000
  H   H698      1.0  0.5210047535854834  0.5626606271112564  0.7786792928688278  1.0000
  H   H699      1.0  0.5461656004015124  0.572979737760193  0.7247096987067824  1.0000
  H   H700      1.0  0.48098247497851215  0.5645822492828626  0.671014485522019  1.0000
  H   H701      1.0  0.47845779476826933  0.5755462412843486  0.7558970691543477  1.0000
  H   H702      1.0  0.4721244312365736  0.5951539278378434  0.6845063012294577  1.0000
  H   H703      1.0  0.5374442752434189  0.5986276051676219  0.6227406456171373  1.0000
  H   H704      1.0  0.5063912979242317  0.6084131341586053  0.6064244020112924  1.0000
  H   H705      1.0  0.515023899053437  0.577561900717349  0.5945205967521168  1.0000
  H   H706      1.0  0.5335555798173321  0.615126403377511  0.7392464284924721  1.0000
  H   H707      1.0  0.508542061975838  0.6057610322902192  0.7947369664088779  1.0000
  H   H708      1.0  0.5026311212550237  0.624638305735786  0.7216077475284085  1.0000
  N   N44       1.0  0.35777463735027326  0.08401168479795698  0.5219268121296604  1.0000
  C   C461      1.0  0.3804655502562152  0.07386751862269435  0.5522396963522146  1.0000
  C   C462      1.0  0.34153641351469255  0.06418707080804005  0.5022709200405218  1.0000
  C   C463      1.0  0.3643232172330964  0.09885940437183885  0.46100774427805513  1.0000
  C   C464      1.0  0.3447004402718928  0.0990990932510288  0.5722954228249031  1.0000
  H   H709      1.0  0.3759858212144277  0.06229923523451418  0.5975701021567555  1.0000
  H   H710      1.0  0.3929827604396211  0.08821812826760324  0.5693424100787523  1.0000
  H   H711      1.0  0.3909573527423705  0.06250061233218811  0.5156394344757209  1.0000
  H   H712      1.0  0.3358504363281265  0.05289072233804638  0.547196898797208  1.0000
  H   H713      1.0  0.32436101923616906  0.07115393351653833  0.4785440690611239  1.0000
  H   H714      1.0  0.3508939195545346  0.052096619402797646  0.4653660369308753  1.0000
  H   H715      1.0  0.3475110526205072  0.10681367973243629  0.4372100071386476  1.0000
  H   H716      1.0  0.374067250743429  0.08801574007548629  0.42170433669185753  1.0000
  H   H717      1.0  0.3765684267374442  0.11400120154545139  0.4739686277597656  1.0000
  H   H718      1.0  0.33909400510142507  0.08836377240336223  0.6183205873324559  1.0000
  H   H719      1.0  0.327586724420252  0.10723151074796966  0.5509583289276436  1.0000
  H   H720      1.0  0.3565162971172227  0.1140072347229407  0.5892665042964107  1.0000
  N   N45       1.0  0.6189678715068694  0.49491652582737017  0.6138491166753104  1.0000
  C   C465      1.0  0.6220159319482609  0.4688361112633096  0.6028842077633105  1.0000
  C   C466      1.0  0.6052589982054111  0.4987016151217495  0.6785565399377369  1.0000
  C   C467      1.0  0.6050688747533056  0.5059732473619423  0.5571049015311796  1.0000
  C   C468      1.0  0.6435329078694564  0.5061847594873626  0.6169889132214668  1.0000
  H   H721      1.0  0.6326817111380802  0.4652081893203071  0.5552322139567142  1.0000
  H   H722      1.0  0.6038400478256173  0.45980278830636917  0.5994459758934555  1.0000
  H   H723      1.0  0.6320779415807349  0.4598584946180057  0.6454080453819058  1.0000
  H   H724      1.0  0.6030591072182354  0.5181714687003094  0.6892967094939002  1.0000
  H   H725      1.0  0.5865281361755535  0.4906022848597003  0.6777601584994624  1.0000
  H   H726      1.0  0.6150793654450752  0.4902594693285778  0.7221990912703418  1.0000
  H   H727      1.0  0.6148054096420138  0.5032689477527722  0.507451244721149  1.0000
  H   H728      1.0  0.6025900027654396  0.5256827041961325  0.5637992182674089  1.0000
  H   H729      1.0  0.5863608577181758  0.49792760623594706  0.5535920809240765  1.0000
  H   H730      1.0  0.641996226092958  0.5257258034565543  0.6270022840816482  1.0000
  H   H731      1.0  0.6544110803714529  0.5039710802025721  0.5688939874383221  1.0000
  H   H732      1.0  0.6545486870948216  0.4980247760386205  0.6586215056832558  1.0000
  N   N46       1.0  0.6461460471297287  0.646102530881757  0.7959559190014796  1.0000
  C   C469      1.0  0.6545967793327304  0.646367857555631  0.723963462476929  1.0000
  C   C470      1.0  0.6444449338740461  0.620945113643022  0.8214718810345989  1.0000
  C   C471      1.0  0.6215767640191839  0.6577640786446797  0.8015094400460747  1.0000
  C   C472      1.0  0.663958216110393  0.6593135473049221  0.8368770935356323  1.0000
  H   H733      1.0  0.6560156294826904  0.6650453610866687  0.7028236903518752  1.0000
  H   H734      1.0  0.6416066824445427  0.6365164442941488  0.6917534271425213  1.0000
  H   H735      1.0  0.6730694535846653  0.6375948312968719  0.7179318280282049  1.0000
  H   H736      1.0  0.6625821898167951  0.611502883586426  0.8172722614913779  1.0000
  H   H737      1.0  0.6385600846913899  0.6200445126346857  0.8760810064778104  1.0000
  H   H738      1.0  0.6309563485441363  0.6105158465104228  0.7920444940592014  1.0000
  H   H739      1.0  0.6147796379711454  0.658065050542883  0.8553118632066131  1.0000
  H   H740      1.0  0.6076377922115229  0.648089271262457  0.7717423752645517  1.0000
  H   H741      1.0  0.6220524297425731  0.6767444610784933  0.7821657477949995  1.0000
  H   H742      1.0  0.6652756370836411  0.6785021264609045  0.8200444683734286  1.0000
  H   H743      1.0  0.6828139005731061  0.6512933503200807  0.8326129003774414  1.0000
  H   H744      1.0  0.6585141126734234  0.6589568541876888  0.8918766787156104  1.0000
  N   N47       1.0  0.29487060073080923  0.5036600006275899  0.8569222308074249  1.0000
  C   C473      1.0  0.2821170924261376  0.48526879497304226  0.8998759916373321  1.0000
  C   C474      1.0  0.2980080388614129  0.5256654826032655  0.8965596489143067  1.0000
  C   C475      1.0  0.27998722971126194  0.5093798336418379  0.7962730082946027  1.0000
  C   C476      1.0  0.31938262080370694  0.4943709606816567  0.8352602949947184  1.0000
  H   H745      1.0  0.27848572862217363  0.4686999571367031  0.8711533885007343  1.0000
  H   H746      1.0  0.26403536143966366  0.49211684778012704  0.9192591242147058  1.0000
  H   H747      1.0  0.2931914147447621  0.48002223362852353  0.9450694993370237  1.0000
  H   H748      1.0  0.30847562918470944  0.5395704506472165  0.8666915748529983  1.0000
  H   H749      1.0  0.27978169101620093  0.5336854409523697  0.911370038525815  1.0000
  H   H750      1.0  0.30830989509640955  0.5218142253032713  0.9440468555135476  1.0000
  H   H751      1.0  0.28902915334747425  0.523292930519494  0.7629297213952118  1.0000
  H   H752      1.0  0.2614011182315144  0.5165243042936907  0.8108358843939791  1.0000
  H   H753      1.0  0.27709317475325684  0.49321422291070655  0.7651973412926396  1.0000
  H   H754      1.0  0.3294889288545568  0.5077929404967443  0.802535044664616  1.0000
  H   H755      1.0  0.3177209553855755  0.47768008902800635  0.8055886272354182  1.0000
  H   H756      1.0  0.3311528851823138  0.49009841244515534  0.8798694362048503  1.0000
  N   N48       1.0  0.3442145063226442  0.5049868369214976  0.25499440761967107  1.0000
  C   C477      1.0  0.32377555337094105  0.4875095737880469  0.2596788319912884  1.0000
  C   C478      1.0  0.3632683370629792  0.4963307320715689  0.206387892580701  1.0000
  C   C479      1.0  0.35520945202305737  0.5074542425949848  0.3227646406815057  1.0000
  C   C480      1.0  0.334639042592054  0.5285668007006321  0.23089578540335154  1.0000
  H   H757      1.0  0.31509261220553786  0.4852052686496468  0.20928098077332202  1.0000
  H   H758      1.0  0.3090091898515038  0.4933563351200495  0.2960252868580957  1.0000
  H   H759      1.0  0.3304328610069718  0.4694670683827929  0.27733245673890616  1.0000
  H   H760      1.0  0.37142482756275597  0.47899976118588333  0.2243413389960467  1.0000
  H   H761      1.0  0.35550680746331886  0.4934056043789955  0.1551457771258724  1.0000
  H   H762      1.0  0.3788415805975712  0.5092264569839693  0.20025243242672364  1.0000
  H   H763      1.0  0.37128495799602185  0.5198572566139962  0.32071827979244394  1.0000
  H   H764      1.0  0.36206129959646616  0.48983188040320846  0.34304114224561055  1.0000
  H   H765      1.0  0.34156240985040104  0.5144710603835833  0.3606206768475668  1.0000
  H   H766      1.0  0.3496122620691557  0.5421822680552827  0.22699667663198397  1.0000
  H   H767      1.0  0.320057977661236  0.5355854140990721  0.26610541004188226  1.0000
  H   H768      1.0  0.32638217918481566  0.5272660066178873  0.17962254637517328  1.0000
