data_image0
_chemical_formula_structural       H7NH2SH2CH6CHNFeS2FeS2FeCFeS4HCHCHC6H4C6H6CH3CHNCHC4HCH2CHC6H4CHC4H6CSCHCSCHC2SC3HNH9SFeH9CH2CHCHCHCH2NH7SHCH4FeCNHSCFeCH3FeH3CHCSHSC2SCHC2H2CH2CH3CHCH3CHCHFeS2H2S2H2SH2SHFeCHFe2SCSHNS2FeS2FeS2FeSFeS3FeS2FeS2FeSFeS2C3FeH3CFeSNSFeHCHC2HCHFeHC2HNH5SHCHC2HC6H4C6H4SCHC2H5CHCHC2H4C2H2C3HSHCHCHC6H4FeH3CHCH6CH3CH2CNSH2CFeHNFeCHCHC2H3NC5SHCHCSHCH3NC4H12NC4H13CSC2SH2CHFeH3CHCH5FeHSHC2H2C2FeCSHC3H3SCH3NH3CHFeC2H3NH3SC2FeS2CHS2H2SCHS2HFeS2CNS2FeS2C2FeS2CS2FeSFeS2HSHCH3C2HCHCH3NH3CHC3H2C3HC4H3C6H4CFeHFeH2CHC2HFeCHCHC6H4CHC2H6CFeH2NH6CH2SHCNC4H2CH11SCHSH3CH2CHCNH2CH5SCH6CSC2H4CH2CNCH2CSFeS2CSFeSFeHS2H3CHSH3CFeS2FeS2FeSFeHSFeHSHFeS2HNH3S2FeHCH2SH3CSC6H4C6H3SH4SH5C2HC6H5CH3C6H3NC4H9SHNC3H9NHNCHSCSH2C3H4NH3C2H2CSCHFeCH2CHCHCS2HCHC2H4FeHFeHFeCHNCFeCHCHCHSH2CH2FeH2FeHCHSHCH3SH2SCHC2FeSFeCSC2S2FeS2FeS2FeSFeS3CHNHSCH2FeSFeS2FeSFeS3FeS2FeSHFeSFeS3H2CSC7H6SNC6H4C2HCH3C3H6C4H5C2H3FeC6H4CHCH3C3FeCH2CSHC2NHCHSCH3C2H3SNC4H11CNH3SH2CH4C2H4FeH2CNH3C3S2HFeHCH2SCHSCH2NC5H10CNC4H9SFeHCSNH2CHCH5CH3C3HSHC3HC2H2C2HCH2CH4NC2NH11CHCH3C2H2CH3CHCH2CH5SHCH2SHCSC2SHFeSFeSNC2SHFeS2FeS2FeH2S2HCFeSFeS2FeSHFeHFeS4HC6H4CH3C2HSH4C6H4CHSHC2H3NHC4H5C6H2CHFeCNH2CHC2HSH5FeH2C3NCH6CH4NC3H9NC3HFeHCHC3H2FeCHSCHCSCH8SH2CH4SH4FeSCH3CHSC3HFeH5SHCHSCHSH2CFe2CSH3CSH6CH2SFeHSH2CFeHSH5FeS2FeSHFeSFeS3FeS2FeSHFeSFeS3C6H6CNH6C2HC6SH3C3NHCHC3H5C6H7C2H5C6H3C2H4CH2CHSH7CHSHCSH2C2FeCFeSCNCH3CNH4C2SHC4H5SCH3CSHCHNHSNC4H15C2HCH5CHCNC4H5CH5FeH4C2H2C3NHCH2NH2CH2CHCHCH3C3HCSCH4CH6SH3CFeS2FeS2FeSFeS3HFeSHFeS2FeS2FeSFeS3C2H4CHC3H4C7H4C6H4C6H4C6H7S2CHCHNH5SHSHCH2CH3C4HSCNHC3H2SFeC2H3FeH2NHC2SH3CH2CH4SNH2NH4SHSC2H3CH4NHNFeH5C2H2C2H9CHC2HSCH5CH2C3H3C2HCSH2CH3SFeHFeSCFeS2CFeSHSH2SCHCNHNFeS2HSHCFeS2FeSFeSFeS3HFeS2FeSCFeSFeSHCH2SC2H2CSH2CHC2H2C6H4C2H2C6H4C6H4C6H4C2SH4C2SNHFeHC6H7CSHC3SH4SNHC2H3NCH3CHCSH5C4HCH2CHFeHFeCH4SC2H2N2HSCH5FeC2FeHCHNC3FeH5NCHCS2H3FeHC2H3CH3CH9S2H4NC4H13FeHCH2SFeH2C2SH2NCH2CH6CHC2SH3SCHSHSHS2H2SCHSCFeSFeS2FeS2FeHFeS3CSNFeS2Fe2SH5CH2C2HSHSCH2CHCHC3H3CHCHFeS2H2C6H2CFeSCHC2H2C6H8CSHCH3CHCHCHFeHC2H2CH2Fe2NC2HC6H4SCHNC3H10CSCHSHC2HCH4CSC2SHCHCNC4H12NCSH4C2HCH4FeHSHFeCH2CHCH6CH2C2FeCH3SFeCH2FeSHFeS2FeS2FeSFeS3FeHSFeHFeS2HSHSHFeSFeSH2FeS2FeS2FeSFeHS2C3H2NCHCFeH4SHC2H5C6H2CHC6H4C6H4C6H6C4H3CHCSHC2SCH3CHC2SCHFeSH2C2HCH2CHCH2CHCHC2FeCH3NC2H2NH3CH2CH5NH6CHCHCHSH8CNHC2HSH4C2HSHCHNC4H12C2H4SHCSH2CHC2NC5H2CFeH3FeH2FeS2FeSH2S2H2CH2S2HSFeSCH2FeHSFeSCFeCS3FeSHFeS2FeSFeH2SC6H5NCH3NCH4C3HCH3C4HC6H4C6H5C2HC4HNC4H2CHCSH9NH2C5HCFeHSHNHC3H3SHCH2CH2SCH3SHFeS2HCHCSH3FeCSH2C2NH3C2H7CH2CH2CHSH7C2H4CH4CH6CFeHS2FeS2HSFeSFeS3HFeSCHC2HFeS2FeHCHSHSHC2H4FeS2FeS2FeSFeS3NCHCHC3HC2H2C3H4CSC7H4NHCHC4HNHSCH2CHC4HNH3FeC6H10C6H2SH2CHFeSCH2CH5NC4H16C2HCFeH4CFeH4CSH2CHSHCH3NH6CHCHC2H4Fe2SH2CSC3S2CHSHC2H3CSHNC2H4SHCHC3FeCH5CHC2HC2H3C2HCNH2CH6SCH2CHSH3C2SC2Fe2S2FeS2FeSFeS3FeHFeS2FeSFeHS2CH2CFeSHFeHSFeH2FeS2FeH3S2H2CSH2C2H2FeH2SCH2NCHCH5SC3H4C6H3C6H4C6H4C6H4SC2SCH4S2FeSHFeSH2CH3C4NH4C2FeH2CHCH4CHNC4H4CH4Fe2H2NC4H12NH3CH2CH5CHCHCH3NH3SCHC5H5NH2NCH6C2S2H3FeCSC2SFeH2FeCSFeS2NSHC2SHSH2FeCFeS2FeSCFeSFeS3FeSFeS2FeSFeS3C6H12NSC6H4C3H2C6H4C6H4C6H5FeHFeH2CHNC4H14FeH5CSH2CH4C2SH3CHSH2CSH2FeHCNCSH2SCHC2NFeCHCH7SHCHCNC4H7FeH5C3NSHS2C2FeCH4C2H4S2NCH3SH3C3HSH2C2H5CH2CFeH3CFeS2C2H2CNCH2CFeSHSCHCHFeS2FeS2CFeS3FeS2FeSCFeHFeS3H2C2H7C6H4SCH6SC6H7C2H2NFeCH4NHC6H4C4HCH2C3NC4SCH2NCHSH3SCH4C2H2CH2C3S2H3NH5SHSH3FeH2C3HCHC2H3CH3SHCHCH11CFeH3C2HCHCNH3CH5SFeNHCSHSCHC2HCH4SHCHSCHSHFeS2FeS2FeSFeS3HCNH2SC2H4FeS2FeS2FeSFeS2CH2CH2C2HCHS2H2C7H2C6H2CSC6HSH11C8H4C6H4C7H3C6H5C3H2C2HCH5SNH4CNC4H10NC4H14SH2CNC4H14CSCHCNSH6NCNFeSHCSH2CHC2H6CH2CH3FeH4CNFeH6FeCHCH4CHC2H2CH2SFeS2FeS2FeSFeS5FeCFeSCFe2SFeS2FeSFeCS2H3C2HCH2C2H4CHC2H2NH2CH5SCSCH2C6H4C6SH3C3HC2H6CFeHCH4NHCH2C2NC2H3SH3SHCH5C2H2CHCH3CHNHNHCHCHCHCHSCHCH3CHCH4CH2C2H2N2S2H3CHCH5CNCH2CH2C3HCNCH3SH3C3H6CH6NHCH2C2HSHCHCHCHCH2CNCHNCFe2HC2HFeH2FeS2FeSHSHSHFeSHFeH2FeS2FeH2CSH2FeS2FeS2FeSFeS3C2FeH2CSHC4H3CHC2H6SC6H3CH2C3H4C6H4C6H5CH9CH6NHC3HCSHSHCH5FeCH2NCHC2SH6SC2HC2NH2CSHCN2HCH2FeH2C2H2NC4HCS2HCSH2CHC2HN2CH4SHCHC2FeCSCH2CH7CHCSHCH2C2H5CH2FeCSH6C3SHCHFeS2FeHFeHCNSC2SHCSCFe2SHC2FeSHFeS2FeSFeS3FeS2FeSHFeSFeCS2CHCH2C6H4C2H3SH3SH3SHCHC6H4C2SH3C3H3NH5C2HNHC6H4CHC2H5CHNHCHSFeHFeSH2C2H7CH4C4H2NCFeSH2CH4CSH2FeCH2SHCHCHNCHC3HCH3FeCHCH2C2SHCHCHCHNC4HFeH2CH2NCH5C3SCH2CHSH3C3H2CH2FeHS2NHSHS2H7CHCH6CH2CH2CHCSHS2HSHC2SHSFeS2H3NFeSHSH3FeS2FeS2HFeS2FeS2FeHFeS3HCHCH4FeSCHCH2C8H5C2HC9H4C6H9CNC2HC6H6C2S3CH3SNH2CSCHNC4NC4H12CHCSCH3SHNH2CSH10FeHC2HNC3H5CHCH4FeH4CH2C2H2CFeCFeHSFeH5SH6S2HFeSFeS2FeH2SFeHCSFeSCFeSFe2S3HFeSFeS2FeHFeHFeHS3HSH3C7H4C6H4C2SH2C6H4C6H4C6H4C5H2SHC2HNCS2CH3FeH6NC5H11NH3CH4FeCHSH2SHNC4H14CSHCFeCH2CNSHCSH4CH4CH2CHSHFeHN2H2CFeHC2FeS2C3HCH2S3CSHCH9FeS2H2CHFeS2FeS2FeSFeS3HFeSHFeSHFeSFeS3FeS2FeS2FeSFeS3HFe2HSFeSHSC3H2CHSHSC3H2CHCHC8H5C4HCH2C7H6C3H3CHC3H2C7H4CNC3H2CH2C7H4C3H2NHSCHCH4SH3CHCHNCH3SCH2SCHCHFeH2CNSCSHC2HCSC2H2C2HNC4H12NHCH10C3HNC4H13SNC2H6NC4H14CHSC3H4FeNCH8C2HCHCH5CH3SH2CH2SH4C4H7SHNSCHC2HS2CH2CH2SFeS2FeSHFeSFeS3HC2HC2HCH8C6H4SC2H2CH2CH2C6H4FeHC2HNH3CH2C2HNCH4SH4CH2S2C3FeH2NC4H6CH3CNH2FeHNHSCHFeH3C3H13CHCH3CHC2H3CHCSNC2H5CH3C2HC2
_chemical_formula_sum              "H3072 N192 S768 C1920 Fe384"
_cell_length_a       68.4335
_cell_length_b       68.2286
_cell_length_c       68.307
_cell_angle_alpha    78.8735
_cell_angle_beta     78.8488
_cell_angle_gamma    78.9467

_space_group_name_H-M_alt    "P 1"
_space_group_IT_number       1

loop_
  _space_group_symop_operation_xyz
  'x, y, z'

loop_
  _atom_site_type_symbol
  _atom_site_label
  _atom_site_symmetry_multiplicity
  _atom_site_fract_x
  _atom_site_fract_y
  _atom_site_fract_z
  _atom_site_occupancy
  H   H1        1.0  0.03869  0.30233  0.09943  1.0000
  H   H2        1.0  0.23613  0.45404  0.06679  1.0000
  H   H3        1.0  0.08601  0.40610  0.05985  1.0000
  H   H4        1.0  0.08330  0.41610  0.15784  1.0000
  H   H5        1.0  0.08209  0.44757  0.20657  1.0000
  H   H6        1.0  0.18967  0.00626  0.28875  1.0000
  H   H7        1.0  0.11391  0.43612  0.17146  1.0000
  N   N1        1.0  0.06929  0.43602  0.06157  1.0000
  H   H8        1.0  0.15578  0.40416  0.30150  1.0000
  H   H9        1.0  0.01943  0.24188  0.00106  1.0000
  S   S1        1.0  0.02730  0.20107  0.09170  1.0000
  H   H10       1.0  0.07101  0.40708  0.18269  1.0000
  H   H11       1.0  0.07780  0.28806  0.05632  1.0000
  C   C1        1.0  0.09913  0.44498  0.16824  1.0000
  H   H12       1.0  0.99498  0.19684  0.02436  1.0000
  H   H13       1.0  0.17161  0.38334  0.26415  1.0000
  H   H14       1.0  0.01855  0.44311  0.12015  1.0000
  H   H15       1.0  0.12547  0.36613  0.29632  1.0000
  H   H16       1.0  0.11744  0.40662  0.26894  1.0000
  H   H17       1.0  0.20569  0.46991  0.99564  1.0000
  C   C2        1.0  0.99430  0.20784  0.03467  1.0000
  H   H18       1.0  0.02044  0.24480  0.03668  1.0000
  N   N2        1.0  0.06997  0.29650  0.08606  1.0000
  Fe  Fe1       1.0  0.06559  0.39381  0.13489  1.0000
  S   S2        1.0  0.03939  0.41485  0.14820  1.0000
  S   S3        1.0  0.09450  0.40402  0.11734  1.0000
  Fe  Fe2       1.0  0.04409  0.35697  0.14968  1.0000
  S   S4        1.0  0.01624  0.37533  0.16455  1.0000
  S   S5        1.0  0.04777  0.32331  0.14843  1.0000
  Fe  Fe3       1.0  0.02057  0.39797  0.13620  1.0000
  C   C3        1.0  0.13070  0.47240  0.98862  1.0000
  Fe  Fe4       1.0  0.03754  0.39061  0.17549  1.0000
  S   S6        1.0  0.02931  0.40424  0.20437  1.0000
  S   S7        1.0  0.04691  0.37875  0.12049  1.0000
  S   S8        1.0  0.06535  0.37039  0.16305  1.0000
  S   S9        1.0  0.08190  0.38380  0.27512  1.0000
  H   H19       1.0  0.04609  0.44795  0.04327  1.0000
  C   C4        1.0  0.18608  0.10482  0.04267  1.0000
  H   H20       1.0  0.05739  0.42208  0.04172  1.0000
  C   C5        1.0  0.06280  0.44758  0.17559  1.0000
  H   H21       1.0  0.00285  0.15493  0.18442  1.0000
  C   C6        1.0  0.09731  0.42975  0.11297  1.0000
  C   C7        1.0  0.11598  0.43535  0.10348  1.0000
  C   C8        1.0  0.11879  0.45570  0.10025  1.0000
  C   C9        1.0  0.10296  0.47051  0.10667  1.0000
  C   C10       1.0  0.08417  0.46495  0.11576  1.0000
  C   C11       1.0  0.08130  0.44468  0.11872  1.0000
  H   H22       1.0  0.12840  0.42391  0.09879  1.0000
  H   H23       1.0  0.13332  0.45986  0.09322  1.0000
  H   H24       1.0  0.03239  0.19717  0.01542  1.0000
  H   H25       1.0  0.06671  0.44068  0.12547  1.0000
  C   C12       1.0  0.06708  0.38936  0.25561  1.0000
  C   C13       1.0  0.04986  0.40419  0.25621  1.0000
  C   C14       1.0  0.03829  0.40831  0.24055  1.0000
  C   C15       1.0  0.04387  0.39774  0.22409  1.0000
  C   C16       1.0  0.06120  0.38303  0.22334  1.0000
  C   C17       1.0  0.07276  0.37886  0.23907  1.0000
  H   H26       1.0  0.04539  0.41244  0.26881  1.0000
  H   H27       1.0  0.02496  0.41979  0.24120  1.0000
  H   H28       1.0  0.06560  0.37472  0.21078  1.0000
  H   H29       1.0  0.08601  0.36730  0.23854  1.0000
  H   H30       1.0  0.08274  0.26773  0.07658  1.0000
  H   H31       1.0  0.18872  0.44219  0.01705  1.0000
  C   C18       1.0  0.13173  0.39610  0.26527  1.0000
  H   H32       1.0  0.17387  0.14477  0.03383  1.0000
  H   H33       1.0  0.06096  0.46282  0.17990  1.0000
  H   H34       1.0  0.05907  0.46736  0.06449  1.0000
  C   C19       1.0  0.08278  0.43271  0.20180  1.0000
  H   H35       1.0  0.07181  0.47642  0.12053  1.0000
  N   N3        1.0  0.18977  0.11765  0.02268  1.0000
  C   C20       1.0  0.18906  0.10605  0.00671  1.0000
  H   H36       1.0  0.07643  0.27459  0.11216  1.0000
  C   C21       1.0  0.03234  0.02972  0.27048  1.0000
  C   C22       1.0  0.03079  0.02824  0.25069  1.0000
  C   C23       1.0  0.04571  0.01542  0.23971  1.0000
  C   C24       1.0  0.06220  0.00414  0.24846  1.0000
  H   H37       1.0  0.18678  0.11295  0.05510  1.0000
  C   C25       1.0  0.04886  0.01852  0.27910  1.0000
  H   H38       1.0  0.01813  0.03691  0.24391  1.0000
  H   H39       1.0  0.04451  0.01431  0.22442  1.0000
  C   C26       1.0  0.16154  0.37606  0.27719  1.0000
  H   H40       1.0  0.05027  0.01974  0.29431  1.0000
  C   C27       1.0  0.04497  0.21503  0.07591  1.0000
  C   C28       1.0  0.04246  0.23605  0.07455  1.0000
  C   C29       1.0  0.05612  0.24707  0.06095  1.0000
  C   C30       1.0  0.07238  0.23710  0.04879  1.0000
  C   C31       1.0  0.07493  0.21608  0.05022  1.0000
  C   C32       1.0  0.06132  0.20505  0.06387  1.0000
  H   H41       1.0  0.03004  0.24380  0.08398  1.0000
  H   H42       1.0  0.05386  0.26333  0.05955  1.0000
  H   H43       1.0  0.08764  0.20827  0.04110  1.0000
  H   H44       1.0  0.06337  0.18876  0.06498  1.0000
  C   C33       1.0  0.07075  0.31820  0.07852  1.0000
  H   H45       1.0  0.12738  0.38279  0.26093  1.0000
  C   C34       1.0  0.00948  0.32611  0.13953  1.0000
  C   C35       1.0  0.02751  0.31353  0.14316  1.0000
  C   C36       1.0  0.02963  0.29277  0.14225  1.0000
  C   C37       1.0  0.01393  0.28474  0.13750  1.0000
  H   H46       1.0  0.06131  0.42786  0.09375  1.0000
  H   H47       1.0  0.00763  0.34211  0.14016  1.0000
  H   H48       1.0  0.04345  0.28288  0.14527  1.0000
  H   H49       1.0  0.01573  0.26878  0.13679  1.0000
  H   H50       1.0  0.08309  0.46242  0.04876  1.0000
  H   H51       1.0  0.12516  0.31079  0.99545  1.0000
  C   C38       1.0  0.01942  0.47846  0.31693  1.0000
  S   S10       1.0  0.08761  0.42798  0.29925  1.0000
  C   C39       1.0  0.17415  0.13594  0.02165  1.0000
  H   H52       1.0  0.09814  0.46049  0.17166  1.0000
  C   C40       1.0  0.20988  0.12373  0.01968  1.0000
  S   S11       1.0  0.09233  0.21032  0.99627  1.0000
  C   C41       1.0  0.08842  0.42157  0.06067  1.0000
  H   H53       1.0  0.09952  0.42626  0.04719  1.0000
  C   C42       1.0  0.07328  0.45629  0.06271  1.0000
  C   C43       1.0  0.06379  0.00590  0.26810  1.0000
  S   S12       1.0  0.99407  0.41285  0.12092  1.0000
  C   C44       1.0  0.05501  0.42909  0.07965  1.0000
  C   C45       1.0  0.12295  0.46046  0.00640  1.0000
  C   C46       1.0  0.18213  0.99268  0.29400  1.0000
  H   H54       1.0  0.99586  0.19906  0.05000  1.0000
  N   N4        1.0  0.01018  0.22069  0.02731  1.0000
  H   H55       1.0  0.15882  0.13207  0.02301  1.0000
  H   H56       1.0  0.09561  0.42043  0.07420  1.0000
  H   H57       1.0  0.16647  0.45284  0.00623  1.0000
  H   H58       1.0  0.19757  0.09080  0.04379  1.0000
  H   H59       1.0  0.22775  0.04297  0.06327  1.0000
  H   H60       1.0  0.21348  0.13286  0.00448  1.0000
  H   H61       1.0  0.13381  0.41897  0.29264  1.0000
  H   H62       1.0  0.09942  0.44652  0.15168  1.0000
  H   H63       1.0  0.11579  0.38993  0.30453  1.0000
  S   S13       1.0  0.04152  0.41661  0.31389  1.0000
  Fe  Fe5       1.0  0.09902  0.23922  0.00252  1.0000
  H   H64       1.0  0.04297  0.29672  0.07421  1.0000
  H   H65       1.0  0.06524  0.32313  0.06375  1.0000
  H   H66       1.0  0.00921  0.47882  0.12554  1.0000
  H   H67       1.0  0.16257  0.99651  0.26321  1.0000
  H   H68       1.0  0.06123  0.32784  0.08938  1.0000
  H   H69       1.0  0.21084  0.13303  0.03105  1.0000
  H   H70       1.0  0.04042  0.43968  0.08097  1.0000
  H   H71       1.0  0.07669  0.99780  0.27479  1.0000
  H   H72       1.0  0.05158  0.41389  0.07922  1.0000
  C   C47       1.0  0.07733  0.29072  0.10568  1.0000
  H   H73       1.0  0.15828  0.36218  0.27297  1.0000
  H   H74       1.0  0.09799  0.40494  0.17738  1.0000
  C   C48       1.0  0.04890  0.29291  0.08878  1.0000
  H   H75       1.0  0.13760  0.37494  0.31353  1.0000
  C   C49       1.0  0.08289  0.28423  0.07135  1.0000
  H   H76       1.0  0.00991  0.22694  0.05691  1.0000
  C   C50       1.0  0.13407  0.48100  0.02617  1.0000
  H   H77       1.0  0.18696  0.00326  0.25296  1.0000
  C   C51       1.0  0.00290  0.45000  0.12216  1.0000
  H   H78       1.0  0.04759  0.27678  0.09499  1.0000
  H   H79       1.0  0.09888  0.28661  0.06882  1.0000
  N   N5        1.0  0.08212  0.43506  0.17995  1.0000
  H   H80       1.0  0.04968  0.44031  0.18399  1.0000
  H   H81       1.0  0.09329  0.29289  0.10417  1.0000
  H   H82       1.0  0.17698  0.42686  0.00548  1.0000
  H   H83       1.0  0.06826  0.30008  0.11697  1.0000
  H   H84       1.0  0.09678  0.42274  0.20585  1.0000
  H   H85       1.0  0.08643  0.32149  0.07630  1.0000
  H   H86       1.0  0.06184  0.44986  0.15922  1.0000
  S   S14       1.0  0.08950  0.25106  0.03212  1.0000
  H   H87       1.0  0.17698  0.14629  0.00704  1.0000
  C   C52       1.0  0.08369  0.41492  0.17424  1.0000
  H   H88       1.0  0.19177  0.11522  0.99142  1.0000
  H   H89       1.0  0.99652  0.44378  0.16733  1.0000
  H   H90       1.0  0.17012  0.37117  0.29007  1.0000
  H   H91       1.0  0.22166  0.43420  0.99433  1.0000
  Fe  Fe6       1.0  0.07226  0.40126  0.30140  1.0000
  C   C53       1.0  0.03028  0.20788  0.02634  1.0000
  N   N6        1.0  0.14274  0.39002  0.28266  1.0000
  H   H92       1.0  0.03250  0.19882  0.04140  1.0000
  S   S15       1.0  0.11200  0.43946  0.00556  1.0000
  C   C54       1.0  0.18091  0.44221  0.00419  1.0000
  Fe  Fe7       1.0  0.05764  0.44222  0.31424  1.0000
  C   C55       1.0  0.12444  0.46494  0.02516  1.0000
  H   H93       1.0  0.17098  0.10003  0.04551  1.0000
  H   H94       1.0  0.22195  0.11030  0.02089  1.0000
  H   H95       1.0  0.11873  0.45564  0.03898  1.0000
  Fe  Fe8       1.0  0.99825  0.21957  0.10389  1.0000
  H   H96       1.0  0.06981  0.42582  0.21107  1.0000
  H   H97       1.0  0.08105  0.45586  0.07570  1.0000
  H   H98       1.0  0.20078  0.09222  0.00699  1.0000
  C   C56       1.0  0.12993  0.37969  0.30000  1.0000
  H   H99       1.0  0.00920  0.22155  0.99586  1.0000
  C   C57       1.0  0.99365  0.31802  0.13522  1.0000
  S   S16       1.0  0.01387  0.04496  0.28523  1.0000
  H   H100      1.0  0.07098  0.44223  0.02924  1.0000
  S   S17       1.0  0.04337  0.47365  0.30255  1.0000
  C   C58       1.0  0.14769  0.40818  0.28824  1.0000
  C   C59       1.0  0.06050  0.43712  0.04317  1.0000
  S   S18       1.0  0.23569  0.06728  0.02393  1.0000
  C   C60       1.0  0.99762  0.47026  0.12493  1.0000
  H   H101      1.0  0.13530  0.48421  0.04071  1.0000
  C   C61       1.0  0.00769  0.23199  0.00696  1.0000
  C   C62       1.0  0.99581  0.29737  0.13409  1.0000
  H   H102      1.0  0.14091  0.40385  0.25180  1.0000
  H   H103      1.0  0.04263  0.21718  0.02136  1.0000
  C   C63       1.0  0.14053  0.48837  0.98962  1.0000
  H   H104      1.0  0.15733  0.41644  0.27556  1.0000
  H   H105      1.0  0.17414  0.10114  0.00852  1.0000
  C   C64       1.0  0.24175  0.03598  0.05522  1.0000
  H   H106      1.0  0.16560  0.99811  0.29768  1.0000
  H   H107      1.0  0.00236  0.07156  0.31207  1.0000
  H   H108      1.0  0.99718  0.45687  0.18758  1.0000
  C   C65       1.0  0.00843  0.23511  0.04138  1.0000
  H   H109      1.0  0.99350  0.24516  0.04238  1.0000
  C   C66       1.0  0.17892  0.99028  0.25996  1.0000
  H   H110      1.0  0.24090  0.47035  0.08231  1.0000
  H   H111      1.0  0.99264  0.24172  0.00708  1.0000
  H   H112      1.0  0.20619  0.06027  0.43736  1.0000
  C   C67       1.0  0.99386  0.34418  0.62583  1.0000
  H   H113      1.0  0.09289  0.09134  0.64780  1.0000
  C   C68       1.0  0.18225  0.10836  0.42511  1.0000
  H   H114      1.0  0.21741  0.38530  0.61765  1.0000
  Fe  Fe9       1.0  0.19787  0.34551  0.53200  1.0000
  S   S19       1.0  0.21204  0.32496  0.55698  1.0000
  S   S20       1.0  0.16411  0.35281  0.53316  1.0000
  H   H115      1.0  0.16473  0.41193  0.34539  1.0000
  H   H116      1.0  0.12877  0.01042  0.33858  1.0000
  S   S21       1.0  0.21303  0.37187  0.53236  1.0000
  S   S22       1.0  0.22142  0.33376  0.50755  1.0000
  H   H117      1.0  0.02907  0.28215  0.42372  1.0000
  H   H118      1.0  0.13467  0.40732  0.40355  1.0000
  S   S23       1.0  0.18619  0.48880  0.39632  1.0000
  H   H119      1.0  0.19090  0.08219  0.39846  1.0000
  H   H120      1.0  0.01213  0.25740  0.53781  1.0000
  S   S24       1.0  0.19599  0.44171  0.43418  1.0000
  H   H121      1.0  0.03477  0.15696  0.49107  1.0000
  Fe  Fe10      1.0  0.20463  0.02402  0.40961  1.0000
  C   C69       1.0  0.23743  0.41828  0.56767  1.0000
  H   H122      1.0  0.00712  0.09184  0.64376  1.0000
  Fe  Fe11      1.0  0.16035  0.02727  0.42706  1.0000
  Fe  Fe12      1.0  0.09346  0.41486  0.33072  1.0000
  S   S25       1.0  0.13433  0.05172  0.43555  1.0000
  C   C70       1.0  0.01939  0.15437  0.49886  1.0000
  S   S26       1.0  0.07983  0.38694  0.33220  1.0000
  H   H123      1.0  0.21988  0.42129  0.61723  1.0000
  N   N7        1.0  0.00984  0.14380  0.48717  1.0000
  S   S27       1.0  0.18793  0.02404  0.44117  1.0000
  S   S28       1.0  0.17693  0.02920  0.39495  1.0000
  Fe  Fe13      1.0  0.07820  0.28971  0.55343  1.0000
  S   S29       1.0  0.05987  0.27779  0.58278  1.0000
  S   S30       1.0  0.11224  0.28173  0.55026  1.0000
  Fe  Fe14      1.0  0.04095  0.30635  0.53402  1.0000
  S   S31       1.0  0.01975  0.29583  0.56175  1.0000
  S   S32       1.0  0.02735  0.32409  0.50723  1.0000
  Fe  Fe15      1.0  0.03908  0.30744  0.57839  1.0000
  S   S33       1.0  0.02740  0.32389  0.60507  1.0000
  Fe  Fe16      1.0  0.04222  0.26713  0.56358  1.0000
  S   S34       1.0  0.03160  0.23677  0.57354  1.0000
  S   S35       1.0  0.05879  0.32034  0.55046  1.0000
  S   S36       1.0  0.06200  0.27669  0.53444  1.0000
  Fe  Fe17      1.0  0.06817  0.09837  0.58197  1.0000
  S   S37       1.0  0.04405  0.12257  0.57044  1.0000
  S   S38       1.0  0.07275  0.08802  0.61457  1.0000
  Fe  Fe18      1.0  0.08434  0.08572  0.54038  1.0000
  S   S39       1.0  0.06140  0.10890  0.52527  1.0000
  S   S40       1.0  0.10867  0.06123  0.52830  1.0000
  Fe  Fe19      1.0  0.06788  0.13015  0.54387  1.0000
  S   S41       1.0  0.07105  0.16218  0.52831  1.0000
  Fe  Fe20      1.0  0.03935  0.09975  0.55291  1.0000
  S   S42       1.0  0.09274  0.10771  0.55682  1.0000
  S   S43       1.0  0.06145  0.07483  0.56657  1.0000
  C   C71       1.0  0.13850  0.99617  0.34213  1.0000
  C   C72       1.0  0.13450  0.46622  0.34261  1.0000
  C   C73       1.0  0.17091  0.41746  0.40167  1.0000
  Fe  Fe21      1.0  0.22971  0.46468  0.61405  1.0000
  H   H124      1.0  0.00457  0.40223  0.56287  1.0000
  H   H125      1.0  0.01949  0.07955  0.59173  1.0000
  H   H126      1.0  0.99836  0.11369  0.59117  1.0000
  C   C74       1.0  0.17978  0.07852  0.41232  1.0000
  Fe  Fe22      1.0  0.05042  0.40481  0.34452  1.0000
  S   S44       1.0  0.02853  0.39517  0.37273  1.0000
  N   N8        1.0  0.12068  0.99122  0.54869  1.0000
  S   S45       1.0  0.06474  0.43162  0.34567  1.0000
  Fe  Fe23      1.0  0.17958  0.99520  0.40001  1.0000
  H   H127      1.0  0.99811  0.17116  0.46874  1.0000
  C   C75       1.0  0.01477  0.07358  0.50214  1.0000
  H   H128      1.0  0.10998  0.45324  0.33714  1.0000
  C   C76       1.0  0.01577  0.46876  0.33694  1.0000
  C   C77       1.0  0.99483  0.08654  0.63868  1.0000
  H   H129      1.0  0.02768  0.45845  0.34355  1.0000
  C   C78       1.0  0.21272  0.42289  0.44681  1.0000
  H   H130      1.0  0.13714  0.42923  0.38449  1.0000
  Fe  Fe24      1.0  0.20779  0.46071  0.40507  1.0000
  H   H131      1.0  0.15316  0.08672  0.44513  1.0000
  C   C79       1.0  0.01376  0.36713  0.35773  1.0000
  C   C80       1.0  0.01262  0.37740  0.37384  1.0000
  H   H132      1.0  0.03348  0.28159  0.50472  1.0000
  N   N9        1.0  0.18384  0.08610  0.42977  1.0000
  H   H133      1.0  0.18349  0.42062  0.40817  1.0000
  H   H134      1.0  0.02463  0.37004  0.34414  1.0000
  H   H135      1.0  0.05014  0.31217  0.43790  1.0000
  H   H136      1.0  0.11994  0.43147  0.40756  1.0000
  H   H137      1.0  0.13687  0.45920  0.41143  1.0000
  S   S46       1.0  0.22911  0.04343  0.39914  1.0000
  H   H138      1.0  0.16326  0.45444  0.41290  1.0000
  C   C81       1.0  0.20485  0.41062  0.46437  1.0000
  H   H139      1.0  0.99758  0.38692  0.61862  1.0000
  C   C82       1.0  0.01462  0.30997  0.49652  1.0000
  C   C83       1.0  0.02774  0.12426  0.64498  1.0000
  H   H140      1.0  0.18879  0.41283  0.46985  1.0000
  C   C84       1.0  0.04247  0.21627  0.56065  1.0000
  C   C85       1.0  0.05192  0.21933  0.54049  1.0000
  C   C86       1.0  0.06045  0.20262  0.53065  1.0000
  C   C87       1.0  0.05959  0.18279  0.54091  1.0000
  C   C88       1.0  0.05001  0.17979  0.56103  1.0000
  C   C89       1.0  0.04136  0.19649  0.57080  1.0000
  H   H141      1.0  0.05249  0.23454  0.53241  1.0000
  H   H142      1.0  0.06776  0.20504  0.51505  1.0000
  H   H143      1.0  0.04938  0.16463  0.56914  1.0000
  H   H144      1.0  0.03401  0.19403  0.58640  1.0000
  C   C90       1.0  0.12695  0.05403  0.46139  1.0000
  C   C91       1.0  0.11113  0.06931  0.46715  1.0000
  C   C92       1.0  0.10534  0.07178  0.48759  1.0000
  C   C93       1.0  0.11545  0.05902  0.50238  1.0000
  C   C94       1.0  0.13139  0.04388  0.49655  1.0000
  C   C95       1.0  0.13705  0.04131  0.47618  1.0000
  H   H145      1.0  0.10324  0.07920  0.45577  1.0000
  H   H146      1.0  0.09303  0.08348  0.49191  1.0000
  H   H147      1.0  0.13949  0.03412  0.50779  1.0000
  H   H148      1.0  0.14924  0.02948  0.47195  1.0000
  S   S47       1.0  0.16500  0.48308  0.35031  1.0000
  C   C96       1.0  0.13504  0.42386  0.40110  1.0000
  H   H149      1.0  0.01596  0.26204  0.48843  1.0000
  C   C97       1.0  0.16889  0.08051  0.44778  1.0000
  C   C98       1.0  0.02076  0.28911  0.49741  1.0000
  H   H150      1.0  0.99359  0.33587  0.48604  1.0000
  H   H151      1.0  0.09692  0.05680  0.63819  1.0000
  H   H152      1.0  0.00982  0.42868  0.60405  1.0000
  H   H153      1.0  0.01831  0.13877  0.64174  1.0000
  H   H154      1.0  0.02708  0.06619  0.49222  1.0000
  C   C99       1.0  0.01836  0.07868  0.51996  1.0000
  H   H155      1.0  0.03763  0.12603  0.47536  1.0000
  C   C100      1.0  0.10828  0.05134  0.64851  1.0000
  H   H156      1.0  0.22763  0.48753  0.54444  1.0000
  C   C101      1.0  0.05444  0.09795  0.63364  1.0000
  C   C102      1.0  0.04228  0.11670  0.62954  1.0000
  H   H157      1.0  0.02914  0.30038  0.45150  1.0000
  H   H158      1.0  0.23329  0.01429  0.43538  1.0000
  H   H159      1.0  0.04422  0.12552  0.61454  1.0000
  H   H160      1.0  0.17123  0.40080  0.40482  1.0000
  C   C103      1.0  0.15441  0.46265  0.34651  1.0000
  C   C104      1.0  0.13619  0.43063  0.34104  1.0000
  H   H161      1.0  0.99325  0.26669  0.57094  1.0000
  H   H162      1.0  0.02070  0.04367  0.33207  1.0000
  C   C105      1.0  0.15622  0.42708  0.34464  1.0000
  C   C106      1.0  0.16530  0.44302  0.34738  1.0000
  C   C107      1.0  0.00253  0.08864  0.53254  1.0000
  H   H163      1.0  0.02512  0.11479  0.49914  1.0000
  S   S48       1.0  0.16037  0.99376  0.43082  1.0000
  H   H164      1.0  0.18078  0.44020  0.34993  1.0000
  C   C108      1.0  0.11135  0.99487  0.53025  1.0000
  H   H165      1.0  0.16972  0.06381  0.45178  1.0000
  C   C109      1.0  0.15072  0.99391  0.35705  1.0000
  H   H166      1.0  0.01154  0.03642  0.35850  1.0000
  C   C110      1.0  0.15004  0.33282  0.53784  1.0000
  C   C111      1.0  0.15935  0.31258  0.54047  1.0000
  C   C112      1.0  0.14761  0.29701  0.54432  1.0000
  C   C113      1.0  0.12653  0.30160  0.54567  1.0000
  C   C114      1.0  0.11727  0.32184  0.54324  1.0000
  C   C115      1.0  0.12899  0.33739  0.53933  1.0000
  H   H167      1.0  0.17559  0.30892  0.53935  1.0000
  H   H168      1.0  0.15490  0.28139  0.54617  1.0000
  H   H169      1.0  0.10109  0.32556  0.54422  1.0000
  H   H170      1.0  0.12171  0.35302  0.53732  1.0000
  Fe  Fe25      1.0  0.23739  0.31548  0.53261  1.0000
  H   H171      1.0  0.18082  0.06183  0.41534  1.0000
  H   H172      1.0  0.16690  0.11561  0.42199  1.0000
  H   H173      1.0  0.00492  0.37795  0.59482  1.0000
  C   C116      1.0  0.23351  0.41992  0.43980  1.0000
  H   H174      1.0  0.10512  0.01955  0.55751  1.0000
  C   C117      1.0  0.01080  0.27807  0.48826  1.0000
  H   H175      1.0  0.02697  0.32740  0.44715  1.0000
  H   H176      1.0  0.01973  0.06057  0.34955  1.0000
  H   H177      1.0  0.18523  0.11461  0.43795  1.0000
  H   H178      1.0  0.16431  0.08481  0.40894  1.0000
  H   H179      1.0  0.17129  0.08609  0.46126  1.0000
  H   H180      1.0  0.01535  0.11521  0.47648  1.0000
  C   C118      1.0  0.21767  0.39556  0.47501  1.0000
  H   H181      1.0  0.12976  0.02054  0.54313  1.0000
  H   H182      1.0  0.99700  0.33126  0.43103  1.0000
  H   H183      1.0  0.99765  0.31782  0.41063  1.0000
  C   C119      1.0  0.22858  0.38608  0.58579  1.0000
  H   H184      1.0  0.02988  0.08414  0.61224  1.0000
  H   H185      1.0  0.15955  0.42489  0.43966  1.0000
  C   C120      1.0  0.00435  0.41458  0.57152  1.0000
  N   N10       1.0  0.15125  0.42838  0.41022  1.0000
  S   S49       1.0  0.20895  0.99038  0.41182  1.0000
  H   H186      1.0  0.15520  0.45578  0.38921  1.0000
  H   H187      1.0  0.13288  0.42996  0.43942  1.0000
  C   C121      1.0  0.22454  0.41479  0.60351  1.0000
  Fe  Fe26      1.0  0.23802  0.35808  0.51030  1.0000
  H   H188      1.0  0.04950  0.33011  0.40281  1.0000
  N   N11       1.0  0.99744  0.08931  0.61637  1.0000
  Fe  Fe27      1.0  0.18965  0.99096  0.44212  1.0000
  C   C122      1.0  0.01726  0.07820  0.60848  1.0000
  H   H189      1.0  0.14698  0.40530  0.43631  1.0000
  C   C123      1.0  0.20442  0.07706  0.43378  1.0000
  H   H190      1.0  0.05089  0.29276  0.41001  1.0000
  C   C124      1.0  0.99433  0.28774  0.47875  1.0000
  C   C125      1.0  0.12921  0.07586  0.63053  1.0000
  H   H191      1.0  0.20812  0.08249  0.44676  1.0000
  H   H192      1.0  0.21607  0.08067  0.42035  1.0000
  H   H193      1.0  0.03342  0.07523  0.52374  1.0000
  N   N12       1.0  0.02603  0.31446  0.42103  1.0000
  C   C126      1.0  0.03411  0.29541  0.41293  1.0000
  C   C127      1.0  0.00376  0.31711  0.42477  1.0000
  C   C128      1.0  0.03276  0.33168  0.40622  1.0000
  C   C129      1.0  0.03342  0.31357  0.44020  1.0000
  C   C130      1.0  0.99421  0.42652  0.60364  1.0000
  S   S50       1.0  0.00693  0.09737  0.55357  1.0000
  H   H194      1.0  0.00274  0.34203  0.63780  1.0000
  C   C131      1.0  0.02254  0.12412  0.48436  1.0000
  H   H195      1.0  0.12602  0.48140  0.34178  1.0000
  C   C132      1.0  0.99838  0.37358  0.39135  1.0000
  S   S51       1.0  0.12511  0.41007  0.33844  1.0000
  H   H196      1.0  0.99506  0.07035  0.64558  1.0000
  C   C133      1.0  0.22302  0.39448  0.60367  1.0000
  H   H197      1.0  0.02029  0.41641  0.57092  1.0000
  H   H198      1.0  0.99865  0.24956  0.52129  1.0000
  H   H199      1.0  0.02877  0.29568  0.39845  1.0000
  N   N13       1.0  0.16293  0.35933  0.59328  1.0000
  C   C134      1.0  0.17312  0.37185  0.57558  1.0000
  C   C135      1.0  0.17789  0.34850  0.60624  1.0000
  C   C136      1.0  0.15377  0.34449  0.58632  1.0000
  C   C137      1.0  0.14705  0.37251  0.60485  1.0000
  H   H200      1.0  0.16245  0.38015  0.56523  1.0000
  H   H201      1.0  0.18502  0.36224  0.56660  1.0000
  H   H202      1.0  0.18060  0.38303  0.58012  1.0000
  H   H203      1.0  0.17084  0.33886  0.61979  1.0000
  H   H204      1.0  0.19017  0.33854  0.59785  1.0000
  H   H205      1.0  0.18533  0.35926  0.61149  1.0000
  H   H206      1.0  0.14590  0.33471  0.59919  1.0000
  H   H207      1.0  0.16538  0.33439  0.57739  1.0000
  H   H208      1.0  0.14261  0.35214  0.57624  1.0000
  H   H209      1.0  0.13559  0.38090  0.59539  1.0000
  H   H210      1.0  0.15352  0.38393  0.61020  1.0000
  H   H211      1.0  0.13903  0.36357  0.61834  1.0000
  N   N14       1.0  0.10739  0.22154  0.55670  1.0000
  C   C138      1.0  0.12772  0.22256  0.56044  1.0000
  C   C139      1.0  0.09199  0.23165  0.57148  1.0000
  C   C140      1.0  0.10479  0.20015  0.55892  1.0000
  C   C141      1.0  0.10504  0.23189  0.53598  1.0000
  H   H212      1.0  0.13976  0.21502  0.54962  1.0000
  H   H213      1.0  0.12995  0.21520  0.57604  1.0000
  H   H214      1.0  0.13011  0.23858  0.55870  1.0000
  H   H215      1.0  0.09399  0.24759  0.57068  1.0000
  H   H216      1.0  0.07644  0.23192  0.56868  1.0000
  H   H217      1.0  0.09284  0.22392  0.58727  1.0000
  H   H218      1.0  0.11574  0.19214  0.54761  1.0000
  H   H219      1.0  0.08939  0.19893  0.55676  1.0000
  H   H220      1.0  0.10687  0.19178  0.57425  1.0000
  H   H221      1.0  0.08989  0.23150  0.53262  1.0000
  H   H222      1.0  0.11648  0.22474  0.52442  1.0000
  H   H223      1.0  0.10680  0.24810  0.53385  1.0000
  H   H224      1.0  0.19332  0.11305  0.41155  1.0000
  C   C142      1.0  0.14744  0.42183  0.43237  1.0000
  S   S52       1.0  0.22701  0.36047  0.58648  1.0000
  C   C143      1.0  0.99546  0.07873  0.49675  1.0000
  C   C144      1.0  0.12539  0.45029  0.33994  1.0000
  S   S53       1.0  0.21238  0.45036  0.37502  1.0000
  H   H225      1.0  0.21141  0.38618  0.48850  1.0000
  H   H226      1.0  0.01026  0.16934  0.50119  1.0000
  C   C145      1.0  0.00215  0.33612  0.60807  1.0000
  H   H227      1.0  0.02720  0.33299  0.39166  1.0000
  Fe  Fe28      1.0  0.20078  0.47742  0.65094  1.0000
  H   H228      1.0  0.01881  0.06180  0.61485  1.0000
  H   H229      1.0  0.99657  0.42883  0.56347  1.0000
  H   H230      1.0  0.17436  0.42205  0.38502  1.0000
  C   C146      1.0  0.23848  0.39275  0.46824  1.0000
  H   H231      1.0  0.12703  0.00869  0.56914  1.0000
  C   C147      1.0  0.15162  0.45040  0.40575  1.0000
  H   H232      1.0  0.02706  0.34628  0.41196  1.0000
  H   H233      1.0  0.99745  0.08864  0.32984  1.0000
  H   H234      1.0  0.13685  0.08860  0.63136  1.0000
  H   H235      1.0  0.02265  0.15906  0.45831  1.0000
  H   H236      1.0  0.99819  0.30427  0.43570  1.0000
  Fe  Fe29      1.0  0.22835  0.35083  0.55629  1.0000
  H   H237      1.0  0.15035  0.00635  0.36491  1.0000
  S   S54       1.0  0.23548  0.45173  0.58496  1.0000
  H   H238      1.0  0.11849  0.08164  0.61952  1.0000
  C   C148      1.0  0.99643  0.11108  0.60799  1.0000
  C   C149      1.0  0.00085  0.35297  0.35924  1.0000
  H   H239      1.0  0.02085  0.39187  0.60280  1.0000
  H   H240      1.0  0.00191  0.23431  0.54532  1.0000
  C   C150      1.0  0.00486  0.39086  0.60264  1.0000
  C   C151      1.0  0.23203  0.42666  0.58554  1.0000
  Fe  Fe30      1.0  0.19243  0.47948  0.36567  1.0000
  C   C152      1.0  0.00775  0.15623  0.46720  1.0000
  S   S55       1.0  0.22296  0.44920  0.64607  1.0000
  H   H241      1.0  0.02106  0.14537  0.51408  1.0000
  C   C153      1.0  0.01164  0.04941  0.34585  1.0000
  C   C154      1.0  0.12065  0.01080  0.55495  1.0000
  C   C155      1.0  0.23560  0.39809  0.56775  1.0000
  H   H242      1.0  0.00043  0.14863  0.45816  1.0000
  H   H243      1.0  0.99732  0.38163  0.40381  1.0000
  H   H244      1.0  0.00847  0.11753  0.61219  1.0000
  S   S56       1.0  0.23475  0.47659  0.39774  1.0000
  C   C156      1.0  0.99678  0.47278  0.34869  1.0000
  H   H245      1.0  0.09585  0.00371  0.53254  1.0000
  H   H246      1.0  0.00182  0.34502  0.34672  1.0000
  H   H247      1.0  0.14085  0.06393  0.62418  1.0000
  N   N15       1.0  0.11854  0.06785  0.65059  1.0000
  H   H248      1.0  0.11919  0.03877  0.64243  1.0000
  H   H249      1.0  0.23995  0.39175  0.55390  1.0000
  H   H250      1.0  0.99690  0.33288  0.57887  1.0000
  C   C157      1.0  0.99512  0.48403  0.65125  1.0000
  H   H251      1.0  0.12029  0.00354  0.51724  1.0000
  Fe  Fe31      1.0  0.23770  0.46892  0.36649  1.0000
  C   C158      1.0  0.99839  0.31972  0.48668  1.0000
  C   C159      1.0  0.99896  0.25019  0.53736  1.0000
  H   H252      1.0  0.23967  0.42931  0.42623  1.0000
  H   H253      1.0  0.99431  0.46571  0.36437  1.0000
  H   H254      1.0  0.99923  0.41176  0.34392  1.0000
  N   N16       1.0  0.99413  0.40991  0.59260  1.0000
  H   H255      1.0  0.99227  0.43818  0.33512  1.0000
  H   H256      1.0  0.21820  0.34782  0.94976  1.0000
  H   H257      1.0  0.20766  0.13652  0.96072  1.0000
  S   S57       1.0  0.23588  0.15790  0.97162  1.0000
  C   C160      1.0  0.21262  0.43385  0.98255  1.0000
  C   C161      1.0  0.22988  0.41073  0.93309  1.0000
  Fe  Fe32      1.0  0.02473  0.08253  0.74939  1.0000
  S   S58       1.0  0.01665  0.11610  0.73932  1.0000
  S   S59       1.0  0.05348  0.06639  0.76045  1.0000
  C   C162      1.0  0.19911  0.18265  0.97544  1.0000
  H   H258      1.0  0.20423  0.34149  0.97460  1.0000
  S   S60       1.0  0.99672  0.18994  0.82819  1.0000
  S   S61       1.0  0.01358  0.07296  0.72446  1.0000
  H   H259      1.0  0.99981  0.44142  0.88119  1.0000
  H   H260      1.0  0.09435  0.07857  0.67317  1.0000
  S   S62       1.0  0.08362  0.25847  0.97780  1.0000
  C   C163      1.0  0.08218  0.27646  0.91483  1.0000
  H   H261      1.0  0.05765  0.01008  0.75851  1.0000
  S   S63       1.0  0.13139  0.35145  0.98087  1.0000
  S   S64       1.0  0.03011  0.23928  0.87603  1.0000
  H   H262      1.0  0.22792  0.05764  0.85530  1.0000
  Fe  Fe33      1.0  0.11389  0.25397  0.95845  1.0000
  S   S65       1.0  0.10842  0.22635  0.94823  1.0000
  S   S66       1.0  0.12262  0.28124  0.93634  1.0000
  C   C164      1.0  0.99710  0.45691  0.88514  1.0000
  N   N17       1.0  0.19183  0.33466  0.95057  1.0000
  S   S67       1.0  0.23355  0.00991  0.90331  1.0000
  S   S68       1.0  0.17055  0.47332  0.67024  1.0000
  Fe  Fe34      1.0  0.07928  0.22950  0.96989  1.0000
  S   S69       1.0  0.04786  0.22745  0.96552  1.0000
  S   S70       1.0  0.13007  0.23674  0.98378  1.0000
  C   C165      1.0  0.18249  0.44774  0.96800  1.0000
  C   C166      1.0  0.23769  0.03792  0.92559  1.0000
  Fe  Fe35      1.0  0.13094  0.38379  0.96527  1.0000
  S   S71       1.0  0.14153  0.39534  0.93264  1.0000
  S   S72       1.0  0.00601  0.12253  0.68317  1.0000
  C   C167      1.0  0.10350  0.08427  0.65856  1.0000
  S   S73       1.0  0.13287  0.44092  0.94562  1.0000
  S   S74       1.0  0.14974  0.40110  0.97696  1.0000
  Fe  Fe36      1.0  0.11527  0.42063  0.93630  1.0000
  S   S75       1.0  0.09580  0.43049  0.91184  1.0000
  Fe  Fe37      1.0  0.15823  0.41455  0.94456  1.0000
  S   S76       1.0  0.10317  0.40726  0.96805  1.0000
  S   S77       1.0  0.20985  0.99550  0.81709  1.0000
  H   H263      1.0  0.09543  0.28321  0.90596  1.0000
  S   S78       1.0  0.01240  0.47458  0.68573  1.0000
  H   H264      1.0  0.20911  0.31333  0.93188  1.0000
  C   C168      1.0  0.07265  0.30436  0.93356  1.0000
  H   H265      1.0  0.01973  0.99257  0.73648  1.0000
  H   H266      1.0  0.22036  0.08388  0.84590  1.0000
  H   H267      1.0  0.08757  0.26590  0.92798  1.0000
  C   C169      1.0  0.08729  0.45669  0.90637  1.0000
  C   C170      1.0  0.08026  0.46477  0.88805  1.0000
  H   H268      1.0  0.19315  0.38776  0.96477  1.0000
  C   C171      1.0  0.19769  0.46888  0.98325  1.0000
  H   H269      1.0  0.21964  0.32187  0.96176  1.0000
  C   C172      1.0  0.08700  0.46949  0.92018  1.0000
  H   H270      1.0  0.08076  0.45495  0.87721  1.0000
  H   H271      1.0  0.24025  0.06605  0.88334  1.0000
  H   H272      1.0  0.09225  0.46336  0.93440  1.0000
  N   N18       1.0  0.06546  0.29218  0.92151  1.0000
  H   H273      1.0  0.07813  0.29482  0.94719  1.0000
  H   H274      1.0  0.04085  0.45434  0.90299  1.0000
  H   H275      1.0  0.01712  0.16523  0.79871  1.0000
  C   C173      1.0  0.12521  0.31361  0.97930  1.0000
  H   H276      1.0  0.07289  0.99921  0.71586  1.0000
  C   C174      1.0  0.19948  0.15062  0.96508  1.0000
  C   C175      1.0  0.13317  0.05996  0.66470  1.0000
  C   C176      1.0  0.12979  0.48360  0.67049  1.0000
  H   H277      1.0  0.07074  0.31301  0.89386  1.0000
  H   H278      1.0  0.06053  0.31650  0.93880  1.0000
  C   C177      1.0  0.16774  0.17383  0.97076  1.0000
  C   C178      1.0  0.12406  0.30117  0.94867  1.0000
  C   C179      1.0  0.12343  0.29787  0.96959  1.0000
  H   H279      1.0  0.03312  0.44815  0.86195  1.0000
  C   C180      1.0  0.12722  0.33287  0.96824  1.0000
  C   C181      1.0  0.12734  0.33639  0.94734  1.0000
  C   C182      1.0  0.12595  0.32048  0.93754  1.0000
  C   C183      1.0  0.02944  0.46352  0.86626  1.0000
  H   H280      1.0  0.02216  0.47384  0.85406  1.0000
  H   H281      1.0  0.12879  0.35125  0.93871  1.0000
  H   H282      1.0  0.12637  0.32312  0.92134  1.0000
  C   C184      1.0  0.03496  0.23527  0.90097  1.0000
  C   C185      1.0  0.01945  0.23300  0.91747  1.0000
  C   C186      1.0  0.02362  0.23031  0.93725  1.0000
  C   C187      1.0  0.04332  0.22969  0.94062  1.0000
  C   C188      1.0  0.05890  0.23155  0.92412  1.0000
  C   C189      1.0  0.05470  0.23445  0.90433  1.0000
  H   H283      1.0  0.18623  0.32685  0.92337  1.0000
  H   H284      1.0  0.01151  0.22879  0.94996  1.0000
  H   H285      1.0  0.07415  0.23081  0.92659  1.0000
  H   H286      1.0  0.06678  0.23602  0.89160  1.0000
  C   C190      1.0  0.17852  0.15545  0.96534  1.0000
  Fe  Fe38      1.0  0.12279  0.42561  0.97719  1.0000
  H   H287      1.0  0.99587  0.22774  0.79760  1.0000
  Fe  Fe39      1.0  0.12220  0.20920  0.97525  1.0000
  H   H288      1.0  0.20703  0.19320  0.97947  1.0000
  H   H289      1.0  0.23288  0.09251  0.87497  1.0000
  C   C191      1.0  0.99497  0.15082  0.79082  1.0000
  H   H290      1.0  0.22299  0.03548  0.93397  1.0000
  C   C192      1.0  0.05212  0.08687  0.65329  1.0000
  C   C193      1.0  0.17813  0.18753  0.97563  1.0000
  H   H291      1.0  0.04121  0.19765  0.82957  1.0000
  Fe  Fe40      1.0  0.99878  0.23601  0.87278  1.0000
  C   C194      1.0  0.17849  0.35445  0.94811  1.0000
  H   H292      1.0  0.18646  0.36637  0.93801  1.0000
  C   C195      1.0  0.18045  0.31946  0.96399  1.0000
  H   H293      1.0  0.12915  0.46933  0.97411  1.0000
  C   C196      1.0  0.09734  0.03080  0.71551  1.0000
  C   C197      1.0  0.09952  0.02712  0.73589  1.0000
  C   C198      1.0  0.08623  0.03839  0.74957  1.0000
  C   C199      1.0  0.07062  0.05322  0.74295  1.0000
  C   C200      1.0  0.06853  0.05695  0.72256  1.0000
  C   C201      1.0  0.08180  0.04572  0.70890  1.0000
  H   H294      1.0  0.11169  0.01593  0.74105  1.0000
  H   H295      1.0  0.08799  0.03560  0.76533  1.0000
  H   H296      1.0  0.05679  0.06862  0.71727  1.0000
  H   H297      1.0  0.07972  0.04850  0.69330  1.0000
  C   C202      1.0  0.20981  0.16409  0.97040  1.0000
  H   H298      1.0  0.02556  0.20733  0.85082  1.0000
  C   C203      1.0  0.05838  0.30546  0.90361  1.0000
  C   C204      1.0  0.04867  0.28241  0.93399  1.0000
  H   H299      1.0  0.05287  0.29672  0.89417  1.0000
  H   H300      1.0  0.04575  0.31752  0.90807  1.0000
  H   H301      1.0  0.04252  0.27355  0.92518  1.0000
  H   H302      1.0  0.03601  0.29374  0.93985  1.0000
  H   H303      1.0  0.05366  0.27169  0.94727  1.0000
  H   H304      1.0  0.07751  0.26729  0.90526  1.0000
  C   C205      1.0  0.19907  0.32827  0.93059  1.0000
  Fe  Fe41      1.0  0.00353  0.10631  0.71557  1.0000
  H   H305      1.0  0.20771  0.33943  0.92010  1.0000
  H   H306      1.0  0.16997  0.20171  0.97985  1.0000
  N   N19       1.0  0.19344  0.44818  0.98451  1.0000
  H   H307      1.0  0.17269  0.35974  0.96290  1.0000
  H   H308      1.0  0.12847  0.47075  0.68247  1.0000
  H   H309      1.0  0.03123  0.01252  0.75753  1.0000
  H   H310      1.0  0.08558  0.31166  0.92471  1.0000
  H   H311      1.0  0.17843  0.43254  0.96888  1.0000
  H   H312      1.0  0.10031  0.04467  0.66331  1.0000
  C   C206      1.0  0.20801  0.39123  0.95826  1.0000
  H   H313      1.0  0.23190  0.42227  0.91989  1.0000
  H   H314      1.0  0.00195  0.48473  0.90623  1.0000
  S   S79       1.0  0.14122  0.17834  0.97262  1.0000
  H   H315      1.0  0.14211  0.07162  0.66571  1.0000
  C   C207      1.0  0.03766  0.09448  0.66876  1.0000
  N   N20       1.0  0.04788  0.18171  0.85856  1.0000
  C   C208      1.0  0.04119  0.20051  0.84508  1.0000
  C   C209      1.0  0.04729  0.18629  0.87900  1.0000
  C   C210      1.0  0.06873  0.17319  0.85041  1.0000
  C   C211      1.0  0.03435  0.16688  0.85969  1.0000
  H   H316      1.0  0.12536  0.05505  0.68028  1.0000
  H   H317      1.0  0.12189  0.28307  0.97832  1.0000
  C   C212      1.0  0.00138  0.16354  0.80145  1.0000
  H   H318      1.0  0.05224  0.17250  0.88964  1.0000
  H   H319      1.0  0.05717  0.19761  0.87865  1.0000
  H   H320      1.0  0.03182  0.19287  0.88561  1.0000
  H   H321      1.0  0.07428  0.15898  0.86022  1.0000
  H   H322      1.0  0.07930  0.18404  0.84932  1.0000
  H   H323      1.0  0.06969  0.16957  0.83499  1.0000
  H   H324      1.0  0.03891  0.15245  0.86968  1.0000
  H   H325      1.0  0.03423  0.16330  0.84447  1.0000
  H   H326      1.0  0.01847  0.17282  0.86571  1.0000
  H   H327      1.0  0.22209  0.43732  0.96749  1.0000
  H   H328      1.0  0.05091  0.21217  0.84397  1.0000
  S   S80       1.0  0.18983  0.41956  0.92991  1.0000
  C   C213      1.0  0.02533  0.11316  0.66462  1.0000
  H   H329      1.0  0.03591  0.08581  0.68382  1.0000
  S   S81       1.0  0.23881  0.09882  0.96943  1.0000
  H   H330      1.0  0.16824  0.45876  0.96853  1.0000
  H   H331      1.0  0.03035  0.43388  0.89828  1.0000
  H   H332      1.0  0.06136  0.07228  0.65658  1.0000
  C   C214      1.0  0.99693  0.47082  0.66947  1.0000
  H   H333      1.0  0.01689  0.44906  0.91695  1.0000
  H   H334      1.0  0.00419  0.23350  0.91501  1.0000
  C   C215      1.0  0.21052  0.40619  0.94125  1.0000
  H   H335      1.0  0.17057  0.14486  0.96142  1.0000
  C   C216      1.0  0.07299  0.48555  0.88353  1.0000
  N   N21       1.0  0.01620  0.46355  0.88612  1.0000
  H   H336      1.0  0.00573  0.14282  0.78005  1.0000
  H   H337      1.0  0.03639  0.00273  0.71483  1.0000
  C   C217      1.0  0.20924  0.33652  0.95957  1.0000
  H   H338      1.0  0.00107  0.43898  0.74397  1.0000
  H   H339      1.0  0.19022  0.30455  0.96703  1.0000
  H   H340      1.0  0.00310  0.47834  0.81551  1.0000
  H   H341      1.0  0.22292  0.36903  0.97997  1.0000
  H   H342      1.0  0.16780  0.31697  0.95715  1.0000
  S   S82       1.0  0.11391  0.01720  0.69791  1.0000
  C   C218      1.0  0.22486  0.38065  0.96684  1.0000
  H   H343      1.0  0.24003  0.06150  0.94172  1.0000
  H   H344      1.0  0.04795  0.02255  0.73596  1.0000
  H   H345      1.0  0.04397  0.46854  0.86636  1.0000
  H   H346      1.0  0.17365  0.32440  0.97880  1.0000
  H   H347      1.0  0.99771  0.23644  0.77085  1.0000
  H   H348      1.0  0.11084  0.09650  0.66124  1.0000
  C   C219      1.0  0.04664  0.00963  0.74861  1.0000
  S   S83       1.0  0.99596  0.08039  0.77119  1.0000
  C   C220      1.0  0.23329  0.07121  0.84535  1.0000
  C   C221      1.0  0.02648  0.44958  0.90177  1.0000
  H   H349      1.0  0.16508  0.35351  0.94156  1.0000
  H   H350      1.0  0.17697  0.00466  0.79459  1.0000
  H   H351      1.0  0.23706  0.06781  0.82962  1.0000
  H   H352      1.0  0.19169  0.45149  0.95285  1.0000
  C   C222      1.0  0.01177  0.48420  0.89126  1.0000
  H   H353      1.0  0.14388  0.04655  0.66006  1.0000
  H   H354      1.0  0.20711  0.47385  0.96857  1.0000
  C   C223      1.0  0.03543  0.99030  0.72802  1.0000
  N   N22       1.0  0.05040  0.99012  0.74105  1.0000
  C   C224      1.0  0.18640  0.99111  0.79007  1.0000
  H   H355      1.0  0.18352  0.48008  0.98457  1.0000
  H   H356      1.0  0.20985  0.41803  0.98412  1.0000
  C   C225      1.0  0.14899  0.48816  0.66147  1.0000
  S   S84       1.0  0.01861  0.69339  0.09036  1.0000
  Fe  Fe42      1.0  0.11884  0.71553  0.03464  1.0000
  S   S85       1.0  0.15053  0.69957  0.02666  1.0000
  S   S86       1.0  0.10623  0.71637  0.06766  1.0000
  C   C226      1.0  0.19731  0.57914  0.05173  1.0000
  S   S87       1.0  0.10622  0.49583  0.10473  1.0000
  Fe  Fe43      1.0  0.13803  0.68733  0.00440  1.0000
  S   S88       1.0  0.03884  0.77879  0.31187  1.0000
  Fe  Fe44      1.0  0.15419  0.72679  0.00247  1.0000
  H   H357      1.0  0.05150  0.76096  0.24121  1.0000
  S   S89       1.0  0.10597  0.70109  0.01422  1.0000
  S   S90       1.0  0.12340  0.74367  0.01220  1.0000
  H   H358      1.0  0.08190  0.70562  0.10646  1.0000
  H   H359      1.0  0.06408  0.67857  0.03917  1.0000
  H   H360      1.0  0.17603  0.75955  0.07091  1.0000
  C   C227      1.0  0.17638  0.96138  0.28642  1.0000
  H   H361      1.0  0.07492  0.71892  0.04388  1.0000
  S   S91       1.0  0.21416  0.97472  0.15025  1.0000
  H   H362      1.0  0.07813  0.92348  0.23221  1.0000
  H   H363      1.0  0.02286  0.96267  0.24782  1.0000
  H   H364      1.0  0.02454  0.92537  0.25755  1.0000
  C   C228      1.0  0.00667  0.74222  0.18529  1.0000
  Fe  Fe45      1.0  0.14528  0.94456  0.25419  1.0000
  S   S92       1.0  0.13861  0.93193  0.28744  1.0000
  S   S93       1.0  0.17767  0.93616  0.23918  1.0000
  Fe  Fe46      1.0  0.10960  0.92630  0.28018  1.0000
  S   S94       1.0  0.09456  0.89880  0.29440  1.0000
  S   S95       1.0  0.11740  0.93657  0.24676  1.0000
  Fe  Fe47      1.0  0.01721  0.79973  0.24231  1.0000
  S   S96       1.0  0.02221  0.78044  0.21698  1.0000
  Fe  Fe48      1.0  0.03352  0.83553  0.25177  1.0000
  H   H365      1.0  0.16256  0.80770  0.01329  1.0000
  S   S97       1.0  0.05399  0.85904  0.23890  1.0000
  Fe  Fe49      1.0  0.02744  0.79928  0.28464  1.0000
  H   H366      1.0  0.15624  0.78113  0.07135  1.0000
  S   S98       1.0  0.04555  0.80233  0.25343  1.0000
  H   H367      1.0  0.18122  0.57981  0.05043  1.0000
  Fe  Fe50      1.0  0.14546  0.55018  0.06701  1.0000
  S   S99       1.0  0.17379  0.53688  0.04825  1.0000
  S   S100      1.0  0.13854  0.58288  0.07204  1.0000
  H   H368      1.0  0.03463  0.92088  0.23212  1.0000
  N   N23       1.0  0.19952  0.58005  0.07263  1.0000
  H   H369      1.0  0.20584  0.56488  0.04673  1.0000
  H   H370      1.0  0.10162  0.63216  0.03433  1.0000
  H   H371      1.0  0.11590  0.82868  0.31233  1.0000
  S   S101      1.0  0.15020  0.52756  0.09495  1.0000
  S   S102      1.0  0.12548  0.53253  0.05734  1.0000
  Fe  Fe51      1.0  0.15428  0.51702  0.04109  1.0000
  H   H372      1.0  0.17928  0.95086  0.27522  1.0000
  C   C229      1.0  0.22928  0.52435  0.05714  1.0000
  H   H373      1.0  0.07161  0.74029  0.24495  1.0000
  H   H374      1.0  0.21210  0.96233  0.26222  1.0000
  S   S103      1.0  0.09283  0.95657  0.28677  1.0000
  H   H375      1.0  0.16897  0.77368  0.04776  1.0000
  H   H376      1.0  0.21738  0.52573  0.04839  1.0000
  H   H377      1.0  0.03927  0.75962  0.27738  1.0000
  C   C230      1.0  0.00821  0.76469  0.20896  1.0000
  S   S104      1.0  0.18391  0.73898  0.99599  1.0000
  C   C231      1.0  0.08395  0.88707  0.27897  1.0000
  C   C232      1.0  0.09075  0.88879  0.25815  1.0000
  C   C233      1.0  0.08181  0.87962  0.24613  1.0000
  C   C234      1.0  0.06612  0.86851  0.25484  1.0000
  C   C235      1.0  0.05963  0.86641  0.27575  1.0000
  C   C236      1.0  0.06849  0.87569  0.28776  1.0000
  H   H378      1.0  0.10301  0.89705  0.25130  1.0000
  H   H379      1.0  0.08701  0.88119  0.22999  1.0000
  H   H380      1.0  0.04753  0.85798  0.28263  1.0000
  H   H381      1.0  0.06314  0.87425  0.30386  1.0000
  C   C237      1.0  0.20432  0.96386  0.17503  1.0000
  C   C238      1.0  0.21564  0.94793  0.18626  1.0000
  C   C239      1.0  0.20721  0.93955  0.20585  1.0000
  C   C240      1.0  0.18740  0.94693  0.21434  1.0000
  C   C241      1.0  0.17603  0.96279  0.20308  1.0000
  C   C242      1.0  0.18450  0.97124  0.18353  1.0000
  H   H382      1.0  0.23094  0.94217  0.17993  1.0000
  H   H383      1.0  0.21611  0.92729  0.21447  1.0000
  H   H384      1.0  0.16077  0.96863  0.20948  1.0000
  S   S105      1.0  0.01723  0.83255  0.28363  1.0000
  H   H385      1.0  0.22002  0.75510  0.99373  1.0000
  H   H386      1.0  0.04728  0.69670  0.11585  1.0000
  H   H387      1.0  0.21467  0.96399  0.28755  1.0000
  H   H388      1.0  0.00675  0.49954  0.29307  1.0000
  S   S106      1.0  0.20624  0.50225  0.08817  1.0000
  H   H389      1.0  0.18164  0.95271  0.30050  1.0000
  H   H390      1.0  0.03464  0.73628  0.29320  1.0000
  H   H391      1.0  0.15978  0.96595  0.29003  1.0000
  H   H392      1.0  0.18082  0.98020  0.24842  1.0000
  H   H393      1.0  0.10099  0.64937  0.07177  1.0000
  C   C243      1.0  0.20742  0.76662  0.99787  1.0000
  C   C244      1.0  0.04898  0.71259  0.26452  1.0000
  H   H394      1.0  0.22991  0.56392  0.06997  1.0000
  C   C245      1.0  0.14458  0.63495  0.01902  1.0000
  C   C246      1.0  0.14569  0.61519  0.01534  1.0000
  C   C247      1.0  0.14408  0.59900  0.03148  1.0000
  C   C248      1.0  0.14120  0.60258  0.05137  1.0000
  C   C249      1.0  0.14042  0.62228  0.05505  1.0000
  C   C250      1.0  0.14232  0.63840  0.03891  1.0000
  H   H395      1.0  0.14755  0.61244  0.99995  1.0000
  H   H396      1.0  0.14474  0.58385  0.02851  1.0000
  H   H397      1.0  0.13833  0.62510  0.07043  1.0000
  H   H398      1.0  0.14193  0.65351  0.04181  1.0000
  H   H399      1.0  0.15616  0.77516  0.00626  1.0000
  C   C251      1.0  0.01688  0.75518  0.19203  1.0000
  H   H400      1.0  0.07820  0.62256  0.04217  1.0000
  H   H401      1.0  0.01358  0.73512  0.17222  1.0000
  H   H402      1.0  0.03160  0.75791  0.18399  1.0000
  C   C252      1.0  0.04178  0.70243  0.08512  1.0000
  C   C253      1.0  0.04968  0.70879  0.06486  1.0000
  C   C254      1.0  0.06908  0.71398  0.05956  1.0000
  C   C255      1.0  0.08090  0.71252  0.07447  1.0000
  C   C256      1.0  0.07283  0.70676  0.09485  1.0000
  C   C257      1.0  0.05324  0.70173  0.10020  1.0000
  H   H403      1.0  0.04077  0.70958  0.05317  1.0000
  H   H404      1.0  0.04312  0.82006  0.31337  1.0000
  H   H405      1.0  0.20417  0.95313  0.12122  1.0000
  N   N24       1.0  0.19472  0.92444  0.13394  1.0000
  C   C258      1.0  0.17673  0.93359  0.14689  1.0000
  C   C259      1.0  0.21143  0.91756  0.14573  1.0000
  C   C260      1.0  0.20069  0.93969  0.11635  1.0000
  C   C261      1.0  0.19021  0.90695  0.12676  1.0000
  H   H406      1.0  0.16377  0.93896  0.13854  1.0000
  H   H407      1.0  0.17987  0.94689  0.15235  1.0000
  H   H408      1.0  0.17195  0.92262  0.16050  1.0000
  H   H409      1.0  0.22518  0.91026  0.13653  1.0000
  H   H410      1.0  0.21555  0.93047  0.15093  1.0000
  H   H411      1.0  0.20737  0.90638  0.15940  1.0000
  H   H412      1.0  0.04262  0.94387  0.27457  1.0000
  H   H413      1.0  0.18852  0.94517  0.10699  1.0000
  H   H414      1.0  0.20366  0.89991  0.11689  1.0000
  S   S107      1.0  0.13100  0.97628  0.25809  1.0000
  H   H415      1.0  0.18583  0.89504  0.13961  1.0000
  N   N25       1.0  0.14787  0.75455  0.06473  1.0000
  C   C262      1.0  0.15727  0.73754  0.05379  1.0000
  C   C263      1.0  0.14072  0.74653  0.08609  1.0000
  C   C264      1.0  0.13054  0.76622  0.05535  1.0000
  H   H416      1.0  0.14650  0.72693  0.05489  1.0000
  H   H417      1.0  0.17079  0.72869  0.05998  1.0000
  H   H418      1.0  0.16220  0.74290  0.03743  1.0000
  H   H419      1.0  0.13358  0.75895  0.09485  1.0000
  H   H420      1.0  0.12922  0.73658  0.08733  1.0000
  H   H421      1.0  0.15332  0.73735  0.09359  1.0000
  H   H422      1.0  0.12292  0.77911  0.06329  1.0000
  H   H423      1.0  0.11901  0.75654  0.05575  1.0000
  H   H424      1.0  0.13533  0.77252  0.03922  1.0000
  N   N26       1.0  0.04243  0.73474  0.26133  1.0000
  H   H425      1.0  0.07644  0.95026  0.22474  1.0000
  N   N27       1.0  0.18650  0.97924  0.27856  1.0000
  C   C265      1.0  0.04418  0.74294  0.27933  1.0000
  H   H426      1.0  0.06650  0.92860  0.26752  1.0000
  S   S108      1.0  0.00649  0.83355  0.23826  1.0000
  C   C266      1.0  0.05536  0.74417  0.24344  1.0000
  S   S109      1.0  0.00282  0.67777  0.15233  1.0000
  H   H427      1.0  0.05346  0.73941  0.22929  1.0000
  H   H428      1.0  0.03117  0.95868  0.22196  1.0000
  C   C267      1.0  0.18834  0.59943  0.07838  1.0000
  C   C268      1.0  0.17512  0.79622  0.00900  1.0000
  C   C269      1.0  0.16290  0.76782  0.06370  1.0000
  H   H429      1.0  0.21437  0.93336  0.10635  1.0000
  H   H430      1.0  0.06491  0.70859  0.26717  1.0000
  H   H431      1.0  0.17770  0.91155  0.11773  1.0000
  H   H432      1.0  0.22797  0.59085  0.06310  1.0000
  N   N28       1.0  0.07891  0.64999  0.05299  1.0000
  H   H433      1.0  0.09524  0.61985  0.05986  1.0000
  H   H434      1.0  0.01573  0.75589  0.25570  1.0000
  H   H435      1.0  0.05063  0.63960  0.06560  1.0000
  C   C270      1.0  0.09368  0.65954  0.05951  1.0000
  C   C271      1.0  0.14253  0.49247  0.00840  1.0000
  H   H436      1.0  0.18983  0.60077  0.09398  1.0000
  H   H437      1.0  0.08333  0.66549  0.02228  1.0000
  C   C272      1.0  0.08889  0.63028  0.04710  1.0000
  S   S110      1.0  0.00006  0.79392  0.27399  1.0000
  C   C273      1.0  0.05578  0.94218  0.26227  1.0000
  H   H438      1.0  0.06343  0.95553  0.26049  1.0000
  Fe  Fe52      1.0  0.13245  0.50866  0.08387  1.0000
  C   C274      1.0  0.07107  0.66331  0.03548  1.0000
  H   H439      1.0  0.10575  0.66358  0.04674  1.0000
  H   H440      1.0  0.08640  0.67373  0.06537  1.0000
  C   C275      1.0  0.06205  0.64691  0.06986  1.0000
  H   H441      1.0  0.10075  0.85275  0.30603  1.0000
  C   C276      1.0  0.18762  0.76275  0.99999  1.0000
  H   H442      1.0  0.03948  0.70500  0.27787  1.0000
  C   C277      1.0  0.19126  0.56308  0.08663  1.0000
  S   S111      1.0  0.15707  0.51070  0.00945  1.0000
  S   S112      1.0  0.19901  0.82296  0.01277  1.0000
  H   H443      1.0  0.04798  0.90898  0.25246  1.0000
  C   C278      1.0  0.03636  0.95945  0.23621  1.0000
  H   H444      1.0  0.06000  0.74001  0.28227  1.0000
  C   C279      1.0  0.02120  0.73931  0.25802  1.0000
  C   C280      1.0  0.22112  0.57856  0.07380  1.0000
  H   H445      1.0  0.05407  0.66157  0.07449  1.0000
  H   H446      1.0  0.19381  0.61261  0.06787  1.0000
  H   H447      1.0  0.18718  0.98470  0.30845  1.0000
  H   H448      1.0  0.02052  0.54906  0.31067  1.0000
  Fe  Fe53      1.0  0.10246  0.96737  0.25384  1.0000
  H   H449      1.0  0.05942  0.65691  0.03051  1.0000
  Fe  Fe54      1.0  0.12252  0.96334  0.29086  1.0000
  H   H450      1.0  0.04440  0.97274  0.23316  1.0000
  Fe  Fe55      1.0  0.99787  0.69163  0.12052  1.0000
  C   C281      1.0  0.21110  0.78515  0.00134  1.0000
  H   H451      1.0  0.04790  0.70602  0.25112  1.0000
  N   N29       1.0  0.04963  0.94059  0.24311  1.0000
  C   C282      1.0  0.06773  0.93751  0.22755  1.0000
  Fe  Fe56      1.0  0.17720  0.51302  0.07546  1.0000
  C   C283      1.0  0.03865  0.92325  0.24643  1.0000
  H   H452      1.0  0.19889  0.54822  0.08245  1.0000
  C   C284      1.0  0.19496  0.79990  0.00726  1.0000
  H   H453      1.0  0.06368  0.93627  0.21287  1.0000
  C   C285      1.0  0.22748  0.51377  0.07694  1.0000
  H   H454      1.0  0.06749  0.63719  0.08343  1.0000
  S   S113      1.0  0.14545  0.65502  0.99853  1.0000
  H   H455      1.0  0.17490  0.56395  0.08644  1.0000
  H   H456      1.0  0.01098  0.73234  0.27112  1.0000
  C   C286      1.0  0.17145  0.77778  0.00520  1.0000
  H   H457      1.0  0.17195  0.60080  0.07798  1.0000
  H   H458      1.0  0.01935  0.73373  0.24429  1.0000
  Fe  Fe57      1.0  0.11313  0.72782  0.99084  1.0000
  H   H459      1.0  0.22644  0.78780  0.99996  1.0000
  H   H460      1.0  0.20291  0.59199  0.04079  1.0000
  Fe  Fe58      1.0  0.22734  0.83655  0.99822  1.0000
  H   H461      1.0  0.19304  0.56298  0.10249  1.0000
  C   C287      1.0  0.00396  0.49211  0.30861  1.0000
  H   H462      1.0  0.22336  0.57948  0.08929  1.0000
  S   S114      1.0  0.12350  0.98414  0.31282  1.0000
  H   H463      1.0  0.17566  0.98360  0.17495  1.0000
  C   C288      1.0  0.20849  0.97250  0.27385  1.0000
  H   H464      1.0  0.21668  0.98557  0.26787  1.0000
  H   H465      1.0  0.24181  0.50372  0.10337  1.0000
  H   H466      1.0  0.00176  0.53286  0.31546  1.0000
  S   S115      1.0  0.08032  0.98741  0.23498  1.0000
  H   H467      1.0  0.24073  0.87442  0.07735  1.0000
  H   H468      1.0  0.24025  0.87414  0.04117  1.0000
  S   S116      1.0  0.16001  0.49188  0.06691  1.0000
  C   C289      1.0  0.10279  0.83953  0.31826  1.0000
  H   H469      1.0  0.99442  0.55888  0.31868  1.0000
  C   C290      1.0  0.15134  0.96178  0.33655  1.0000
  C   C291      1.0  0.17881  0.96058  0.48497  1.0000
  Fe  Fe59      1.0  0.19669  0.59905  0.51923  1.0000
  S   S117      1.0  0.18139  0.58569  0.54993  1.0000
  Fe  Fe60      1.0  0.18561  0.61968  0.47824  1.0000
  C   C292      1.0  0.16390  0.57817  0.43785  1.0000
  S   S118      1.0  0.16129  0.63516  0.45937  1.0000
  C   C293      1.0  0.14368  0.69313  0.44380  1.0000
  C   C294      1.0  0.18148  0.94284  0.49901  1.0000
  S   S119      1.0  0.18879  0.58748  0.49363  1.0000
  S   S120      1.0  0.19066  0.63181  0.50491  1.0000
  Fe  Fe61      1.0  0.13442  0.90715  0.54357  1.0000
  S   S121      1.0  0.15386  0.88070  0.53057  1.0000
  S   S122      1.0  0.12422  0.93677  0.52471  1.0000
  Fe  Fe62      1.0  0.13183  0.88587  0.58701  1.0000
  S   S123      1.0  0.15032  0.85722  0.57751  1.0000
  S   S124      1.0  0.11918  0.88915  0.61990  1.0000
  Fe  Fe63      1.0  0.17030  0.87788  0.55689  1.0000
  S   S125      1.0  0.20432  0.86926  0.55509  1.0000
  Fe  Fe64      1.0  0.13221  0.86242  0.55197  1.0000
  S   S126      1.0  0.11961  0.83651  0.54410  1.0000
  S   S127      1.0  0.15273  0.90613  0.56768  1.0000
  S   S128      1.0  0.11178  0.88924  0.56357  1.0000
  C   C295      1.0  0.22836  0.56558  0.58089  1.0000
  H   H470      1.0  0.21388  0.89221  0.61055  1.0000
  N   N30       1.0  0.00937  0.53984  0.34214  1.0000
  H   H471      1.0  0.05527  0.80386  0.50702  1.0000
  S   S129      1.0  0.00913  0.56190  0.61921  1.0000
  C   C296      1.0  0.16407  0.68687  0.47027  1.0000
  H   H472      1.0  0.17015  0.92904  0.62502  1.0000
  H   H473      1.0  0.14217  0.96534  0.54106  1.0000
  Fe  Fe65      1.0  0.01817  0.63625  0.44926  1.0000
  S   S130      1.0  0.01498  0.64384  0.41655  1.0000
  Fe  Fe66      1.0  0.06062  0.61244  0.44078  1.0000
  S   S131      1.0  0.06061  0.61784  0.40723  1.0000
  S   S132      1.0  0.08624  0.59427  0.45652  1.0000
  Fe  Fe67      1.0  0.04696  0.64980  0.41199  1.0000
  S   S133      1.0  0.05515  0.67945  0.39400  1.0000
  Fe  Fe68      1.0  0.02846  0.61129  0.41503  1.0000
  S   S134      1.0  0.01515  0.58734  0.40461  1.0000
  S   S135      1.0  0.04889  0.64455  0.44492  1.0000
  S   S136      1.0  0.02976  0.60344  0.44839  1.0000
  Fe  Fe69      1.0  0.06299  0.80334  0.41184  1.0000
  S   S137      1.0  0.09270  0.79007  0.42238  1.0000
  S   S138      1.0  0.05927  0.81983  0.38012  1.0000
  Fe  Fe70      1.0  0.03928  0.79471  0.45434  1.0000
  S   S139      1.0  0.06677  0.78034  0.46834  1.0000
  H   H474      1.0  0.14689  0.92985  0.42036  1.0000
  Fe  Fe71      1.0  0.08122  0.80622  0.44940  1.0000
  S   S140      1.0  0.09812  0.82774  0.45916  1.0000
  Fe  Fe72      1.0  0.07588  0.76534  0.44047  1.0000
  S   S141      1.0  0.08858  0.73184  0.44369  1.0000
  S   S142      1.0  0.05291  0.82152  0.43716  1.0000
  S   S143      1.0  0.04701  0.77764  0.42820  1.0000
  H   H475      1.0  0.12864  0.68333  0.49462  1.0000
  H   H476      1.0  0.21973  0.53905  0.51351  1.0000
  C   C297      1.0  0.08777  0.85935  0.34469  1.0000
  S   S144      1.0  0.21327  0.53598  0.39157  1.0000
  C   C298      1.0  0.06934  0.86714  0.63625  1.0000
  C   C299      1.0  0.06620  0.69379  0.40660  1.0000
  C   C300      1.0  0.06371  0.71494  0.40121  1.0000
  C   C301      1.0  0.07094  0.72676  0.41216  1.0000
  C   C302      1.0  0.08076  0.71748  0.42856  1.0000
  C   C303      1.0  0.08388  0.69631  0.43347  1.0000
  C   C304      1.0  0.07663  0.68453  0.42255  1.0000
  H   H477      1.0  0.05589  0.72223  0.38873  1.0000
  H   H478      1.0  0.06884  0.74303  0.40793  1.0000
  H   H479      1.0  0.09167  0.68895  0.44594  1.0000
  H   H480      1.0  0.07932  0.66824  0.42637  1.0000
  H   H481      1.0  0.17557  0.69557  0.46055  1.0000
  H   H482      1.0  0.03071  0.77528  0.49886  1.0000
  S   S145      1.0  0.23697  0.53583  0.61264  1.0000
  N   N31       1.0  0.15608  0.56669  0.42561  1.0000
  C   C305      1.0  0.11398  0.83423  0.52028  1.0000
  C   C306      1.0  0.11593  0.84950  0.50344  1.0000
  C   C307      1.0  0.11110  0.84715  0.48492  1.0000
  C   C308      1.0  0.10416  0.82960  0.48294  1.0000
  C   C309      1.0  0.10217  0.81431  0.49979  1.0000
  C   C310      1.0  0.10707  0.81664  0.51831  1.0000
  H   H483      1.0  0.12120  0.86311  0.50468  1.0000
  H   H484      1.0  0.11275  0.85906  0.47201  1.0000
  H   H485      1.0  0.09710  0.80061  0.49850  1.0000
  H   H486      1.0  0.10563  0.80467  0.53119  1.0000
  C   C311      1.0  0.14524  0.94583  0.50943  1.0000
  C   C312      1.0  0.14262  0.96381  0.49566  1.0000
  H   H487      1.0  0.14953  0.97869  0.55778  1.0000
  C   C313      1.0  0.16468  0.93550  0.51132  1.0000
  H   H488      1.0  0.08972  0.86455  0.35857  1.0000
  H   H489      1.0  0.11097  0.83180  0.36690  1.0000
  H   H490      1.0  0.16685  0.92178  0.52215  1.0000
  C   C314      1.0  0.21838  0.88503  0.56253  1.0000
  C   C315      1.0  0.20986  0.90456  0.56630  1.0000
  C   C316      1.0  0.22151  0.91675  0.57203  1.0000
  H   H491      1.0  0.05508  0.54417  0.56680  1.0000
  H   H492      1.0  0.19439  0.91042  0.56452  1.0000
  H   H493      1.0  0.21481  0.93188  0.57478  1.0000
  H   H494      1.0  0.04410  0.53861  0.59302  1.0000
  H   H495      1.0  0.02937  0.56139  0.33939  1.0000
  H   H496      1.0  0.13469  0.52942  0.62745  1.0000
  C   C317      1.0  0.04951  0.81974  0.34311  1.0000
  C   C318      1.0  0.05324  0.80798  0.36168  1.0000
  C   C319      1.0  0.05246  0.78723  0.36486  1.0000
  C   C320      1.0  0.04814  0.77837  0.34948  1.0000
  H   H497      1.0  0.12762  0.97181  0.49407  1.0000
  H   H498      1.0  0.04990  0.83581  0.34050  1.0000
  H   H499      1.0  0.05540  0.77796  0.37906  1.0000
  H   H500      1.0  0.04767  0.76230  0.35202  1.0000
  H   H501      1.0  0.00498  0.83580  0.32832  1.0000
  C   C321      1.0  0.14795  0.91155  0.62273  1.0000
  C   C322      1.0  0.13120  0.90260  0.63264  1.0000
  H   H502      1.0  0.00817  0.68409  0.44246  1.0000
  H   H503      1.0  0.20722  0.52118  0.56859  1.0000
  H   H504      1.0  0.15377  0.91033  0.60713  1.0000
  Fe  Fe73      1.0  0.22167  0.58565  0.48104  1.0000
  C   C323      1.0  0.13958  0.62444  0.46007  1.0000
  C   C324      1.0  0.12590  0.63388  0.44689  1.0000
  C   C325      1.0  0.10906  0.62514  0.44620  1.0000
  C   C326      1.0  0.10586  0.60682  0.45864  1.0000
  C   C327      1.0  0.11932  0.59758  0.47209  1.0000
  C   C328      1.0  0.13604  0.60644  0.47294  1.0000
  H   H505      1.0  0.12850  0.64781  0.43686  1.0000
  H   H506      1.0  0.09888  0.63228  0.43566  1.0000
  H   H507      1.0  0.11690  0.58343  0.48180  1.0000
  H   H508      1.0  0.14635  0.59916  0.48330  1.0000
  C   C329      1.0  0.22056  0.54100  0.41334  1.0000
  H   H509      1.0  0.13741  0.84707  0.32573  1.0000
  C   C330      1.0  0.20930  0.88936  0.62727  1.0000
  H   H510      1.0  0.18044  0.89955  0.45592  1.0000
  H   H511      1.0  0.13997  0.92793  0.45795  1.0000
  H   H512      1.0  0.01751  0.55341  0.36476  1.0000
  C   C331      1.0  0.20109  0.54742  0.59777  1.0000
  C   C332      1.0  0.18885  0.55882  0.58392  1.0000
  C   C333      1.0  0.19655  0.57313  0.56811  1.0000
  Fe  Fe74      1.0  0.21349  0.50398  0.38654  1.0000
  C   C334      1.0  0.01619  0.78116  0.50680  1.0000
  H   H513      1.0  0.19507  0.53631  0.60980  1.0000
  H   H514      1.0  0.17351  0.55623  0.58522  1.0000
  C   C335      1.0  0.22672  0.52319  0.51869  1.0000
  S   S146      1.0  0.19959  0.96843  0.46817  1.0000
  H   H515      1.0  0.19650  0.93459  0.50020  1.0000
  C   C336      1.0  0.22095  0.55064  0.59617  1.0000
  C   C337      1.0  0.22374  0.56587  0.43344  1.0000
  N   N32       1.0  0.10596  0.84579  0.33681  1.0000
  H   H516      1.0  0.15805  0.56458  0.39424  1.0000
  C   C338      1.0  0.10902  0.97846  0.56503  1.0000
  H   H517      1.0  0.07798  0.52417  0.60201  1.0000
  S   S147      1.0  0.20566  0.49159  0.61817  1.0000
  C   C339      1.0  0.24176  0.90951  0.57411  1.0000
  H   H518      1.0  0.02287  0.76637  0.53621  1.0000
  H   H519      1.0  0.08423  0.87304  0.33332  1.0000
  H   H520      1.0  0.00245  0.80191  0.32299  1.0000
  C   C340      1.0  0.10981  0.82765  0.35222  1.0000
  C   C341      1.0  0.16337  0.97559  0.36172  1.0000
  H   H521      1.0  0.18067  0.57554  0.43547  1.0000
  H   H522      1.0  0.11344  0.68828  0.47489  1.0000
  H   H523      1.0  0.17337  0.94531  0.35499  1.0000
  S   S148      1.0  0.17912  0.97205  0.38021  1.0000
  N   N33       1.0  0.03962  0.83343  0.51199  1.0000
  C   C342      1.0  0.05527  0.83751  0.52219  1.0000
  C   C343      1.0  0.03108  0.85239  0.49986  1.0000
  C   C344      1.0  0.02342  0.82539  0.52730  1.0000
  C   C345      1.0  0.04872  0.81845  0.49848  1.0000
  H   H524      1.0  0.06245  0.82343  0.53106  1.0000
  H   H525      1.0  0.04892  0.84849  0.53280  1.0000
  H   H526      1.0  0.06754  0.84398  0.51108  1.0000
  H   H527      1.0  0.04297  0.85872  0.48808  1.0000
  H   H528      1.0  0.01927  0.84977  0.49191  1.0000
  H   H529      1.0  0.02409  0.86412  0.50950  1.0000
  H   H530      1.0  0.01124  0.82243  0.52009  1.0000
  H   H531      1.0  0.01635  0.83614  0.53797  1.0000
  H   H532      1.0  0.02926  0.81082  0.53644  1.0000
  H   H533      1.0  0.02801  0.51737  0.36021  1.0000
  H   H534      1.0  0.02595  0.72989  0.46697  1.0000
  C   C346      1.0  0.04538  0.81088  0.32774  1.0000
  N   N34       1.0  0.01625  0.70512  0.45811  1.0000
  H   H535      1.0  0.23224  0.78641  0.53663  1.0000
  H   H536      1.0  0.99972  0.82436  0.63907  1.0000
  H   H537      1.0  0.23841  0.83820  0.54154  1.0000
  S   S149      1.0  0.23007  0.59507  0.50784  1.0000
  H   H538      1.0  0.15880  0.58944  0.39907  1.0000
  H   H539      1.0  0.21468  0.57334  0.40404  1.0000
  C   C347      1.0  0.22691  0.52544  0.42846  1.0000
  H   H540      1.0  0.12638  0.86146  0.34577  1.0000
  H   H541      1.0  0.00319  0.49673  0.64709  1.0000
  H   H542      1.0  0.09738  0.81853  0.35527  1.0000
  H   H543      1.0  0.08174  0.87494  0.62699  1.0000
  C   C348      1.0  0.00642  0.54543  0.32078  1.0000
  C   C349      1.0  0.23673  0.49843  0.54698  1.0000
  H   H544      1.0  0.11011  0.98037  0.52577  1.0000
  H   H545      1.0  0.16039  0.89895  0.44264  1.0000
  H   H546      1.0  0.12801  0.58727  0.42501  1.0000
  H   H547      1.0  0.05500  0.87506  0.63104  1.0000
  Fe  Fe75      1.0  0.22971  0.50482  0.62684  1.0000
  H   H548      1.0  0.19280  0.89481  0.63058  1.0000
  H   H549      1.0  0.07212  0.85148  0.63275  1.0000
  C   C350      1.0  0.00181  0.79377  0.49609  1.0000
  N   N35       1.0  0.22075  0.89952  0.63748  1.0000
  H   H550      1.0  0.15005  0.95091  0.45517  1.0000
  H   H551      1.0  0.22784  0.50981  0.42683  1.0000
  H   H552      1.0  0.06104  0.82401  0.48679  1.0000
  C   C351      1.0  0.99285  0.78356  0.53831  1.0000
  C   C352      1.0  0.21315  0.81256  0.56153  1.0000
  C   C353      1.0  0.13326  0.51656  0.63940  1.0000
  S   S150      1.0  0.03926  0.51444  0.64317  1.0000
  S   S151      1.0  0.23645  0.55581  0.47061  1.0000
  H   H553      1.0  0.15776  0.53568  0.42220  1.0000
  Fe  Fe76      1.0  0.01998  0.54424  0.64760  1.0000
  H   H554      1.0  0.99309  0.71824  0.56051  1.0000
  C   C354      1.0  0.21628  0.57663  0.56672  1.0000
  H   H555      1.0  0.15739  0.53949  0.44764  1.0000
  H   H556      1.0  0.07436  0.85156  0.34882  1.0000
  S   S152      1.0  0.21807  0.49741  0.35471  1.0000
  C   C355      1.0  0.21720  0.92158  0.63031  1.0000
  H   H557      1.0  0.01342  0.73675  0.44523  1.0000
  S   S153      1.0  0.09271  0.52769  0.64020  1.0000
  C   C356      1.0  0.12345  0.85667  0.33206  1.0000
  H   H558      1.0  0.16459  0.68756  0.48631  1.0000
  H   H559      1.0  0.16900  0.67077  0.46825  1.0000
  N   N36       1.0  0.16916  0.92820  0.43925  1.0000
  C   C357      1.0  0.17406  0.90589  0.44177  1.0000
  C   C358      1.0  0.16076  0.93608  0.42035  1.0000
  C   C359      1.0  0.18771  0.93670  0.43829  1.0000
  C   C360      1.0  0.15414  0.93416  0.45662  1.0000
  C   C361      1.0  0.01381  0.69882  0.43930  1.0000
  H   H560      1.0  0.18537  0.90087  0.42890  1.0000
  H   H561      1.0  0.15066  0.98915  0.53135  1.0000
  H   H562      1.0  0.15670  0.95288  0.41814  1.0000
  H   H563      1.0  0.17185  0.93232  0.40682  1.0000
  H   H564      1.0  0.02534  0.67470  0.47260  1.0000
  H   H565      1.0  0.19938  0.93264  0.42530  1.0000
  H   H566      1.0  0.19440  0.93129  0.45239  1.0000
  H   H567      1.0  0.18459  0.95349  0.43640  1.0000
  H   H568      1.0  0.21766  0.51295  0.51491  1.0000
  H   H569      1.0  0.02839  0.69683  0.42883  1.0000
  C   C362      1.0  0.23014  0.55035  0.44855  1.0000
  N   N37       1.0  0.06928  0.55467  0.58747  1.0000
  C   C363      1.0  0.08424  0.53600  0.59008  1.0000
  C   C364      1.0  0.07826  0.57003  0.57177  1.0000
  C   C365      1.0  0.06328  0.56255  0.60679  1.0000
  C   C366      1.0  0.05126  0.55009  0.58137  1.0000
  H   H570      1.0  0.04571  0.68721  0.45846  1.0000
  H   H571      1.0  0.15887  0.59476  0.43399  1.0000
  H   H572      1.0  0.08916  0.52952  0.57584  1.0000
  H   H573      1.0  0.06735  0.58433  0.56952  1.0000
  H   H574      1.0  0.09188  0.57380  0.57600  1.0000
  H   H575      1.0  0.08296  0.56461  0.55694  1.0000
  H   H576      1.0  0.05177  0.57650  0.60561  1.0000
  H   H577      1.0  0.09795  0.53888  0.59492  1.0000
  H   H578      1.0  0.05650  0.55123  0.61882  1.0000
  S   S154      1.0  0.00713  0.80121  0.46982  1.0000
  Fe  Fe77      1.0  0.22376  0.62729  0.49160  1.0000
  H   H579      1.0  0.15868  0.57367  0.45430  1.0000
  C   C367      1.0  0.13875  0.98015  0.33182  1.0000
  S   S155      1.0  0.24202  0.65350  0.48585  1.0000
  N   N38       1.0  0.14368  0.69469  0.46509  1.0000
  H   H580      1.0  0.20904  0.82744  0.56688  1.0000
  H   H581      1.0  0.00304  0.71017  0.43103  1.0000
  C   C368      1.0  0.23863  0.87780  0.56464  1.0000
  H   H582      1.0  0.17977  0.54120  0.42917  1.0000
  C   C369      1.0  0.21928  0.56119  0.41578  1.0000
  H   H583      1.0  0.12853  0.69911  0.43937  1.0000
  H   H584      1.0  0.00320  0.57068  0.34744  1.0000
  H   H585      1.0  0.13787  0.71788  0.48376  1.0000
  H   H586      1.0  0.03330  0.69392  0.48247  1.0000
  H   H587      1.0  0.20116  0.92828  0.63470  1.0000
  C   C370      1.0  0.14169  0.98071  0.54453  1.0000
  H   H588      1.0  0.12256  0.72247  0.46426  1.0000
  H   H589      1.0  0.22103  0.92517  0.61357  1.0000
  H   H590      1.0  0.12726  0.56248  0.42025  1.0000
  C   C371      1.0  0.12897  0.68269  0.47841  1.0000
  C   C372      1.0  0.13793  0.71612  0.46789  1.0000
  C   C373      1.0  0.15943  0.97133  0.48365  1.0000
  H   H591      1.0  0.03951  0.56381  0.57963  1.0000
  S   S156      1.0  0.21821  0.61727  0.46363  1.0000
  H   H592      1.0  0.18040  0.56989  0.40067  1.0000
  C   C374      1.0  0.15067  0.50468  0.64592  1.0000
  C   C375      1.0  0.16367  0.95956  0.35138  1.0000
  C   C376      1.0  0.01171  0.77606  0.52792  1.0000
  H   H593      1.0  0.16003  0.92861  0.47113  1.0000
  C   C377      1.0  0.04460  0.79016  0.33085  1.0000
  C   C378      1.0  0.02388  0.72465  0.45316  1.0000
  H   H594      1.0  0.21175  0.87269  0.63221  1.0000
  H   H595      1.0  0.02158  0.50885  0.33939  1.0000
  C   C379      1.0  0.20704  0.52360  0.55202  1.0000
  C   C380      1.0  0.13377  0.57086  0.42920  1.0000
  H   H596      1.0  0.20746  0.80106  0.57416  1.0000
  C   C381      1.0  0.16301  0.54480  0.43143  1.0000
  H   H597      1.0  0.15472  0.70183  0.43328  1.0000
  H   H598      1.0  0.14776  0.67711  0.44123  1.0000
  C   C382      1.0  0.16362  0.57297  0.40394  1.0000
  H   H599      1.0  0.13279  0.66645  0.47657  1.0000
  H   H600      1.0  0.23360  0.54955  0.54001  1.0000
  H   H601      1.0  0.14854  0.72568  0.45785  1.0000
  H   H602      1.0  0.22221  0.58791  0.55480  1.0000
  N   N39       1.0  0.22765  0.51963  0.54057  1.0000
  C   C383      1.0  0.23194  0.53012  0.44589  1.0000
  C   C384      1.0  0.02548  0.52208  0.34424  1.0000
  N   N40       1.0  0.23518  0.80756  0.55511  1.0000
  H   H603      1.0  0.07646  0.56600  0.61211  1.0000
  H   H604      1.0  0.22651  0.92959  0.63681  1.0000
  H   H605      1.0  0.12748  0.56644  0.44542  1.0000
  H   H606      1.0  0.03876  0.72339  0.44311  1.0000
  H   H607      1.0  0.23694  0.51804  0.45750  1.0000
  H   H608      1.0  0.12400  0.81757  0.34726  1.0000
  H   H609      1.0  0.15141  0.94925  0.32895  1.0000
  H   H610      1.0  0.04007  0.52526  0.33480  1.0000
  H   H611      1.0  0.16536  0.50847  0.63906  1.0000
  H   H612      1.0  0.19724  0.51344  0.54938  1.0000
  H   H613      1.0  0.09310  0.98592  0.56861  1.0000
  C   C385      1.0  0.15739  0.92203  0.63304  1.0000
  H   H614      1.0  0.03738  0.81524  0.49033  1.0000
  C   C386      1.0  0.24004  0.78720  0.54925  1.0000
  H   H615      1.0  0.23558  0.77535  0.56214  1.0000
  H   H616      1.0  0.19971  0.53950  0.54759  1.0000
  H   H617      1.0  0.22257  0.58150  0.43522  1.0000
  C   C387      1.0  0.03079  0.68957  0.46839  1.0000
  C   C388      1.0  0.99473  0.58895  0.39147  1.0000
  H   H618      1.0  0.23424  0.82294  0.52460  1.0000
  H   H619      1.0  0.10873  0.96360  0.56063  1.0000
  C   C389      1.0  0.01514  0.55707  0.34869  1.0000
  H   H620      1.0  0.20475  0.81351  0.54887  1.0000
  H   H621      1.0  0.99783  0.71207  0.48596  1.0000
  H   H622      1.0  0.00593  0.80756  0.35702  1.0000
  C   C390      1.0  0.99655  0.70738  0.47160  1.0000
  H   H623      1.0  0.11573  0.97518  0.57915  1.0000
  C   C391      1.0  0.11410  0.51200  0.64840  1.0000
  H   H624      1.0  0.15734  0.98538  0.47328  1.0000
  H   H625      1.0  0.08915  0.83208  0.32107  1.0000
  C   C392      1.0  0.24007  0.53341  0.54466  1.0000
  H   H626      1.0  0.12084  0.87060  0.32065  1.0000
  H   H627      1.0  0.99763  0.60730  0.48056  1.0000
  H   H628      1.0  0.99455  0.61996  0.37718  1.0000
  H   H629      1.0  0.23772  0.49537  0.56343  1.0000
  H   H630      1.0  0.24103  0.53123  0.56106  1.0000
  S   S157      1.0  0.99357  0.65110  0.47108  1.0000
  H   H631      1.0  0.24203  0.52080  0.50946  1.0000
  C   C393      1.0  0.24187  0.82265  0.53766  1.0000
  H   H632      1.0  0.24091  0.79682  0.58555  1.0000
  H   H633      1.0  0.05331  0.84101  0.66686  1.0000
  S   S158      1.0  0.16438  0.93489  0.66623  1.0000
  H   H634      1.0  0.05388  0.76017  0.89984  1.0000
  C   C394      1.0  0.21394  0.89554  0.65957  1.0000
  S   S159      1.0  0.03111  0.70194  0.87382  1.0000
  C   C395      1.0  0.06062  0.76525  0.88390  1.0000
  C   C396      1.0  0.12395  0.90437  0.65307  1.0000
  S   S160      1.0  0.01820  0.74049  0.89846  1.0000
  H   H635      1.0  0.05479  0.49981  0.76080  1.0000
  Fe  Fe78      1.0  0.01721  0.73483  0.86733  1.0000
  S   S161      1.0  0.03255  0.75628  0.84180  1.0000
  Fe  Fe79      1.0  0.02961  0.70737  0.90551  1.0000
  S   S162      1.0  0.05497  0.69261  0.92298  1.0000
  N   N41       1.0  0.14504  0.92460  0.79571  1.0000
  C   C397      1.0  0.14703  0.94609  0.79398  1.0000
  C   C398      1.0  0.07097  0.73086  0.87755  1.0000
  S   S163      1.0  0.06346  0.86594  0.71941  1.0000
  H   H636      1.0  0.18396  0.83597  0.96323  1.0000
  Fe  Fe80      1.0  0.16043  0.95795  0.73379  1.0000
  S   S164      1.0  0.16198  0.97369  0.70142  1.0000
  S   S165      1.0  0.18690  0.95169  0.75150  1.0000
  Fe  Fe81      1.0  0.11932  0.94638  0.73381  1.0000
  S   S166      1.0  0.11785  0.96097  0.70178  1.0000
  S   S167      1.0  0.09230  0.93415  0.75309  1.0000
  Fe  Fe82      1.0  0.15033  0.94708  0.69536  1.0000
  H   H637      1.0  0.23043  0.93856  0.91388  1.0000
  H   H638      1.0  0.17730  0.91569  0.78969  1.0000
  S   S168      1.0  0.15108  0.93019  0.72703  1.0000
  S   S169      1.0  0.12843  0.97271  0.74313  1.0000
  H   H639      1.0  0.03340  0.97528  0.76781  1.0000
  C   C399      1.0  0.13354  0.91476  0.66348  1.0000
  Fe  Fe83      1.0  0.02901  0.54061  0.69039  1.0000
  S   S170      1.0  0.02390  0.55798  0.71628  1.0000
  Fe  Fe84      1.0  0.03442  0.57267  0.83626  1.0000
  S   S171      1.0  0.06330  0.55043  0.83523  1.0000
  S   S172      1.0  0.03829  0.60542  0.82726  1.0000
  Fe  Fe85      1.0  0.00838  0.53959  0.84952  1.0000
  S   S173      1.0  0.03506  0.51492  0.84981  1.0000
  H   H640      1.0  0.10170  0.70289  0.96473  1.0000
  Fe  Fe86      1.0  0.04820  0.53471  0.86455  1.0000
  H   H641      1.0  0.12891  0.92313  0.82611  1.0000
  Fe  Fe87      1.0  0.04737  0.53285  0.82051  1.0000
  S   S174      1.0  0.06055  0.51581  0.79470  1.0000
  S   S175      1.0  0.02039  0.55827  0.86678  1.0000
  S   S176      1.0  0.01963  0.55630  0.81908  1.0000
  S   S177      1.0  0.00378  0.53263  0.67825  1.0000
  H   H642      1.0  0.08214  0.50941  0.72478  1.0000
  C   C400      1.0  0.03540  0.54618  0.73726  1.0000
  C   C401      1.0  0.04188  0.52527  0.74059  1.0000
  C   C402      1.0  0.05011  0.51605  0.75804  1.0000
  C   C403      1.0  0.05157  0.52768  0.77234  1.0000
  C   C404      1.0  0.04533  0.54861  0.76888  1.0000
  C   C405      1.0  0.03735  0.55785  0.75132  1.0000
  H   H643      1.0  0.03995  0.51609  0.73011  1.0000
  H   H644      1.0  0.10811  0.53545  0.73709  1.0000
  H   H645      1.0  0.04684  0.55773  0.77966  1.0000
  H   H646      1.0  0.03251  0.57407  0.74873  1.0000
  C   C406      1.0  0.19312  0.96440  0.76942  1.0000
  H   H647      1.0  0.04845  0.76774  0.87451  1.0000
  H   H648      1.0  0.22194  0.90336  0.66773  1.0000
  H   H649      1.0  0.21216  0.94598  0.93488  1.0000
  C   C407      1.0  0.21597  0.96558  0.79271  1.0000
  C   C408      1.0  0.21056  0.95630  0.77819  1.0000
  H   H650      1.0  0.22365  0.96483  0.91643  1.0000
  S   S178      1.0  0.00258  0.84226  0.67281  1.0000
  H   H651      1.0  0.22003  0.94279  0.77364  1.0000
  H   H652      1.0  0.13349  0.95477  0.80215  1.0000
  H   H653      1.0  0.09184  0.77241  0.85439  1.0000
  H   H654      1.0  0.12807  0.91568  0.67929  1.0000
  C   C409      1.0  0.07067  0.88566  0.72832  1.0000
  C   C410      1.0  0.08933  0.89183  0.71981  1.0000
  C   C411      1.0  0.09585  0.90701  0.72704  1.0000
  C   C412      1.0  0.08390  0.91584  0.74311  1.0000
  C   C413      1.0  0.06517  0.90980  0.75154  1.0000
  C   C414      1.0  0.05846  0.89489  0.74403  1.0000
  H   H655      1.0  0.09884  0.88476  0.70765  1.0000
  H   H656      1.0  0.11030  0.91157  0.72041  1.0000
  H   H657      1.0  0.05586  0.91653  0.76400  1.0000
  H   H658      1.0  0.04408  0.89018  0.75071  1.0000
  C   C415      1.0  0.01969  0.77102  0.82239  1.0000
  H   H659      1.0  0.03680  0.86487  0.66559  1.0000
  S   S179      1.0  0.99882  0.69915  0.91624  1.0000
  H   H660      1.0  0.06384  0.72510  0.89309  1.0000
  C   C416      1.0  0.01946  0.79751  0.79256  1.0000
  C   C417      1.0  0.02915  0.78568  0.80833  1.0000
  H   H661      1.0  0.08780  0.53340  0.68225  1.0000
  H   H662      1.0  0.02689  0.80874  0.78184  1.0000
  H   H663      1.0  0.04404  0.78792  0.80964  1.0000
  N   N42       1.0  0.06842  0.86707  0.65806  1.0000
  H   H664      1.0  0.09762  0.49167  0.67066  1.0000
  C   C418      1.0  0.06512  0.88813  0.66195  1.0000
  C   C419      1.0  0.02358  0.62300  0.84211  1.0000
  C   C420      1.0  0.02972  0.64173  0.84089  1.0000
  C   C421      1.0  0.01852  0.65589  0.85292  1.0000
  H   H665      1.0  0.00821  0.52933  0.79163  1.0000
  H   H666      1.0  0.11107  0.89747  0.66100  1.0000
  H   H667      1.0  0.04318  0.64531  0.83061  1.0000
  H   H668      1.0  0.02328  0.67035  0.85179  1.0000
  H   H669      1.0  0.08739  0.74115  0.90585  1.0000
  C   C422      1.0  0.06429  0.70716  0.93676  1.0000
  C   C423      1.0  0.05580  0.72738  0.93771  1.0000
  C   C424      1.0  0.06406  0.73884  0.94813  1.0000
  C   C425      1.0  0.08061  0.73007  0.95795  1.0000
  C   C426      1.0  0.08890  0.70977  0.95726  1.0000
  C   C427      1.0  0.08081  0.69839  0.94660  1.0000
  H   H670      1.0  0.04282  0.73415  0.93056  1.0000
  H   H671      1.0  0.05748  0.75449  0.94880  1.0000
  C   C428      1.0  0.23716  0.96157  0.95145  1.0000
  H   H672      1.0  0.08745  0.68276  0.94593  1.0000
  Fe  Fe88      1.0  0.00095  0.85140  0.70340  1.0000
  C   C429      1.0  0.11235  0.49543  0.66388  1.0000
  N   N43       1.0  0.07788  0.75027  0.87675  1.0000
  H   H673      1.0  0.22947  0.95920  0.79922  1.0000
  H   H674      1.0  0.16045  0.94772  0.80018  1.0000
  C   C430      1.0  0.99476  0.63278  0.86713  1.0000
  H   H675      1.0  0.00445  0.78589  0.71077  1.0000
  C   C431      1.0  0.22536  0.81226  0.93550  1.0000
  C   C432      1.0  0.04859  0.97339  0.75831  1.0000
  H   H676      1.0  0.08187  0.54243  0.73509  1.0000
  S   S180      1.0  0.14434  0.71309  0.97924  1.0000
  H   H677      1.0  0.17625  0.80670  0.95213  1.0000
  H   H678      1.0  0.20703  0.82227  0.97079  1.0000
  H   H679      1.0  0.16508  0.91977  0.76807  1.0000
  H   H680      1.0  0.12870  0.93019  0.77079  1.0000
  H   H681      1.0  0.19748  0.90110  0.66352  1.0000
  Fe  Fe89      1.0  0.99918  0.69626  0.88401  1.0000
  H   H682      1.0  0.12422  0.52401  0.68457  1.0000
  H   H683      1.0  0.14675  0.49743  0.97584  1.0000
  C   C433      1.0  0.00609  0.61851  0.85529  1.0000
  C   C434      1.0  0.19274  0.80190  0.94763  1.0000
  C   C435      1.0  0.09769  0.51034  0.71651  1.0000
  N   N44       1.0  0.20353  0.81948  0.94103  1.0000
  C   C436      1.0  0.07095  0.98708  0.72923  1.0000
  H   H684      1.0  0.08746  0.85609  0.68078  1.0000
  H   H685      1.0  0.10670  0.73593  0.88490  1.0000
  H   H686      1.0  0.05960  0.73252  0.86746  1.0000
  H   H687      1.0  0.13288  0.52443  0.70758  1.0000
  H   H688      1.0  0.17945  0.83847  0.92708  1.0000
  H   H689      1.0  0.16761  0.98838  0.76888  1.0000
  C   C437      1.0  0.08642  0.75778  0.85565  1.0000
  H   H690      1.0  0.08363  0.71895  0.87287  1.0000
  H   H691      1.0  0.19829  0.79182  0.96097  1.0000
  H   H692      1.0  0.10838  0.50249  0.72699  1.0000
  H   H693      1.0  0.23403  0.82514  0.93091  1.0000
  N   N45       1.0  0.05726  0.59415  0.88998  1.0000
  C   C438      1.0  0.05659  0.57427  0.90313  1.0000
  C   C439      1.0  0.07185  0.60459  0.89568  1.0000
  C   C440      1.0  0.06358  0.59112  0.86869  1.0000
  H   H694      1.0  0.07149  0.56420  0.90137  1.0000
  H   H695      1.0  0.05217  0.57584  0.91937  1.0000
  H   H696      1.0  0.04552  0.56613  0.89934  1.0000
  H   H697      1.0  0.08730  0.59558  0.89406  1.0000
  H   H698      1.0  0.06751  0.60721  0.91165  1.0000
  H   H699      1.0  0.07267  0.61964  0.88597  1.0000
  H   H700      1.0  0.05287  0.58334  0.86391  1.0000
  H   H701      1.0  0.07874  0.58166  0.86627  1.0000
  H   H702      1.0  0.23162  0.80210  0.94844  1.0000
  N   N46       1.0  0.10062  0.53157  0.70903  1.0000
  C   C441      1.0  0.08598  0.54141  0.69537  1.0000
  C   C442      1.0  0.99698  0.52730  0.78265  1.0000
  C   C443      1.0  0.12138  0.53199  0.69787  1.0000
  H   H703      1.0  0.12422  0.54776  0.69206  1.0000
  Fe  Fe90      1.0  0.02510  0.50361  0.67495  1.0000
  H   H704      1.0  0.19793  0.82415  0.91045  1.0000
  C   C444      1.0  0.07249  0.49833  0.89742  1.0000
  H   H705      1.0  0.22845  0.80363  0.92269  1.0000
  C   C445      1.0  0.16336  0.91382  0.78456  1.0000
  C   C446      1.0  0.05159  0.85683  0.66965  1.0000
  C   C447      1.0  0.15048  0.92344  0.65351  1.0000
  H   H706      1.0  0.06521  0.78017  0.88323  1.0000
  H   H707      1.0  0.14901  0.95360  0.77793  1.0000
  Fe  Fe91      1.0  0.12927  0.98625  0.71035  1.0000
  C   C448      1.0  0.22654  0.94919  0.92504  1.0000
  H   H708      1.0  0.00507  0.52605  0.76707  1.0000
  S   S181      1.0  0.04300  0.55524  0.66010  1.0000
  C   C449      1.0  0.09741  0.54250  0.72638  1.0000
  H   H709      1.0  0.20735  0.84517  0.95307  1.0000
  C   C450      1.0  0.00096  0.65148  0.86601  1.0000
  S   S182      1.0  0.23468  0.86925  0.92689  1.0000
  C   C451      1.0  0.20392  0.98310  0.79875  1.0000
  H   H710      1.0  0.03782  0.97577  0.72208  1.0000
  H   H711      1.0  0.07927  0.50007  0.92650  1.0000
  H   H712      1.0  0.05106  0.95848  0.75307  1.0000
  H   H713      1.0  0.20388  0.84583  0.91803  1.0000
  H   H714      1.0  0.02586  0.48983  0.89191  1.0000
  H   H715      1.0  0.09882  0.76146  0.88995  1.0000
  H   H716      1.0  0.10013  0.50158  0.70387  1.0000
  H   H717      1.0  0.23230  0.92242  0.95889  1.0000
  S   S183      1.0  0.04957  0.51087  0.68894  1.0000
  H   H718      1.0  0.08793  0.55738  0.68920  1.0000
  H   H719      1.0  0.15582  0.91598  0.82415  1.0000
  C   C452      1.0  0.03701  0.60663  0.89236  1.0000
  H   H720      1.0  0.03173  0.60936  0.90821  1.0000
  H   H721      1.0  0.06472  0.88859  0.67825  1.0000
  H   H722      1.0  0.06819  0.49174  0.86914  1.0000
  H   H723      1.0  0.19486  0.79256  0.93547  1.0000
  S   S184      1.0  0.02340  0.83206  0.72192  1.0000
  H   H724      1.0  0.03691  0.62170  0.88251  1.0000
  H   H725      1.0  0.02563  0.59919  0.88818  1.0000
  H   H726      1.0  0.07014  0.54164  0.70333  1.0000
  H   H727      1.0  0.11306  0.93128  0.79489  1.0000
  Fe  Fe92      1.0  0.03079  0.86135  0.72663  1.0000
  S   S185      1.0  0.00821  0.86283  0.75521  1.0000
  C   C453      1.0  0.24002  0.90089  0.89609  1.0000
  H   H728      1.0  0.09930  0.74674  0.84964  1.0000
  H   H729      1.0  0.09943  0.55861  0.72134  1.0000
  H   H730      1.0  0.16289  0.89736  0.78635  1.0000
  C   C454      1.0  0.18103  0.98188  0.77548  1.0000
  H   H731      1.0  0.05064  0.85616  0.68619  1.0000
  S   S186      1.0  0.23510  0.97228  0.86636  1.0000
  C   C455      1.0  0.12724  0.92325  0.78703  1.0000
  C   C456      1.0  0.20027  0.83126  0.95772  1.0000
  C   C457      1.0  0.09342  0.74711  0.88988  1.0000
  H   H732      1.0  0.07486  0.76034  0.84552  1.0000
  Fe  Fe93      1.0  0.99884  0.83519  0.74870  1.0000
  H   H733      1.0  0.14087  0.89906  0.81915  1.0000
  H   H734      1.0  0.00505  0.50877  0.82917  1.0000
  H   H735      1.0  0.99895  0.56608  0.78200  1.0000
  H   H736      1.0  0.21656  0.87908  0.66564  1.0000
  H   H737      1.0  0.00376  0.49514  0.87991  1.0000
  S   S187      1.0  0.01011  0.88052  0.70617  1.0000
  H   H738      1.0  0.06006  0.97245  0.76816  1.0000
  C   C458      1.0  0.14254  0.91526  0.81726  1.0000
  H   H739      1.0  0.12526  0.90727  0.78788  1.0000
  S   S188      1.0  0.06289  0.52435  0.89236  1.0000
  C   C459      1.0  0.08762  0.85622  0.66440  1.0000
  H   H740      1.0  0.06410  0.60579  0.85822  1.0000
  S   S189      1.0  0.09087  0.74488  0.97061  1.0000
  H   H741      1.0  0.22435  0.90145  0.89502  1.0000
  H   H742      1.0  0.07442  0.97228  0.72367  1.0000
  C   C460      1.0  0.00045  0.76825  0.82052  1.0000
  Fe  Fe94      1.0  0.06152  0.52479  0.65736  1.0000
  Fe  Fe95      1.0  0.23659  0.98931  0.83436  1.0000
  C   C461      1.0  0.19581  0.83253  0.92334  1.0000
  S   S190      1.0  0.22136  0.86890  0.98292  1.0000
  H   H743      1.0  0.00116  0.60419  0.85617  1.0000
  H   H744      1.0  0.10065  0.86352  0.65582  1.0000
  H   H745      1.0  0.08262  0.98716  0.73852  1.0000
  C   C462      1.0  0.00028  0.79461  0.79062  1.0000
  S   S191      1.0  0.22312  0.49276  0.66022  1.0000
  H   H746      1.0  0.23462  0.97749  0.94341  1.0000
  H   H747      1.0  0.09058  0.84023  0.66187  1.0000
  H   H748      1.0  0.22303  0.95884  0.96204  1.0000
  H   H749      1.0  0.99678  0.80137  0.73017  1.0000
  H   H750      1.0  0.05056  0.89670  0.65778  1.0000
  H   H751      1.0  0.99472  0.56340  0.75760  1.0000
  C   C463      1.0  0.07957  0.49026  0.91571  1.0000
  H   H752      1.0  0.99303  0.75700  0.83121  1.0000
  H   H753      1.0  0.07742  0.89637  0.65311  1.0000
  S   S192      1.0  0.41568  0.43824  0.28197  1.0000
  Fe  Fe96      1.0  0.47445  0.34644  0.24118  1.0000
  H   H754      1.0  0.29587  0.46529  0.06478  1.0000
  S   S193      1.0  0.44072  0.35560  0.24815  1.0000
  H   H755      1.0  0.44284  0.35082  0.99924  1.0000
  H   H756      1.0  0.49080  0.42651  0.24692  1.0000
  C   C464      1.0  0.38301  0.14795  0.98680  1.0000
  Fe  Fe97      1.0  0.33815  0.48207  0.06520  1.0000
  H   H757      1.0  0.30308  0.05366  0.02266  1.0000
  S   S194      1.0  0.35800  0.34468  0.98871  1.0000
  H   H758      1.0  0.41160  0.31311  0.99480  1.0000
  H   H759      1.0  0.39059  0.40387  0.09753  1.0000
  H   H760      1.0  0.30828  0.47783  0.99968  1.0000
  H   H761      1.0  0.41599  0.40723  0.08611  1.0000
  H   H762      1.0  0.45772  0.37271  0.27531  1.0000
  Fe  Fe98      1.0  0.44831  0.30405  0.10151  1.0000
  S   S195      1.0  0.42447  0.29889  0.08502  1.0000
  S   S196      1.0  0.44732  0.29761  0.13545  1.0000
  Fe  Fe99      1.0  0.47472  0.31939  0.06321  1.0000
  S   S197      1.0  0.45374  0.31562  0.04331  1.0000
  H   H763      1.0  0.38876  0.14445  0.00147  1.0000
  Fe  Fe100     1.0  0.42911  0.32900  0.06594  1.0000
  S   S198      1.0  0.40620  0.35565  0.05520  1.0000
  Fe  Fe101     1.0  0.45090  0.28583  0.06346  1.0000
  S   S199      1.0  0.45484  0.26009  0.04569  1.0000
  S   S200      1.0  0.45052  0.33524  0.08432  1.0000
  S   S201      1.0  0.47420  0.28850  0.08147  1.0000
  Fe  Fe102     1.0  0.38239  0.13525  0.05287  1.0000
  S   S202      1.0  0.39611  0.13305  0.08075  1.0000
  S   S203      1.0  0.34986  0.13224  0.05328  1.0000
  Fe  Fe103     1.0  0.42004  0.14602  0.02527  1.0000
  S   S204      1.0  0.43755  0.14439  0.05033  1.0000
  H   H764      1.0  0.40749  0.04632  0.12237  1.0000
  Fe  Fe104     1.0  0.42386  0.11637  0.06402  1.0000
  S   S205      1.0  0.43902  0.08812  0.08222  1.0000
  Fe  Fe105     1.0  0.40889  0.16113  0.06533  1.0000
  S   S206      1.0  0.40879  0.18550  0.08360  1.0000
  S   S207      1.0  0.40911  0.11634  0.03724  1.0000
  S   S208      1.0  0.39241  0.16504  0.03923  1.0000
  C   C465      1.0  0.44189  0.23947  0.05634  1.0000
  C   C466      1.0  0.43065  0.23823  0.07582  1.0000
  C   C467      1.0  0.42053  0.22163  0.08396  1.0000
  C   C468      1.0  0.42145  0.20624  0.07265  1.0000
  C   C469      1.0  0.43276  0.20742  0.05319  1.0000
  C   C470      1.0  0.44299  0.22397  0.04509  1.0000
  H   H765      1.0  0.42972  0.25006  0.08463  1.0000
  H   H766      1.0  0.41181  0.22082  0.09901  1.0000
  H   H767      1.0  0.43358  0.19564  0.04436  1.0000
  H   H768      1.0  0.45165  0.22482  0.03001  1.0000
  H   H769      1.0  0.33161  0.46483  0.30392  1.0000
  H   H770      1.0  0.24898  0.44361  0.08804  1.0000
  C   C471      1.0  0.26415  0.47577  0.04556  1.0000
  N   N47       1.0  0.48464  0.99091  0.23901  1.0000
  H   H771      1.0  0.46066  0.46551  0.21314  1.0000
  H   H772      1.0  0.47482  0.34820  0.02577  1.0000
  H   H773      1.0  0.42914  0.99247  0.11920  1.0000
  H   H774      1.0  0.47244  0.13262  0.12953  1.0000
  H   H775      1.0  0.28124  0.06736  0.03620  1.0000
  H   H776      1.0  0.43868  0.17838  0.10908  1.0000
  C   C472      1.0  0.46469  0.12945  0.99722  1.0000
  C   C473      1.0  0.29797  0.06577  0.03221  1.0000
  H   H777      1.0  0.45667  0.12349  0.01174  1.0000
  C   C474      1.0  0.36935  0.34817  0.00858  1.0000
  C   C475      1.0  0.37826  0.33111  0.02075  1.0000
  C   C476      1.0  0.38911  0.33324  0.03549  1.0000
  C   C477      1.0  0.39119  0.35252  0.03809  1.0000
  C   C478      1.0  0.38188  0.36964  0.02623  1.0000
  C   C479      1.0  0.37095  0.36749  0.01153  1.0000
  S   S209      1.0  0.43004  0.15626  0.99223  1.0000
  H   H778      1.0  0.39606  0.31996  0.04468  1.0000
  H   H779      1.0  0.38354  0.38461  0.02795  1.0000
  H   H780      1.0  0.36417  0.38072  0.00216  1.0000
  C   C480      1.0  0.44930  0.42909  0.22546  1.0000
  C   C481      1.0  0.32697  0.42820  0.01335  1.0000
  C   C482      1.0  0.33311  0.42947  0.03152  1.0000
  N   N48       1.0  0.26703  0.45872  0.06230  1.0000
  H   H781      1.0  0.33949  0.41581  0.04057  1.0000
  C   C483      1.0  0.46940  0.00682  0.23021  1.0000
  H   H782      1.0  0.45695  0.01197  0.24213  1.0000
  C   C484      1.0  0.47255  0.07412  0.10034  1.0000
  C   C485      1.0  0.46420  0.08780  0.08482  1.0000
  C   C486      1.0  0.47580  0.10137  0.07202  1.0000
  H   H783      1.0  0.42765  0.05133  0.13311  1.0000
  H   H784      1.0  0.29249  0.01158  0.02686  1.0000
  H   H785      1.0  0.46368  0.06357  0.11028  1.0000
  H   H786      1.0  0.46972  0.11156  0.05968  1.0000
  H   H787      1.0  0.32896  0.41370  0.00839  1.0000
  C   C487      1.0  0.33200  0.10762  0.00249  1.0000
  C   C488      1.0  0.31738  0.11833  0.01554  1.0000
  C   C489      1.0  0.32302  0.12556  0.03124  1.0000
  C   C490      1.0  0.34329  0.12231  0.03388  1.0000
  C   C491      1.0  0.35788  0.11154  0.02088  1.0000
  C   C492      1.0  0.35224  0.10422  0.00524  1.0000
  H   H788      1.0  0.30175  0.12116  0.01349  1.0000
  H   H789      1.0  0.31166  0.13398  0.04121  1.0000
  H   H790      1.0  0.37350  0.10874  0.02291  1.0000
  H   H791      1.0  0.45322  0.16821  0.07586  1.0000
  H   H792      1.0  0.31562  0.47009  0.20608  1.0000
  H   H793      1.0  0.43736  0.43400  0.23786  1.0000
  H   H794      1.0  0.45030  0.41243  0.22660  1.0000
  C   C493      1.0  0.46640  0.30548  0.14477  1.0000
  C   C494      1.0  0.46902  0.29867  0.16499  1.0000
  H   H795      1.0  0.37866  0.39139  0.06250  1.0000
  H   H796      1.0  0.28621  0.04201  0.06699  1.0000
  H   H797      1.0  0.46247  0.00118  0.21933  1.0000
  H   H798      1.0  0.46018  0.28772  0.17431  1.0000
  H   H799      1.0  0.47346  0.26830  0.31373  1.0000
  C   C495      1.0  0.43318  0.37805  0.25844  1.0000
  C   C496      1.0  0.41578  0.39126  0.25358  1.0000
  C   C497      1.0  0.41001  0.40965  0.26108  1.0000
  C   C498      1.0  0.42132  0.41456  0.27393  1.0000
  C   C499      1.0  0.43832  0.40103  0.27930  1.0000
  C   C500      1.0  0.44447  0.38298  0.27125  1.0000
  H   H800      1.0  0.40694  0.38744  0.24376  1.0000
  H   H801      1.0  0.39687  0.42004  0.25689  1.0000
  H   H802      1.0  0.44700  0.40470  0.28938  1.0000
  C   C501      1.0  0.27827  0.01831  0.03478  1.0000
  C   C502      1.0  0.25316  0.01880  0.06502  1.0000
  H   H803      1.0  0.36361  0.09579  0.99531  1.0000
  H   H804      1.0  0.35518  0.45250  0.16652  1.0000
  H   H805      1.0  0.44651  0.16345  0.13168  1.0000
  H   H806      1.0  0.29000  0.44116  0.04368  1.0000
  C   C503      1.0  0.42477  0.00910  0.11495  1.0000
  H   H807      1.0  0.46847  0.01787  0.17953  1.0000
  H   H808      1.0  0.48241  0.28412  0.01571  1.0000
  C   C504      1.0  0.35885  0.47689  0.18070  1.0000
  H   H809      1.0  0.47720  0.35240  0.98850  1.0000
  S   S210      1.0  0.36365  0.45974  0.25978  1.0000
  H   H810      1.0  0.30346  0.09221  0.05429  1.0000
  H   H811      1.0  0.42289  0.02194  0.16107  1.0000
  H   H812      1.0  0.31971  0.47246  0.25887  1.0000
  H   H813      1.0  0.28344  0.07877  0.06771  1.0000
  H   H814      1.0  0.30161  0.08017  0.02264  1.0000
  H   H815      1.0  0.46065  0.02019  0.11414  1.0000
  H   H816      1.0  0.30847  0.02887  0.05366  1.0000
  C   C505      1.0  0.42397  0.04231  0.12276  1.0000
  H   H817      1.0  0.27510  0.47662  0.08131  1.0000
  S   S211      1.0  0.48896  0.31629  0.23204  1.0000
  H   H818      1.0  0.30717  0.07430  0.07675  1.0000
  C   C506      1.0  0.46597  0.15857  0.08285  1.0000
  S   S212      1.0  0.33877  0.44994  0.06056  1.0000
  H   H819      1.0  0.24803  0.01264  0.08060  1.0000
  H   H820      1.0  0.29279  0.48807  0.20533  1.0000
  C   C507      1.0  0.35417  0.46871  0.16513  1.0000
  C   C508      1.0  0.31535  0.46430  0.00843  1.0000
  Fe  Fe106     1.0  0.37387  0.47353  0.22760  1.0000
  C   C509      1.0  0.32149  0.46553  0.02650  1.0000
  Fe  Fe107     1.0  0.39456  0.46178  0.26490  1.0000
  S   S213      1.0  0.36543  0.46062  0.20272  1.0000
  C   C510      1.0  0.45194  0.01582  0.12942  1.0000
  N   N49       1.0  0.45943  0.15107  0.10448  1.0000
  C   C511      1.0  0.34805  0.48143  0.14780  1.0000
  H   H821      1.0  0.25331  0.47348  0.03632  1.0000
  H   H822      1.0  0.33760  0.05578  0.05787  1.0000
  H   H823      1.0  0.44840  0.12578  0.09826  1.0000
  C   C512      1.0  0.45174  0.16848  0.11533  1.0000
  N   N50       1.0  0.42995  0.02033  0.12922  1.0000
  H   H824      1.0  0.30758  0.45442  0.25179  1.0000
  H   H825      1.0  0.46350  0.17810  0.11402  1.0000
  H   H826      1.0  0.28436  0.44997  0.08667  1.0000
  H   H827      1.0  0.40244  0.01741  0.15025  1.0000
  C   C513      1.0  0.30117  0.47594  0.21543  1.0000
  C   C514      1.0  0.27537  0.43988  0.05388  1.0000
  S   S214      1.0  0.40564  0.47242  0.23227  1.0000
  H   H828      1.0  0.47810  0.16793  0.08069  1.0000
  C   C515      1.0  0.47676  0.13840  0.11317  1.0000
  C   C516      1.0  0.41908  0.01412  0.14975  1.0000
  C   C517      1.0  0.33079  0.44826  0.03793  1.0000
  C   C518      1.0  0.48470  0.12087  0.99091  1.0000
  H   H829      1.0  0.34433  0.47505  0.13594  1.0000
  H   H830      1.0  0.42585  0.33432  0.01312  1.0000
  H   H831      1.0  0.40822  0.01183  0.11476  1.0000
  H   H832      1.0  0.44399  0.43653  0.21101  1.0000
  H   H833      1.0  0.42306  0.99757  0.15496  1.0000
  S   S215      1.0  0.30759  0.38523  0.98894  1.0000
  C   C519      1.0  0.31629  0.46708  0.24570  1.0000
  H   H834      1.0  0.27198  0.04120  0.00947  1.0000
  H   H835      1.0  0.45697  0.99943  0.13452  1.0000
  H   H836      1.0  0.33089  0.46075  0.23701  1.0000
  C   C520      1.0  0.26678  0.03524  0.02497  1.0000
  S   S216      1.0  0.48897  0.36433  0.21310  1.0000
  H   H837      1.0  0.46497  0.42744  0.25930  1.0000
  C   C521      1.0  0.31610  0.47150  0.30843  1.0000
  H   H838      1.0  0.37687  0.31613  0.01867  1.0000
  N   N51       1.0  0.30766  0.06104  0.05049  1.0000
  H   H839      1.0  0.48118  0.00303  0.26660  1.0000
  S   S217      1.0  0.26485  0.11092  0.00049  1.0000
  N   N52       1.0  0.43409  0.34762  0.19201  1.0000
  C   C522      1.0  0.43561  0.34410  0.17103  1.0000
  C   C523      1.0  0.44831  0.33190  0.20248  1.0000
  C   C524      1.0  0.41332  0.34664  0.20288  1.0000
  C   C525      1.0  0.43920  0.36779  0.19167  1.0000
  H   H840      1.0  0.42520  0.35569  0.16255  1.0000
  H   H841      1.0  0.43188  0.32899  0.17062  1.0000
  H   H842      1.0  0.45121  0.34452  0.16256  1.0000
  H   H843      1.0  0.44641  0.31641  0.20113  1.0000
  H   H844      1.0  0.46423  0.33382  0.19634  1.0000
  H   H845      1.0  0.44606  0.33251  0.21888  1.0000
  H   H846      1.0  0.41177  0.34940  0.21874  1.0000
  H   H847      1.0  0.40916  0.33148  0.20366  1.0000
  H   H848      1.0  0.40211  0.35817  0.19536  1.0000
  H   H849      1.0  0.43837  0.37085  0.20726  1.0000
  H   H850      1.0  0.42870  0.38005  0.18400  1.0000
  H   H851      1.0  0.45484  0.36897  0.18363  1.0000
  H   H852      1.0  0.27815  0.42672  0.06602  1.0000
  H   H853      1.0  0.26500  0.43629  0.04485  1.0000
  H   H854      1.0  0.30963  0.03753  0.07648  1.0000
  C   C526      1.0  0.32977  0.05955  0.04445  1.0000
  C   C527      1.0  0.28117  0.46279  0.07432  1.0000
  H   H855      1.0  0.27624  0.47940  0.25094  1.0000
  C   C528      1.0  0.27165  0.01021  0.05488  1.0000
  H   H856      1.0  0.38815  0.18179  0.99835  1.0000
  H   H857      1.0  0.33591  0.04763  0.03481  1.0000
  H   H858      1.0  0.37068  0.41600  0.04890  1.0000
  H   H859      1.0  0.47647  0.32450  0.11707  1.0000
  H   H860      1.0  0.44670  0.30432  0.00136  1.0000
  C   C529      1.0  0.30009  0.07730  0.06287  1.0000
  H   H861      1.0  0.46521  0.31977  0.98809  1.0000
  C   C530      1.0  0.30280  0.04157  0.06243  1.0000
  N   N53       1.0  0.39451  0.41473  0.06556  1.0000
  C   C531      1.0  0.38977  0.43633  0.06788  1.0000
  C   C532      1.0  0.40209  0.40248  0.08370  1.0000
  C   C533      1.0  0.41007  0.41221  0.04751  1.0000
  C   C534      1.0  0.37606  0.40788  0.06309  1.0000
  H   H862      1.0  0.38391  0.44592  0.05442  1.0000
  H   H863      1.0  0.40328  0.44212  0.06983  1.0000
  H   H864      1.0  0.37785  0.43885  0.08119  1.0000
  H   H865      1.0  0.40585  0.38610  0.08227  1.0000
  H   H866      1.0  0.43805  0.13279  0.12262  1.0000
  C   C535      1.0  0.24878  0.04446  0.03530  1.0000
  H   H867      1.0  0.41388  0.39611  0.04524  1.0000
  H   H868      1.0  0.42426  0.41714  0.04888  1.0000
  H   H869      1.0  0.40478  0.42122  0.03355  1.0000
  H   H870      1.0  0.36353  0.41071  0.07580  1.0000
  H   H871      1.0  0.34295  0.18301  0.00129  1.0000
  Fe  Fe108     1.0  0.25357  0.08346  0.99633  1.0000
  H   H872      1.0  0.42987  0.14799  0.10030  1.0000
  H   H873      1.0  0.43245  0.01355  0.09923  1.0000
  H   H874      1.0  0.31844  0.47983  0.03176  1.0000
  H   H875      1.0  0.34350  0.15640  0.00241  1.0000
  C   C536      1.0  0.42997  0.34357  0.99812  1.0000
  C   C537      1.0  0.47821  0.31931  0.13271  1.0000
  H   H876      1.0  0.35866  0.16489  0.01670  1.0000
  H   H877      1.0  0.45631  0.02418  0.13996  1.0000
  C   C538      1.0  0.47860  0.00481  0.17474  1.0000
  C   C539      1.0  0.44326  0.13887  0.10654  1.0000
  C   C540      1.0  0.31821  0.44570  0.00173  1.0000
  N   N54       1.0  0.46880  0.43456  0.22686  1.0000
  H   H878      1.0  0.47187  0.14586  0.07416  1.0000
  C   C541      1.0  0.35298  0.16808  0.00199  1.0000
  H   H879      1.0  0.47619  0.02027  0.22193  1.0000
  H   H880      1.0  0.33397  0.07408  0.03566  1.0000
  N   N55       1.0  0.30503  0.48366  0.23288  1.0000
  H   H881      1.0  0.43190  0.04752  0.10729  1.0000
  H   H882      1.0  0.29223  0.46335  0.22040  1.0000
  C   C542      1.0  0.24743  0.45653  0.07542  1.0000
  H   H883      1.0  0.27860  0.47782  0.03529  1.0000
  H   H884      1.0  0.41692  0.35579  0.99562  1.0000
  C   C543      1.0  0.46618  0.45655  0.22702  1.0000
  H   H885      1.0  0.45487  0.46098  0.24019  1.0000
  C   C544      1.0  0.47575  0.42335  0.24571  1.0000
  H   H886      1.0  0.48275  0.12499  0.10551  1.0000
  C   C545      1.0  0.48925  0.34470  0.01640  1.0000
  H   H887      1.0  0.48907  0.29147  0.28474  1.0000
  H   H888      1.0  0.47734  0.40667  0.24638  1.0000
  H   H889      1.0  0.47928  0.43743  0.19478  1.0000
  C   C546      1.0  0.48971  0.26636  0.30955  1.0000
  C   C547      1.0  0.49058  0.34720  0.99539  1.0000
  C   C548      1.0  0.48390  0.42922  0.20930  1.0000
  H   H890      1.0  0.48061  0.46127  0.22795  1.0000
  C   C549      1.0  0.49192  0.32690  0.14105  1.0000
  S   S218      1.0  0.28814  0.99122  0.06746  1.0000
  C   C550      1.0  0.48293  0.30608  0.17326  1.0000
  H   H891      1.0  0.48943  0.14697  0.11156  1.0000
  H   H892      1.0  0.48618  0.41268  0.20886  1.0000
  H   H893      1.0  0.48495  0.30066  0.18882  1.0000
  H   H894      1.0  0.49207  0.10832  0.00061  1.0000
  C   C551      1.0  0.45138  0.31410  0.98675  1.0000
  H   H895      1.0  0.37494  0.13551  0.98609  1.0000
  H   H896      1.0  0.39183  0.23562  0.57120  1.0000
  H   H897      1.0  0.42883  0.14918  0.41434  1.0000
  H   H898      1.0  0.29509  0.32353  0.44272  1.0000
  H   H899      1.0  0.42092  0.12862  0.62149  1.0000
  H   H900      1.0  0.38707  0.08623  0.57441  1.0000
  S   S219      1.0  0.26890  0.45632  0.35121  1.0000
  H   H901      1.0  0.39233  0.16438  0.41669  1.0000
  H   H902      1.0  0.30958  0.44617  0.33161  1.0000
  H   H903      1.0  0.39552  0.17813  0.43547  1.0000
  C   C552      1.0  0.25881  0.40224  0.64609  1.0000
  Fe  Fe109     1.0  0.35640  0.21423  0.52652  1.0000
  S   S220      1.0  0.36076  0.18401  0.54658  1.0000
  S   S221      1.0  0.33980  0.24214  0.53957  1.0000
  Fe  Fe110     1.0  0.38631  0.19901  0.49175  1.0000
  S   S222      1.0  0.39346  0.16777  0.50897  1.0000
  S   S223      1.0  0.39944  0.20820  0.45913  1.0000
  Fe  Fe111     1.0  0.36015  0.17058  0.51919  1.0000
  S   S224      1.0  0.34763  0.14147  0.52357  1.0000
  Fe  Fe112     1.0  0.39369  0.18338  0.53492  1.0000
  S   S225      1.0  0.41418  0.16889  0.55766  1.0000
  S   S226      1.0  0.35259  0.20093  0.50003  1.0000
  S   S227      1.0  0.38974  0.21450  0.51675  1.0000
  H   H904      1.0  0.35729  0.25199  0.60169  1.0000
  Fe  Fe113     1.0  0.46248  0.20386  0.63251  1.0000
  S   S228      1.0  0.44869  0.22165  0.60562  1.0000
  H   H905      1.0  0.35842  0.22981  0.62086  1.0000
  Fe  Fe114     1.0  0.34804  0.06940  0.44934  1.0000
  S   S229      1.0  0.33805  0.05583  0.42596  1.0000
  S   S230      1.0  0.34864  0.10306  0.44563  1.0000
  Fe  Fe115     1.0  0.35872  0.02867  0.47478  1.0000
  S   S231      1.0  0.34994  0.01167  0.45371  1.0000
  S   S232      1.0  0.36830  0.01363  0.50455  1.0000
  Fe  Fe116     1.0  0.36587  0.03245  0.42890  1.0000
  S   S233      1.0  0.38595  0.02288  0.40059  1.0000
  Fe  Fe117     1.0  0.32290  0.03602  0.45251  1.0000
  S   S234      1.0  0.29399  0.02287  0.45787  1.0000
  S   S235      1.0  0.37705  0.04756  0.45014  1.0000
  S   S236      1.0  0.33042  0.05153  0.47562  1.0000
  C   C553      1.0  0.27587  0.02977  0.44164  1.0000
  C   C554      1.0  0.27756  0.04502  0.42474  1.0000
  H   H906      1.0  0.36490  0.10022  0.58716  1.0000
  H   H907      1.0  0.28988  0.05358  0.42178  1.0000
  H   H908      1.0  0.41873  0.10086  0.56417  1.0000
  H   H909      1.0  0.49110  0.11262  0.35136  1.0000
  C   C555      1.0  0.29537  0.29324  0.47464  1.0000
  H   H910      1.0  0.41696  0.04486  0.37167  1.0000
  C   C556      1.0  0.27588  0.48862  0.32055  1.0000
  C   C557      1.0  0.38748  0.99770  0.39687  1.0000
  C   C558      1.0  0.24639  0.40487  0.45054  1.0000
  H   H911      1.0  0.31158  0.29079  0.47625  1.0000
  H   H912      1.0  0.29741  0.38500  0.64751  1.0000
  H   H913      1.0  0.47113  0.05149  0.35820  1.0000
  H   H914      1.0  0.39994  0.00378  0.36521  1.0000
  C   C559      1.0  0.36581  0.23654  0.60572  1.0000
  C   C560      1.0  0.42426  0.18381  0.57023  1.0000
  C   C561      1.0  0.42520  0.20425  0.56273  1.0000
  C   C562      1.0  0.43281  0.21581  0.57363  1.0000
  C   C563      1.0  0.43935  0.20699  0.59206  1.0000
  C   C564      1.0  0.43831  0.18660  0.59950  1.0000
  C   C565      1.0  0.43098  0.17500  0.58853  1.0000
  H   H915      1.0  0.42020  0.21108  0.54851  1.0000
  H   H916      1.0  0.43364  0.23159  0.56777  1.0000
  H   H917      1.0  0.44288  0.17975  0.61386  1.0000
  H   H918      1.0  0.43025  0.15921  0.59443  1.0000
  C   C566      1.0  0.34783  0.11355  0.46755  1.0000
  C   C567      1.0  0.34791  0.10142  0.48655  1.0000
  C   C568      1.0  0.34770  0.11017  0.50366  1.0000
  C   C569      1.0  0.34784  0.13099  0.50182  1.0000
  C   C570      1.0  0.34789  0.14311  0.48279  1.0000
  C   C571      1.0  0.34762  0.13443  0.46578  1.0000
  H   H919      1.0  0.34808  0.08532  0.48810  1.0000
  H   H920      1.0  0.34753  0.10073  0.51834  1.0000
  H   H921      1.0  0.34768  0.15923  0.48129  1.0000
  H   H922      1.0  0.34716  0.14392  0.45118  1.0000
  C   C572      1.0  0.46511  0.18136  0.43942  1.0000
  C   C573      1.0  0.45572  0.17628  0.45942  1.0000
  C   C574      1.0  0.43586  0.18523  0.46584  1.0000
  C   C575      1.0  0.42513  0.19891  0.45212  1.0000
  C   C576      1.0  0.43461  0.20423  0.43217  1.0000
  C   C577      1.0  0.45466  0.19558  0.42584  1.0000
  H   H923      1.0  0.46383  0.16538  0.46997  1.0000
  H   H924      1.0  0.42878  0.18129  0.48131  1.0000
  H   H925      1.0  0.42638  0.21486  0.42152  1.0000
  H   H926      1.0  0.46186  0.19954  0.41038  1.0000
  C   C578      1.0  0.27534  0.27207  0.53114  1.0000
  C   C579      1.0  0.28703  0.28122  0.54027  1.0000
  C   C580      1.0  0.30681  0.27190  0.54265  1.0000
  C   C581      1.0  0.31508  0.25346  0.53581  1.0000
  C   C582      1.0  0.30346  0.24437  0.52654  1.0000
  C   C583      1.0  0.28360  0.25361  0.52432  1.0000
  H   H927      1.0  0.28076  0.29536  0.54570  1.0000
  H   H928      1.0  0.31572  0.27899  0.54987  1.0000
  H   H929      1.0  0.30966  0.23013  0.52129  1.0000
  H   H930      1.0  0.27461  0.24643  0.51728  1.0000
  H   H931      1.0  0.36732  0.12969  0.55943  1.0000
  H   H932      1.0  0.37051  0.19556  0.61064  1.0000
  H   H933      1.0  0.37944  0.19382  0.58439  1.0000
  S   S237      1.0  0.40732  0.03567  0.62217  1.0000
  S   S238      1.0  0.48774  0.21492  0.64184  1.0000
  C   C584      1.0  0.39200  0.16351  0.43318  1.0000
  H   H934      1.0  0.38909  0.11543  0.54654  1.0000
  C   C585      1.0  0.29623  0.32767  0.45739  1.0000
  H   H935      1.0  0.39294  0.99141  0.53747  1.0000
  N   N56       1.0  0.44846  0.03212  0.36870  1.0000
  H   H936      1.0  0.38719  0.12343  0.60750  1.0000
  H   H937      1.0  0.25625  0.30736  0.48591  1.0000
  H   H938      1.0  0.32902  0.00134  0.61031  1.0000
  H   H939      1.0  0.38131  0.23826  0.60720  1.0000
  H   H940      1.0  0.33275  0.99662  0.37055  1.0000
  S   S239      1.0  0.25431  0.47888  0.62038  1.0000
  H   H941      1.0  0.38604  0.08967  0.60000  1.0000
  S   S240      1.0  0.25518  0.33936  0.53433  1.0000
  H   H942      1.0  0.40236  0.12713  0.42099  1.0000
  C   C586      1.0  0.38168  0.09723  0.58513  1.0000
  H   H943      1.0  0.33757  0.21480  0.60340  1.0000
  H   H944      1.0  0.27784  0.48314  0.39199  1.0000
  C   C587      1.0  0.42715  0.14855  0.43096  1.0000
  H   H945      1.0  0.36767  0.24842  0.56528  1.0000
  H   H946      1.0  0.43855  0.13592  0.43678  1.0000
  H   H947      1.0  0.39126  0.99284  0.60013  1.0000
  C   C588      1.0  0.34561  0.22191  0.58880  1.0000
  C   C589      1.0  0.38281  0.13018  0.59247  1.0000
  C   C590      1.0  0.26443  0.31698  0.47306  1.0000
  C   C591      1.0  0.38939  0.00173  0.58494  1.0000
  H   H948      1.0  0.43057  0.05274  0.38787  1.0000
  S   S241      1.0  0.35661  0.01411  0.63030  1.0000
  C   C592      1.0  0.44499  0.01412  0.38410  1.0000
  N   N57       1.0  0.28601  0.31466  0.47467  1.0000
  H   H949      1.0  0.34554  0.21254  0.57716  1.0000
  C   C593      1.0  0.42478  0.12193  0.63621  1.0000
  C   C594      1.0  0.26317  0.04920  0.41166  1.0000
  C   C595      1.0  0.25975  0.01889  0.44545  1.0000
  H   H950      1.0  0.43056  0.00912  0.38358  1.0000
  H   H951      1.0  0.48072  0.02566  0.36717  1.0000
  S   S242      1.0  0.25468  0.37414  0.48182  1.0000
  Fe  Fe118     1.0  0.40492  0.05697  0.64425  1.0000
  C   C596      1.0  0.43177  0.04892  0.37251  1.0000
  C   C597      1.0  0.28350  0.46953  0.33038  1.0000
  H   H952      1.0  0.37518  0.01005  0.54960  1.0000
  H   H953      1.0  0.30393  0.31862  0.49585  1.0000
  H   H954      1.0  0.39046  0.13980  0.55187  1.0000
  Fe  Fe119     1.0  0.38213  0.02198  0.64317  1.0000
  H   H955      1.0  0.29316  0.99904  0.52235  1.0000
  H   H956      1.0  0.29182  0.39442  0.60315  1.0000
  N   N58       1.0  0.27656  0.40563  0.63039  1.0000
  H   H957      1.0  0.28149  0.33705  0.49401  1.0000
  C   C598      1.0  0.41254  0.11142  0.57521  1.0000
  C   C599      1.0  0.32706  0.01554  0.40314  1.0000
  S   S243      1.0  0.49018  0.23503  0.34149  1.0000
  H   H958      1.0  0.40021  0.01268  0.58127  1.0000
  H   H959      1.0  0.28179  0.00608  0.49993  1.0000
  H   H960      1.0  0.41207  0.11372  0.44339  1.0000
  C   C600      1.0  0.27845  0.39240  0.61511  1.0000
  H   H961      1.0  0.32531  0.02649  0.38900  1.0000
  H   H962      1.0  0.37628  0.16249  0.44094  1.0000
  C   C601      1.0  0.29491  0.40102  0.63992  1.0000
  H   H963      1.0  0.29438  0.28806  0.46044  1.0000
  H   H964      1.0  0.38919  0.14449  0.58740  1.0000
  H   H965      1.0  0.28772  0.28315  0.48746  1.0000
  H   H966      1.0  0.26248  0.40272  0.44522  1.0000
  S   S244      1.0  0.45495  0.99655  0.62670  1.0000
  N   N59       1.0  0.32141  0.99590  0.40230  1.0000
  H   H967      1.0  0.28670  0.43007  0.60805  1.0000
  H   H968      1.0  0.26498  0.39591  0.60736  1.0000
  N   N60       1.0  0.39027  0.11611  0.57771  1.0000
  H   H969      1.0  0.33655  0.23694  0.58419  1.0000
  H   H970      1.0  0.45146  0.04066  0.33640  1.0000
  H   H971      1.0  0.46195  0.01503  0.34484  1.0000
  H   H972      1.0  0.39342  0.20453  0.59817  1.0000
  S   S245      1.0  0.48941  0.16874  0.43159  1.0000
  H   H973      1.0  0.37749  0.22394  0.55865  1.0000
  S   S246      1.0  0.40691  0.09016  0.63267  1.0000
  C   C602      1.0  0.39055  0.00093  0.54954  1.0000
  C   C603      1.0  0.38403  0.12565  0.55805  1.0000
  H   H974      1.0  0.27995  0.37615  0.62205  1.0000
  H   H975      1.0  0.43508  0.02214  0.34710  1.0000
  H   H976      1.0  0.31252  0.32642  0.45820  1.0000
  C   C604      1.0  0.28791  0.32080  0.49370  1.0000
  H   H977      1.0  0.31757  0.02254  0.41594  1.0000
  H   H978      1.0  0.26841  0.99350  0.52273  1.0000
  H   H979      1.0  0.41773  0.10425  0.58981  1.0000
  H   H980      1.0  0.41951  0.12535  0.56971  1.0000
  N   N61       1.0  0.36640  0.22383  0.59031  1.0000
  H   H981      1.0  0.25833  0.00708  0.45846  1.0000
  N   N62       1.0  0.40643  0.14615  0.44116  1.0000
  Fe  Fe120     1.0  0.42735  0.01453  0.64205  1.0000
  H   H982      1.0  0.26447  0.06099  0.39859  1.0000
  H   H983      1.0  0.27323  0.43733  0.63147  1.0000
  H   H984      1.0  0.25988  0.43128  0.61388  1.0000
  H   H985      1.0  0.37386  0.01061  0.58636  1.0000
  H   H986      1.0  0.45730  0.00112  0.38181  1.0000
  C   C605      1.0  0.44920  0.02730  0.34836  1.0000
  C   C606      1.0  0.24549  0.02300  0.43238  1.0000
  H   H987      1.0  0.24469  0.40549  0.63945  1.0000
  H   H988      1.0  0.43392  0.06284  0.36131  1.0000
  C   C607      1.0  0.46784  0.03811  0.36982  1.0000
  C   C608      1.0  0.40502  0.14548  0.46314  1.0000
  H   H989      1.0  0.43125  0.16278  0.43344  1.0000
  H   H990      1.0  0.38602  0.12481  0.44487  1.0000
  H   H991      1.0  0.40791  0.15991  0.46642  1.0000
  H   H992      1.0  0.41614  0.13303  0.46967  1.0000
  H   H993      1.0  0.38973  0.14314  0.47141  1.0000
  H   H994      1.0  0.28933  0.34392  0.45714  1.0000
  H   H995      1.0  0.40157  0.01168  0.54490  1.0000
  H   H996      1.0  0.30856  0.40374  0.62857  1.0000
  H   H997      1.0  0.26236  0.31255  0.45885  1.0000
  C   C609      1.0  0.37791  0.20354  0.59615  1.0000
  H   H998      1.0  0.36608  0.13415  0.59465  1.0000
  C   C610      1.0  0.37633  0.23337  0.57054  1.0000
  C   C611      1.0  0.40155  0.12713  0.43742  1.0000
  H   H999      1.0  0.25686  0.33295  0.47321  1.0000
  S   S247      1.0  0.47880  0.17219  0.63120  1.0000
  C   C612      1.0  0.43487  0.13240  0.64602  1.0000
  H   H1000     1.0  0.46786  0.04203  0.38488  1.0000
  H   H1001     1.0  0.27971  0.31179  0.50697  1.0000
  H   H1002     1.0  0.29374  0.41079  0.65160  1.0000
  H   H1003     1.0  0.44415  0.01725  0.39966  1.0000
  H   H1004     1.0  0.34307  0.01377  0.40531  1.0000
  C   C613      1.0  0.27401  0.42699  0.62050  1.0000
  H   H1005     1.0  0.48676  0.19461  0.58922  1.0000
  H   H1006     1.0  0.35117  0.99007  0.54114  1.0000
  C   C614      1.0  0.39478  0.99248  0.37757  1.0000
  C   C615      1.0  0.30358  0.46096  0.32411  1.0000
  C   C616      1.0  0.41982  0.10281  0.64530  1.0000
  H   H1007     1.0  0.29764  0.00990  0.38516  1.0000
  H   H1008     1.0  0.29902  0.48492  0.35879  1.0000
  H   H1009     1.0  0.43866  0.14706  0.63886  1.0000
  C   C617      1.0  0.24714  0.03814  0.41545  1.0000
  C   C618      1.0  0.28359  0.99409  0.51337  1.0000
  H   H1010     1.0  0.48711  0.23150  0.58077  1.0000
  C   C619      1.0  0.30018  0.99899  0.39917  1.0000
  S   S248      1.0  0.25058  0.28341  0.52749  1.0000
  H   H1011     1.0  0.28970  0.00513  0.41195  1.0000
  H   H1012     1.0  0.47776  0.21338  0.55682  1.0000
  C   C620      1.0  0.35344  0.98961  0.62725  1.0000
  H   H1013     1.0  0.24315  0.42739  0.55369  1.0000
  H   H1014     1.0  0.33639  0.08299  0.88178  1.0000
  H   H1015     1.0  0.31231  0.44063  0.90561  1.0000
  S   S249      1.0  0.45201  0.13672  0.67833  1.0000
  Fe  Fe121     1.0  0.47316  0.20495  0.67380  1.0000
  H   H1016     1.0  0.30117  0.45278  0.78222  1.0000
  Fe  Fe122     1.0  0.34148  0.45413  0.74380  1.0000
  S   S250      1.0  0.37476  0.44506  0.73476  1.0000
  C   C621      1.0  0.47596  0.41545  0.75755  1.0000
  Fe  Fe123     1.0  0.34233  0.43253  0.78715  1.0000
  S   S251      1.0  0.37582  0.42148  0.78177  1.0000
  S   S252      1.0  0.31935  0.42684  0.81556  1.0000
  C   C622      1.0  0.29073  0.45668  0.77090  1.0000
  Fe  Fe124     1.0  0.37046  0.41463  0.75262  1.0000
  S   S253      1.0  0.38791  0.38841  0.73789  1.0000
  H   H1017     1.0  0.26350  0.04488  0.85928  1.0000
  S   S254      1.0  0.33674  0.42288  0.75921  1.0000
  H   H1018     1.0  0.29587  0.42428  0.69874  1.0000
  H   H1019     1.0  0.33173  0.45078  0.88731  1.0000
  S   S255      1.0  0.44847  0.32740  0.78867  1.0000
  C   C623      1.0  0.43987  0.12391  0.66512  1.0000
  H   H1020     1.0  0.33203  0.00023  0.67582  1.0000
  C   C624      1.0  0.44562  0.00746  0.78680  1.0000
  N   N63       1.0  0.32351  0.46463  0.91414  1.0000
  H   H1021     1.0  0.42008  0.31342  0.96820  1.0000
  N   N64       1.0  0.46435  0.39930  0.75745  1.0000
  Fe  Fe125     1.0  0.39992  0.02410  0.68060  1.0000
  S   S256      1.0  0.42712  0.03670  0.66249  1.0000
  S   S257      1.0  0.39324  0.01712  0.71488  1.0000
  H   H1022     1.0  0.43039  0.47666  0.83276  1.0000
  S   S258      1.0  0.48994  0.17311  0.67539  1.0000
  H   H1023     1.0  0.27258  0.48608  0.67706  1.0000
  C   C625      1.0  0.36145  0.17119  0.96567  1.0000
  Fe  Fe126     1.0  0.39348  0.05713  0.84030  1.0000
  S   S259      1.0  0.40497  0.08436  0.82043  1.0000
  S   S260      1.0  0.36139  0.05537  0.85671  1.0000
  Fe  Fe127     1.0  0.43523  0.03183  0.83596  1.0000
  S   S261      1.0  0.45000  0.05672  0.81565  1.0000
  Fe  Fe128     1.0  0.43152  0.07665  0.83746  1.0000
  S   S262      1.0  0.44179  0.10148  0.84966  1.0000
  Fe  Fe129     1.0  0.42257  0.06203  0.80050  1.0000
  S   S263      1.0  0.42742  0.06766  0.76613  1.0000
  S   S264      1.0  0.41844  0.05117  0.85885  1.0000
  S   S265      1.0  0.40930  0.03556  0.81924  1.0000
  H   H1024     1.0  0.45818  0.16579  0.95621  1.0000
  Fe  Fe130     1.0  0.29508  0.38178  0.96189  1.0000
  S   S266      1.0  0.32425  0.36498  0.94727  1.0000
  S   S267      1.0  0.44971  0.99988  0.84550  1.0000
  Fe  Fe131     1.0  0.31571  0.41408  0.97004  1.0000
  S   S268      1.0  0.34644  0.39982  0.95682  1.0000
  C   C626      1.0  0.42489  0.09433  0.66436  1.0000
  Fe  Fe132     1.0  0.33108  0.39578  0.93186  1.0000
  S   S269      1.0  0.34905  0.40560  0.90103  1.0000
  Fe  Fe133     1.0  0.33719  0.37051  0.97328  1.0000
  S   S270      1.0  0.30079  0.41201  0.94421  1.0000
  H   H1025     1.0  0.46592  0.40539  0.72513  1.0000
  C   C627      1.0  0.28433  0.42234  0.77595  1.0000
  H   H1026     1.0  0.42273  0.13244  0.76865  1.0000
  H   H1027     1.0  0.43123  0.15693  0.73756  1.0000
  S   S271      1.0  0.28120  0.11718  0.95171  1.0000
  C   C628      1.0  0.33874  0.45047  0.92478  1.0000
  C   C629      1.0  0.47493  0.01927  0.76571  1.0000
  H   H1028     1.0  0.34291  0.45704  0.93680  1.0000
  H   H1029     1.0  0.34105  0.04739  0.89920  1.0000
  C   C630      1.0  0.48540  0.23968  0.72552  1.0000
  S   S272      1.0  0.40242  0.99957  0.66187  1.0000
  H   H1030     1.0  0.26165  0.40348  0.93509  1.0000
  H   H1031     1.0  0.46597  0.03439  0.76117  1.0000
  C   C631      1.0  0.46588  0.10213  0.85574  1.0000
  H   H1032     1.0  0.27279  0.05644  0.83430  1.0000
  C   C632      1.0  0.26123  0.44979  0.76073  1.0000
  C   C633      1.0  0.46830  0.11831  0.86468  1.0000
  H   H1033     1.0  0.27343  0.44153  0.80802  1.0000
  H   H1034     1.0  0.45551  0.12997  0.86778  1.0000
  C   C634      1.0  0.40216  0.03183  0.72893  1.0000
  C   C635      1.0  0.39710  0.02878  0.75011  1.0000
  C   C636      1.0  0.40428  0.04002  0.76169  1.0000
  C   C637      1.0  0.41685  0.05421  0.75218  1.0000
  C   C638      1.0  0.42179  0.05736  0.73101  1.0000
  C   C639      1.0  0.41443  0.04628  0.71943  1.0000
  H   H1035     1.0  0.38748  0.01777  0.75759  1.0000
  H   H1036     1.0  0.40006  0.03767  0.77795  1.0000
  H   H1037     1.0  0.43143  0.06833  0.72346  1.0000
  H   H1038     1.0  0.41835  0.04889  0.70314  1.0000
  C   C640      1.0  0.27526  0.04482  0.90354  1.0000
  C   C641      1.0  0.26577  0.02994  0.89935  1.0000
  H   H1039     1.0  0.28973  0.04756  0.89483  1.0000
  H   H1040     1.0  0.27307  0.02109  0.88770  1.0000
  C   C642      1.0  0.31928  0.02757  0.82883  1.0000
  C   C643      1.0  0.33680  0.03391  0.81696  1.0000
  C   C644      1.0  0.35000  0.04207  0.82544  1.0000
  C   C645      1.0  0.34560  0.04427  0.84583  1.0000
  C   C646      1.0  0.32804  0.03793  0.85773  1.0000
  C   C647      1.0  0.31506  0.02937  0.84934  1.0000
  H   H1041     1.0  0.34020  0.03256  0.80108  1.0000
  H   H1042     1.0  0.36337  0.04704  0.81606  1.0000
  H   H1043     1.0  0.32452  0.03952  0.87352  1.0000
  H   H1044     1.0  0.30176  0.02431  0.85870  1.0000
  C   C648      1.0  0.40494  0.37224  0.75224  1.0000
  C   C649      1.0  0.42352  0.36345  0.74241  1.0000
  C   C650      1.0  0.43731  0.35033  0.75359  1.0000
  C   C651      1.0  0.43223  0.34525  0.77456  1.0000
  C   C652      1.0  0.41362  0.35400  0.78438  1.0000
  C   C653      1.0  0.40012  0.36776  0.77329  1.0000
  H   H1045     1.0  0.42730  0.36700  0.72612  1.0000
  H   H1046     1.0  0.45167  0.34395  0.74588  1.0000
  H   H1047     1.0  0.40959  0.35014  0.80062  1.0000
  H   H1048     1.0  0.38572  0.37440  0.78095  1.0000
  C   C654      1.0  0.32772  0.42050  0.83928  1.0000
  C   C655      1.0  0.31402  0.41541  0.85693  1.0000
  C   C656      1.0  0.32034  0.41042  0.87600  1.0000
  C   C657      1.0  0.34041  0.41061  0.87750  1.0000
  C   C658      1.0  0.35401  0.41585  0.85987  1.0000
  C   C659      1.0  0.34774  0.42071  0.84085  1.0000
  H   H1049     1.0  0.29851  0.41519  0.85585  1.0000
  H   H1050     1.0  0.30972  0.40641  0.88947  1.0000
  H   H1051     1.0  0.36954  0.41606  0.86092  1.0000
  H   H1052     1.0  0.35841  0.42463  0.82740  1.0000
  C   C660      1.0  0.31826  0.45492  0.89869  1.0000
  C   C661      1.0  0.48439  0.23751  0.70569  1.0000
  S   S273      1.0  0.47083  0.21912  0.70208  1.0000
  H   H1053     1.0  0.46782  0.08364  0.91601  1.0000
  H   H1054     1.0  0.33378  0.10330  0.89585  1.0000
  H   H1055     1.0  0.44722  0.14825  0.71590  1.0000
  H   H1056     1.0  0.46533  0.08948  0.95185  1.0000
  C   C662      1.0  0.33188  0.48316  0.90423  1.0000
  C   C663      1.0  0.48564  0.00603  0.82062  1.0000
  S   S274      1.0  0.32214  0.47613  0.72298  1.0000
  N   N65       1.0  0.25088  0.07616  0.85191  1.0000
  H   H1057     1.0  0.43857  0.09816  0.68900  1.0000
  Fe  Fe134     1.0  0.29282  0.10024  0.97978  1.0000
  H   H1058     1.0  0.31708  0.43569  0.71865  1.0000
  C   C664      1.0  0.26339  0.44611  0.79628  1.0000
  C   C665      1.0  0.28274  0.45439  0.68650  1.0000
  C   C666      1.0  0.29527  0.44029  0.69845  1.0000
  C   C667      1.0  0.30728  0.44673  0.70980  1.0000
  C   C668      1.0  0.30693  0.46740  0.70925  1.0000
  C   C669      1.0  0.30525  0.46991  0.92887  1.0000
  H   H1059     1.0  0.47955  0.02192  0.81839  1.0000
  H   H1060     1.0  0.36868  0.06185  0.92120  1.0000
  H   H1061     1.0  0.31298  0.99274  0.71067  1.0000
  H   H1062     1.0  0.33385  0.09573  0.93292  1.0000
  H   H1063     1.0  0.47843  0.22974  0.73816  1.0000
  H   H1064     1.0  0.46153  0.36926  0.77336  1.0000
  H   H1065     1.0  0.43546  0.99588  0.79047  1.0000
  C   C670      1.0  0.28216  0.47506  0.68619  1.0000
  S   S275      1.0  0.26845  0.44542  0.67200  1.0000
  H   H1066     1.0  0.31792  0.05329  0.91612  1.0000
  C   C671      1.0  0.44417  0.14535  0.73271  1.0000
  C   C672      1.0  0.26595  0.05638  0.91870  1.0000
  C   C673      1.0  0.24426  0.38497  0.95850  1.0000
  S   S276      1.0  0.40553  0.46679  0.76300  1.0000
  H   H1067     1.0  0.29342  0.48067  0.92148  1.0000
  H   H1068     1.0  0.27284  0.41207  0.78008  1.0000
  H   H1069     1.0  0.42991  0.35657  0.95857  1.0000
  H   H1070     1.0  0.33028  0.02291  0.70068  1.0000
  S   S277      1.0  0.30318  0.01738  0.81747  1.0000
  N   N66       1.0  0.46228  0.00314  0.77014  1.0000
  H   H1071     1.0  0.48532  0.23082  0.87256  1.0000
  C   C674      1.0  0.46954  0.39268  0.73745  1.0000
  C   C675      1.0  0.34559  0.99094  0.68165  1.0000
  H   H1072     1.0  0.34573  0.47961  0.89308  1.0000
  H   H1073     1.0  0.36825  0.06756  0.89448  1.0000
  H   H1074     1.0  0.35731  0.01959  0.69665  1.0000
  N   N67       1.0  0.33929  0.07348  0.91313  1.0000
  C   C676      1.0  0.44248  0.40707  0.76149  1.0000
  H   H1075     1.0  0.47262  0.42069  0.77246  1.0000
  H   H1076     1.0  0.37207  0.19920  0.98278  1.0000
  H   H1077     1.0  0.35269  0.44586  0.91417  1.0000
  C   C677      1.0  0.48145  0.08238  0.95114  1.0000
  H   H1078     1.0  0.40419  0.33511  0.97716  1.0000
  C   C678      1.0  0.44183  0.34353  0.96248  1.0000
  S   S278      1.0  0.27725  0.07647  0.92176  1.0000
  H   H1079     1.0  0.46063  0.11168  0.71671  1.0000
  H   H1080     1.0  0.46604  0.99900  0.73910  1.0000
  H   H1081     1.0  0.35137  0.18607  0.96359  1.0000
  H   H1082     1.0  0.27038  0.09866  0.84347  1.0000
  H   H1083     1.0  0.25676  0.41227  0.65768  1.0000
  C   C679      1.0  0.24671  0.02682  0.90998  1.0000
  C   C680      1.0  0.34400  0.01314  0.70568  1.0000
  C   C681      1.0  0.46956  0.38198  0.77326  1.0000
  C   C682      1.0  0.48263  0.08726  0.85171  1.0000
  H   H1084     1.0  0.47239  0.42881  0.74584  1.0000
  C   C683      1.0  0.33041  0.08781  0.89677  1.0000
  H   H1085     1.0  0.45564  0.34973  0.96296  1.0000
  H   H1086     1.0  0.39447  0.18401  0.97157  1.0000
  C   C684      1.0  0.43479  0.10487  0.67425  1.0000
  H   H1087     1.0  0.45767  0.14798  0.73804  1.0000
  Fe  Fe135     1.0  0.26905  0.08895  0.95121  1.0000
  H   H1088     1.0  0.29294  0.41993  0.76078  1.0000
  Fe  Fe136     1.0  0.27718  0.00210  0.83543  1.0000
  C   C685      1.0  0.36143  0.07263  0.90925  1.0000
  H   H1089     1.0  0.46112  0.38050  0.73677  1.0000
  H   H1090     1.0  0.48111  0.07472  0.84484  1.0000
  H   H1091     1.0  0.36548  0.48732  0.71387  1.0000
  H   H1092     1.0  0.48136  0.02021  0.77919  1.0000
  S   S279      1.0  0.31013  0.44487  0.97908  1.0000
  C   C686      1.0  0.46554  0.15320  0.96586  1.0000
  C   C687      1.0  0.24673  0.40020  0.94173  1.0000
  H   H1093     1.0  0.28423  0.47299  0.77029  1.0000
  H   H1094     1.0  0.42857  0.27788  0.72176  1.0000
  N   N68       1.0  0.27488  0.44373  0.77597  1.0000
  N   N69       1.0  0.34509  0.99189  0.70318  1.0000
  H   H1095     1.0  0.25840  0.08287  0.87889  1.0000
  S   S280      1.0  0.44619  0.19684  0.66438  1.0000
  C   C688      1.0  0.45510  0.14558  0.98465  1.0000
  H   H1096     1.0  0.45444  0.09395  0.73914  1.0000
  H   H1097     1.0  0.44915  0.12339  0.76914  1.0000
  H   H1098     1.0  0.26963  0.44838  0.74521  1.0000
  H   H1099     1.0  0.41830  0.10615  0.73841  1.0000
  H   H1100     1.0  0.48361  0.25376  0.84007  1.0000
  Fe  Fe137     1.0  0.37798  0.45268  0.76426  1.0000
  C   C689      1.0  0.33077  0.08033  0.93275  1.0000
  C   C690      1.0  0.24538  0.07958  0.87316  1.0000
  Fe  Fe138     1.0  0.46423  0.16568  0.66355  1.0000
  H   H1101     1.0  0.31410  0.08095  0.93613  1.0000
  C   C691      1.0  0.33452  0.05313  0.91366  1.0000
  H   H1102     1.0  0.44553  0.33460  0.94985  1.0000
  N   N70       1.0  0.43981  0.12460  0.74051  1.0000
  C   C692      1.0  0.42191  0.12173  0.73289  1.0000
  C   C693      1.0  0.43587  0.12154  0.76287  1.0000
  C   C694      1.0  0.45731  0.10976  0.73355  1.0000
  Fe  Fe139     1.0  0.48146  0.32181  0.77550  1.0000
  H   H1103     1.0  0.40833  0.13257  0.73784  1.0000
  H   H1104     1.0  0.42442  0.12397  0.71604  1.0000
  H   H1105     1.0  0.35894  0.99681  0.67201  1.0000
  H   H1106     1.0  0.43247  0.10610  0.76936  1.0000
  H   H1107     1.0  0.47115  0.11138  0.73895  1.0000
  N   N71       1.0  0.43506  0.33100  0.98193  1.0000
  C   C695      1.0  0.45389  0.00256  0.75190  1.0000
  H   H1108     1.0  0.39646  0.14755  0.97465  1.0000
  C   C696      1.0  0.47446  0.99223  0.83374  1.0000
  S   S281      1.0  0.34496  0.46451  0.77211  1.0000
  S   S282      1.0  0.32557  0.09785  0.98291  1.0000
  H   H1109     1.0  0.33287  0.43637  0.93229  1.0000
  H   H1110     1.0  0.30876  0.47689  0.94099  1.0000
  H   H1111     1.0  0.43404  0.47258  0.80700  1.0000
  Fe  Fe140     1.0  0.25208  0.12562  0.97225  1.0000
  H   H1112     1.0  0.30662  0.46497  0.89046  1.0000
  C   C697      1.0  0.24732  0.05264  0.93000  1.0000
  C   C698      1.0  0.26783  0.05919  0.85021  1.0000
  H   H1113     1.0  0.43792  0.42008  0.74977  1.0000
  H   H1114     1.0  0.48778  0.01651  0.75329  1.0000
  H   H1115     1.0  0.43331  0.39518  0.76168  1.0000
  C   C699      1.0  0.48377  0.07655  0.91683  1.0000
  H   H1116     1.0  0.34068  0.04199  0.92604  1.0000
  H   H1117     1.0  0.34390  0.01445  0.72170  1.0000
  H   H1118     1.0  0.44479  0.01737  0.74673  1.0000
  C   C700      1.0  0.48716  0.11970  0.86941  1.0000
  H   H1119     1.0  0.47558  0.11525  0.92238  1.0000
  H   H1120     1.0  0.48875  0.13238  0.87601  1.0000
  H   H1121     1.0  0.28118  0.06208  0.85566  1.0000
  H   H1122     1.0  0.29856  0.45625  0.93663  1.0000
  H   H1123     1.0  0.44088  0.29884  0.70853  1.0000
  H   H1124     1.0  0.46553  0.38627  0.78862  1.0000
  H   H1125     1.0  0.42099  0.07974  0.67161  1.0000
  H   H1126     1.0  0.43635  0.02248  0.78289  1.0000
  H   H1127     1.0  0.45138  0.00775  0.80089  1.0000
  S   S283      1.0  0.28271  0.07137  0.97790  1.0000
  S   S284      1.0  0.37745  0.04563  0.66342  1.0000
  H   H1128     1.0  0.29505  0.41741  0.78702  1.0000
  H   H1129     1.0  0.48413  0.06001  0.92201  1.0000
  H   H1130     1.0  0.48203  0.06597  0.95721  1.0000
  H   H1131     1.0  0.45560  0.30433  0.97481  1.0000
  N   N72       1.0  0.44131  0.29237  0.74055  1.0000
  C   C701      1.0  0.42268  0.30685  0.74530  1.0000
  C   C702      1.0  0.44201  0.27464  0.75686  1.0000
  C   C703      1.0  0.45905  0.30227  0.73902  1.0000
  C   C704      1.0  0.44155  0.28576  0.72110  1.0000
  H   H1132     1.0  0.42187  0.32073  0.73363  1.0000
  H   H1133     1.0  0.42190  0.31183  0.76009  1.0000
  H   H1134     1.0  0.40892  0.30006  0.74623  1.0000
  H   H1135     1.0  0.44205  0.27919  0.77168  1.0000
  H   H1136     1.0  0.42879  0.26681  0.75855  1.0000
  H   H1137     1.0  0.45586  0.26340  0.75376  1.0000
  H   H1138     1.0  0.47340  0.29189  0.73549  1.0000
  H   H1139     1.0  0.45942  0.30726  0.75349  1.0000
  H   H1140     1.0  0.45914  0.31572  0.72685  1.0000
  H   H1141     1.0  0.45559  0.27509  0.71693  1.0000
  H   H1142     1.0  0.33716  0.06998  0.94550  1.0000
  H   H1143     1.0  0.36561  0.08772  0.90871  1.0000
  H   H1144     1.0  0.31372  0.08885  0.89920  1.0000
  Fe  Fe141     1.0  0.24592  0.99871  0.87361  1.0000
  H   H1145     1.0  0.48796  0.08915  0.96157  1.0000
  C   C705      1.0  0.29423  0.48151  0.69751  1.0000
  H   H1146     1.0  0.43801  0.41235  0.77639  1.0000
  H   H1147     1.0  0.29993  0.45488  0.75589  1.0000
  S   S285      1.0  0.26503  0.37054  0.96903  1.0000
  Fe  Fe142     1.0  0.24586  0.46553  0.65302  1.0000
  H   H1148     1.0  0.24469  0.10783  0.83982  1.0000
  H   H1149     1.0  0.37371  0.17096  0.95233  1.0000
  C   C706      1.0  0.41700  0.32279  0.98042  1.0000
  C   C707      1.0  0.48565  0.14481  0.95970  1.0000
  S   S286      1.0  0.24494  0.01690  0.84257  1.0000
  H   H1150     1.0  0.45552  0.47175  0.81890  1.0000
  H   H1151     1.0  0.35242  0.15926  0.96553  1.0000
  N   N73       1.0  0.36974  0.16781  0.98470  1.0000
  C   C708      1.0  0.25706  0.09464  0.83891  1.0000
  H   H1152     1.0  0.25379  0.46584  0.76037  1.0000
  H   H1153     1.0  0.26130  0.09255  0.82276  1.0000
  C   C709      1.0  0.38154  0.18396  0.98429  1.0000
  H   H1154     1.0  0.24916  0.44022  0.76389  1.0000
  H   H1155     1.0  0.44380  0.99095  0.75482  1.0000
  H   H1156     1.0  0.48593  0.38661  0.73398  1.0000
  H   H1157     1.0  0.48602  0.37602  0.77085  1.0000
  H   H1158     1.0  0.25622  0.46210  0.79694  1.0000
  H   H1159     1.0  0.25124  0.43659  0.80065  1.0000
  C   C710      1.0  0.43988  0.47965  0.81765  1.0000
  H   H1160     1.0  0.26029  0.38634  0.65409  1.0000
  C   C711      1.0  0.49140  0.10767  0.92301  1.0000
  C   C712      1.0  0.25000  0.90311  0.03088  1.0000
  S   S287      1.0  0.45132  0.57748  0.27485  1.0000
  H   H1161     1.0  0.41843  0.61702  0.28012  1.0000
  H   H1162     1.0  0.48293  0.69860  0.31600  1.0000
  H   H1163     1.0  0.32371  0.88818  0.01787  1.0000
  S   S288      1.0  0.32398  0.50499  0.27981  1.0000
  C   C713      1.0  0.48158  0.96964  0.30965  1.0000
  H   H1164     1.0  0.26012  0.93253  0.06178  1.0000
  S   S289      1.0  0.41613  0.52600  0.22577  1.0000
  H   H1165     1.0  0.42351  0.54511  0.01513  1.0000
  S   S290      1.0  0.38572  0.49287  0.27356  1.0000
  H   H1166     1.0  0.46835  0.68516  0.99040  1.0000
  S   S291      1.0  0.36427  0.50555  0.23295  1.0000
  S   S292      1.0  0.24451  0.96136  0.10008  1.0000
  H   H1167     1.0  0.43762  0.66603  0.27023  1.0000
  H   H1168     1.0  0.31947  0.94348  0.22149  1.0000
  S   S293      1.0  0.44734  0.98349  0.18988  1.0000
  C   C714      1.0  0.25047  0.90349  0.07201  1.0000
  H   H1169     1.0  0.36140  0.50434  0.19046  1.0000
  S   S294      1.0  0.29156  0.93851  0.09824  1.0000
  C   C715      1.0  0.41741  0.64515  0.30338  1.0000
  Fe  Fe143     1.0  0.28845  0.94183  0.13076  1.0000
  S   S295      1.0  0.31403  0.92832  0.14828  1.0000
  Fe  Fe144     1.0  0.41613  0.94880  0.14984  1.0000
  S   S296      1.0  0.42803  0.91549  0.15388  1.0000
  S   S297      1.0  0.39370  0.96708  0.13050  1.0000
  Fe  Fe145     1.0  0.44021  0.95667  0.17962  1.0000
  S   S298      1.0  0.45397  0.92403  0.18694  1.0000
  S   S299      1.0  0.45283  0.95192  0.30037  1.0000
  Fe  Fe146     1.0  0.45819  0.92425  0.15338  1.0000
  H   H1170     1.0  0.46870  0.96671  0.23857  1.0000
  Fe  Fe147     1.0  0.42287  0.91790  0.18698  1.0000
  S   S300      1.0  0.40670  0.89453  0.20839  1.0000
  S   S301      1.0  0.44671  0.95741  0.14620  1.0000
  S   S302      1.0  0.40868  0.95057  0.18286  1.0000
  C   C716      1.0  0.31912  0.83838  0.02619  1.0000
  S   S303      1.0  0.33792  0.50744  0.03893  1.0000
  N   N74       1.0  0.43035  0.84514  0.28985  1.0000
  Fe  Fe148     1.0  0.33652  0.51036  0.09547  1.0000
  S   S304      1.0  0.33528  0.53780  0.07114  1.0000
  S   S305      1.0  0.33726  0.51920  0.12556  1.0000
  Fe  Fe149     1.0  0.31343  0.52361  0.05992  1.0000
  Fe  Fe150     1.0  0.35963  0.51877  0.05287  1.0000
  S   S306      1.0  0.38969  0.52714  0.03696  1.0000
  H   H1171     1.0  0.40816  0.63324  0.31102  1.0000
  H   H1172     1.0  0.46101  0.61427  0.28945  1.0000
  H   H1173     1.0  0.46212  0.88743  0.13195  1.0000
  H   H1174     1.0  0.30936  0.51274  0.21528  1.0000
  H   H1175     1.0  0.28255  0.51416  0.29771  1.0000
  C   C717      1.0  0.34625  0.50243  0.14617  1.0000
  H   H1176     1.0  0.48899  0.96918  0.29423  1.0000
  H   H1177     1.0  0.47497  0.83908  0.02339  1.0000
  C   C718      1.0  0.28847  0.49927  0.30504  1.0000
  C   C719      1.0  0.47502  0.97319  0.24931  1.0000
  H   H1178     1.0  0.45198  0.65984  0.29060  1.0000
  S   S307      1.0  0.28503  0.53994  0.04796  1.0000
  H   H1179     1.0  0.40738  0.65787  0.29564  1.0000
  S   S308      1.0  0.25031  0.90336  0.09788  1.0000
  C   C720      1.0  0.24691  0.53259  0.04838  1.0000
  H   H1180     1.0  0.37872  0.87556  0.23850  1.0000
  H   H1181     1.0  0.46263  0.63013  0.02926  1.0000
  C   C721      1.0  0.39100  0.55001  0.02001  1.0000
  H   H1182     1.0  0.44308  0.82192  0.27166  1.0000
  C   C722      1.0  0.47347  0.76972  0.00750  1.0000
  H   H1183     1.0  0.48551  0.80044  0.10699  1.0000
  C   C723      1.0  0.37532  0.58183  0.00248  1.0000
  C   C724      1.0  0.37361  0.56330  0.01543  1.0000
  C   C725      1.0  0.44660  0.65338  0.27921  1.0000
  H   H1184     1.0  0.41615  0.82905  0.27388  1.0000
  H   H1185     1.0  0.44846  0.85451  0.30780  1.0000
  H   H1186     1.0  0.35887  0.55936  0.02192  1.0000
  C   C726      1.0  0.47714  0.62297  0.02231  1.0000
  H   H1187     1.0  0.41746  0.64171  0.26470  1.0000
  C   C727      1.0  0.48157  0.52274  0.26012  1.0000
  H   H1188     1.0  0.36720  0.87783  0.27469  1.0000
  Fe  Fe151     1.0  0.43215  0.93112  0.31920  1.0000
  S   S309      1.0  0.45412  0.82953  0.99493  1.0000
  S   S310      1.0  0.31263  0.49763  0.08565  1.0000
  H   H1189     1.0  0.42053  0.86475  0.26373  1.0000
  H   H1190     1.0  0.35384  0.98316  0.12091  1.0000
  C   C728      1.0  0.48945  0.64331  0.30592  1.0000
  C   C729      1.0  0.39958  0.89659  0.23408  1.0000
  C   C730      1.0  0.40781  0.90908  0.24329  1.0000
  C   C731      1.0  0.40169  0.90987  0.26410  1.0000
  C   C732      1.0  0.38698  0.89860  0.27543  1.0000
  C   C733      1.0  0.38509  0.88525  0.24554  1.0000
  H   H1191     1.0  0.41902  0.91788  0.23445  1.0000
  H   H1192     1.0  0.40814  0.91933  0.27132  1.0000
  C   C734      1.0  0.47843  0.61337  0.00561  1.0000
  Fe  Fe152     1.0  0.26078  0.92964  0.10643  1.0000
  S   S311      1.0  0.43292  0.90113  0.31011  1.0000
  C   C735      1.0  0.48515  0.96923  0.17206  1.0000
  H   H1193     1.0  0.36185  0.59214  0.99903  1.0000
  C   C736      1.0  0.42912  0.82664  0.28219  1.0000
  C   C737      1.0  0.44768  0.84124  0.30085  1.0000
  H   H1194     1.0  0.30222  0.86180  0.05444  1.0000
  H   H1195     1.0  0.45313  0.62532  0.31209  1.0000
  C   C738      1.0  0.33654  0.93855  0.14011  1.0000
  C   C739      1.0  0.35470  0.92673  0.14472  1.0000
  C   C740      1.0  0.37234  0.93534  0.14144  1.0000
  C   C741      1.0  0.37205  0.95576  0.13309  1.0000
  C   C742      1.0  0.35413  0.96739  0.12751  1.0000
  C   C743      1.0  0.33636  0.95882  0.13109  1.0000
  H   H1196     1.0  0.35506  0.91089  0.15105  1.0000
  H   H1197     1.0  0.38615  0.92614  0.14541  1.0000
  H   H1198     1.0  0.33577  0.86784  0.03463  1.0000
  H   H1199     1.0  0.32241  0.96803  0.12742  1.0000
  H   H1200     1.0  0.49172  0.73114  0.00853  1.0000
  H   H1201     1.0  0.29042  0.88243  0.03785  1.0000
  H   H1202     1.0  0.34381  0.79701  0.99235  1.0000
  H   H1203     1.0  0.29639  0.88223  0.00113  1.0000
  C   C744      1.0  0.44759  0.62034  0.29986  1.0000
  S   S312      1.0  0.30276  0.81557  0.99081  1.0000
  H   H1204     1.0  0.31747  0.92805  0.20363  1.0000
  C   C745      1.0  0.26282  0.53014  0.05934  1.0000
  H   H1205     1.0  0.28843  0.49729  0.25826  1.0000
  H   H1206     1.0  0.32625  0.91640  0.22697  1.0000
  H   H1207     1.0  0.42258  0.65096  0.31536  1.0000
  C   C746      1.0  0.41149  0.85083  0.30367  1.0000
  H   H1208     1.0  0.48591  0.96097  0.25653  1.0000
  C   C747      1.0  0.24322  0.51168  0.08797  1.0000
  H   H1209     1.0  0.43936  0.60745  0.30679  1.0000
  C   C748      1.0  0.32681  0.92977  0.21473  1.0000
  H   H1210     1.0  0.46793  0.85853  0.11322  1.0000
  Fe  Fe153     1.0  0.39520  0.50348  0.24048  1.0000
  H   H1211     1.0  0.28299  0.85799  0.04160  1.0000
  C   C749      1.0  0.35100  0.51056  0.16171  1.0000
  C   C750      1.0  0.47204  0.98603  0.17830  1.0000
  H   H1212     1.0  0.30663  0.82954  0.02779  1.0000
  H   H1213     1.0  0.42710  0.81374  0.29480  1.0000
  C   C751      1.0  0.47878  0.67056  0.98964  1.0000
  H   H1214     1.0  0.34968  0.52679  0.16052  1.0000
  H   H1215     1.0  0.48268  0.53709  0.24931  1.0000
  Fe  Fe154     1.0  0.24748  0.87394  0.99561  1.0000
  Fe  Fe155     1.0  0.27507  0.97051  0.09468  1.0000
  N   N75       1.0  0.43471  0.63711  0.28893  1.0000
  C   C752      1.0  0.42723  0.62953  0.27334  1.0000
  C   C753      1.0  0.25553  0.91958  0.03683  1.0000
  H   H1216     1.0  0.27258  0.51864  0.08806  1.0000
  C   C754      1.0  0.44102  0.56364  0.26119  1.0000
  C   C755      1.0  0.42686  0.55118  0.27134  1.0000
  C   C756      1.0  0.41911  0.53944  0.26072  1.0000
  C   C757      1.0  0.42537  0.54030  0.23985  1.0000
  C   C758      1.0  0.43945  0.55285  0.22976  1.0000
  C   C759      1.0  0.44726  0.56447  0.24036  1.0000
  H   H1217     1.0  0.42195  0.55048  0.28746  1.0000
  H   H1218     1.0  0.40820  0.52988  0.26861  1.0000
  H   H1219     1.0  0.44426  0.55369  0.21360  1.0000
  H   H1220     1.0  0.45800  0.57417  0.23232  1.0000
  S   S313      1.0  0.27372  0.97446  0.12689  1.0000
  C   C760      1.0  0.48022  0.86648  0.11302  1.0000
  H   H1221     1.0  0.33061  0.83369  0.01327  1.0000
  N   N76       1.0  0.34779  0.93140  0.20488  1.0000
  C   C761      1.0  0.34775  0.94906  0.18848  1.0000
  C   C762      1.0  0.35693  0.91276  0.19636  1.0000
  C   C763      1.0  0.35962  0.93395  0.21991  1.0000
  H   H1222     1.0  0.34153  0.96347  0.19438  1.0000
  H   H1223     1.0  0.36325  0.95033  0.18012  1.0000
  H   H1224     1.0  0.33835  0.94794  0.17727  1.0000
  H   H1225     1.0  0.35880  0.89935  0.20844  1.0000
  H   H1226     1.0  0.37220  0.91403  0.18737  1.0000
  H   H1227     1.0  0.34748  0.90946  0.18623  1.0000
  H   H1228     1.0  0.37577  0.93408  0.21317  1.0000
  H   H1229     1.0  0.35921  0.92134  0.23295  1.0000
  H   H1230     1.0  0.35379  0.94831  0.22602  1.0000
  H   H1231     1.0  0.34078  0.86759  0.00785  1.0000
  C   C764      1.0  0.41171  0.57376  0.99863  1.0000
  S   S314      1.0  0.48909  0.91402  0.13631  1.0000
  C   C765      1.0  0.26077  0.51991  0.07924  1.0000
  H   H1232     1.0  0.48187  0.66423  0.00524  1.0000
  S   S315      1.0  0.25018  0.90317  0.00501  1.0000
  H   H1233     1.0  0.46688  0.76144  0.99846  1.0000
  C   C766      1.0  0.32876  0.87151  0.02068  1.0000
  C   C767      1.0  0.48480  0.68318  0.31331  1.0000
  H   H1234     1.0  0.46593  0.52416  0.26874  1.0000
  C   C768      1.0  0.41001  0.55528  0.01156  1.0000
  H   H1235     1.0  0.48030  0.95463  0.17496  1.0000
  H   H1236     1.0  0.32612  0.83365  0.04011  1.0000
  H   H1237     1.0  0.46488  0.61266  0.00012  1.0000
  H   H1238     1.0  0.42644  0.57779  0.99250  1.0000
  C   C769      1.0  0.25583  0.91976  0.05733  1.0000
  S   S316      1.0  0.25908  0.92981  0.13957  1.0000
  C   C770      1.0  0.37858  0.88652  0.26601  1.0000
  C   C771      1.0  0.43307  0.86180  0.27267  1.0000
  S   S317      1.0  0.37883  0.89871  0.30140  1.0000
  H   H1239     1.0  0.39816  0.85450  0.29574  1.0000
  C   C772      1.0  0.29620  0.86587  0.03992  1.0000
  H   H1240     1.0  0.32002  0.50664  0.23816  1.0000
  C   C773      1.0  0.39438  0.58708  0.99402  1.0000
  N   N77       1.0  0.38663  0.56141  0.08199  1.0000
  C   C774      1.0  0.40682  0.55961  0.06930  1.0000
  C   C775      1.0  0.38215  0.54102  0.09143  1.0000
  C   C776      1.0  0.37126  0.57161  0.06928  1.0000
  C   C777      1.0  0.38625  0.57340  0.09796  1.0000
  H   H1241     1.0  0.41055  0.57469  0.06161  1.0000
  H   H1242     1.0  0.40766  0.55044  0.05724  1.0000
  H   H1243     1.0  0.41883  0.55213  0.07840  1.0000
  H   H1244     1.0  0.36692  0.54182  0.10093  1.0000
  H   H1245     1.0  0.38241  0.53150  0.07982  1.0000
  H   H1246     1.0  0.39328  0.53287  0.10132  1.0000
  H   H1247     1.0  0.35586  0.57353  0.07839  1.0000
  H   H1248     1.0  0.37083  0.56268  0.05741  1.0000
  H   H1249     1.0  0.37442  0.58683  0.06140  1.0000
  H   H1250     1.0  0.37124  0.57490  0.10788  1.0000
  H   H1251     1.0  0.38945  0.58893  0.09136  1.0000
  H   H1252     1.0  0.39771  0.56615  0.10782  1.0000
  N   N78       1.0  0.31175  0.86041  0.02270  1.0000
  C   C778      1.0  0.30287  0.86586  0.00393  1.0000
  S   S318      1.0  0.47984  0.62052  0.23854  1.0000
  H   H1253     1.0  0.40862  0.83843  0.31652  1.0000
  H   H1254     1.0  0.47825  0.53756  0.29453  1.0000
  H   H1255     1.0  0.29050  0.85716  0.00475  1.0000
  H   H1256     1.0  0.25963  0.93225  0.02557  1.0000
  C   C779      1.0  0.47690  0.88286  0.12364  1.0000
  C   C780      1.0  0.48605  0.83446  0.01082  1.0000
  H   H1257     1.0  0.46024  0.64772  0.26877  1.0000
  C   C781      1.0  0.47984  0.82885  0.99464  1.0000
  H   H1258     1.0  0.27689  0.50411  0.23586  1.0000
  H   H1259     1.0  0.44736  0.85831  0.26210  1.0000
  H   H1260     1.0  0.43990  0.62323  0.26227  1.0000
  H   H1261     1.0  0.46225  0.83780  0.29068  1.0000
  Fe  Fe156     1.0  0.47912  0.59007  0.25780  1.0000
  H   H1262     1.0  0.43337  0.87618  0.27793  1.0000
  S   S319      1.0  0.25153  0.84261  0.01348  1.0000
  H   H1263     1.0  0.44662  0.82808  0.31327  1.0000
  Fe  Fe157     1.0  0.24439  0.96209  0.13295  1.0000
  C   C782      1.0  0.31709  0.50015  0.22544  1.0000
  H   H1264     1.0  0.47927  0.50054  0.29723  1.0000
  H   H1265     1.0  0.25824  0.49022  0.05138  1.0000
  C   C783      1.0  0.30864  0.49081  0.29899  1.0000
  H   H1266     1.0  0.46235  0.97732  0.26149  1.0000
  C   C784      1.0  0.35752  0.49785  0.17878  1.0000
  H   H1267     1.0  0.41201  0.86445  0.31017  1.0000
  H   H1268     1.0  0.33196  0.49459  0.21675  1.0000
  H   H1269     1.0  0.48346  0.51043  0.25103  1.0000
  H   H1270     1.0  0.46457  0.76824  0.02301  1.0000
  H   H1271     1.0  0.24841  0.54053  0.03296  1.0000
  H   H1272     1.0  0.47092  0.78604  0.00080  1.0000
  C   C785      1.0  0.46306  0.96283  0.31641  1.0000
  H   H1273     1.0  0.48189  0.78077  0.09448  1.0000
  H   H1274     1.0  0.49138  0.62790  0.30324  1.0000
  C   C786      1.0  0.24471  0.88682  0.04556  1.0000
  C   C787      1.0  0.24493  0.88703  0.06606  1.0000
  Fe  Fe158     1.0  0.39938  0.90770  0.31887  1.0000
  C   C788      1.0  0.28574  0.49145  0.24497  1.0000
  H   H1275     1.0  0.31425  0.86234  0.99052  1.0000
  H   H1276     1.0  0.48979  0.73822  0.03289  1.0000
  H   H1277     1.0  0.49086  0.75463  0.12348  1.0000
  S   S320      1.0  0.36208  0.49199  0.07774  1.0000
  Fe  Fe159     1.0  0.35548  0.49183  0.26551  1.0000
  C   C789      1.0  0.38518  0.70215  0.62316  1.0000
  H   H1278     1.0  0.37914  0.96466  0.58975  1.0000
  H   H1279     1.0  0.38695  0.73873  0.63234  1.0000
  Fe  Fe160     1.0  0.44013  0.75165  0.61569  1.0000
  S   S321      1.0  0.41308  0.76573  0.60023  1.0000
  H   H1280     1.0  0.39212  0.85797  0.58515  1.0000
  Fe  Fe161     1.0  0.30665  0.71485  0.53414  1.0000
  S   S322      1.0  0.30265  0.74350  0.51178  1.0000
  S   S323      1.0  0.28689  0.68988  0.54167  1.0000
  Fe  Fe162     1.0  0.34613  0.72444  0.54316  1.0000
  S   S324      1.0  0.34540  0.75328  0.52074  1.0000
  S   S325      1.0  0.37262  0.71110  0.55958  1.0000
  Fe  Fe163     1.0  0.31249  0.75870  0.53402  1.0000
  S   S326      1.0  0.29632  0.79005  0.53948  1.0000
  Fe  Fe164     1.0  0.33583  0.73563  0.50068  1.0000
  S   S327      1.0  0.34617  0.73645  0.46711  1.0000
  S   S328      1.0  0.31362  0.73066  0.55771  1.0000
  S   S329      1.0  0.33942  0.70625  0.52185  1.0000
  Fe  Fe165     1.0  0.45054  0.74735  0.36792  1.0000
  H   H1281     1.0  0.28028  0.95750  0.53558  1.0000
  S   S330      1.0  0.43022  0.77560  0.35604  1.0000
  Fe  Fe166     1.0  0.46601  0.70253  0.36575  1.0000
  H   H1282     1.0  0.25845  0.81927  0.53246  1.0000
  Fe  Fe167     1.0  0.45235  0.71748  0.40667  1.0000
  S   S331      1.0  0.43980  0.71057  0.43982  1.0000
  S   S332      1.0  0.43671  0.71913  0.38033  1.0000
  H   H1283     1.0  0.47739  0.82051  0.35916  1.0000
  S   S333      1.0  0.43525  0.91789  0.35134  1.0000
  H   H1284     1.0  0.39995  0.96904  0.35900  1.0000
  S   S334      1.0  0.39937  0.89258  0.35117  1.0000
  H   H1285     1.0  0.26195  0.49671  0.36153  1.0000
  Fe  Fe168     1.0  0.40150  0.92345  0.35685  1.0000
  S   S335      1.0  0.38462  0.93447  0.38552  1.0000
  Fe  Fe169     1.0  0.43302  0.88842  0.34286  1.0000
  S   S336      1.0  0.45578  0.86101  0.35170  1.0000
  H   H1286     1.0  0.24363  0.56833  0.57976  1.0000
  H   H1287     1.0  0.28776  0.54077  0.35774  1.0000
  Fe  Fe170     1.0  0.32261  0.87804  0.58255  1.0000
  S   S337      1.0  0.30412  0.89542  0.60663  1.0000
  S   S338      1.0  0.33129  0.84374  0.58707  1.0000
  Fe  Fe171     1.0  0.32913  0.91661  0.55308  1.0000
  S   S339      1.0  0.31064  0.93710  0.57423  1.0000
  S   S340      1.0  0.34413  0.92682  0.52148  1.0000
  Fe  Fe172     1.0  0.32717  0.91674  0.59783  1.0000
  S   S341      1.0  0.34362  0.92644  0.61973  1.0000
  Fe  Fe173     1.0  0.28935  0.91432  0.58093  1.0000
  H   H1288     1.0  0.47130  0.89870  0.37080  1.0000
  S   S342      1.0  0.34695  0.89745  0.57603  1.0000
  S   S343      1.0  0.30648  0.89576  0.55756  1.0000
  C   C790      1.0  0.35315  0.94980  0.51779  1.0000
  C   C791      1.0  0.41096  0.82186  0.60149  1.0000
  C   C792      1.0  0.32373  0.98213  0.42157  1.0000
  H   H1289     1.0  0.36542  0.94848  0.48646  1.0000
  H   H1290     1.0  0.34263  0.95542  0.54832  1.0000
  N   N79       1.0  0.40769  0.78261  0.42014  1.0000
  C   C793      1.0  0.35474  0.98082  0.52935  1.0000
  H   H1291     1.0  0.26575  0.88406  0.57226  1.0000
  C   C794      1.0  0.38746  0.95833  0.38979  1.0000
  Fe  Fe174     1.0  0.45177  0.72101  0.65251  1.0000
  H   H1292     1.0  0.39262  0.80479  0.43885  1.0000
  H   H1293     1.0  0.43891  0.95885  0.34151  1.0000
  H   H1294     1.0  0.29559  0.98454  0.39792  1.0000
  H   H1295     1.0  0.39470  0.80503  0.57725  1.0000
  S   S344      1.0  0.25574  0.92491  0.58216  1.0000
  H   H1296     1.0  0.26643  0.52066  0.34674  1.0000
  C   C795      1.0  0.34720  0.95104  0.62198  1.0000
  C   C796      1.0  0.33542  0.96870  0.61373  1.0000
  H   H1297     1.0  0.36097  0.81844  0.61064  1.0000
  H   H1298     1.0  0.25843  0.69029  0.48013  1.0000
  H   H1299     1.0  0.36695  0.85294  0.59415  1.0000
  H   H1300     1.0  0.32376  0.96758  0.60551  1.0000
  H   H1301     1.0  0.25573  0.53090  0.53627  1.0000
  C   C797      1.0  0.43732  0.79909  0.35592  1.0000
  C   C798      1.0  0.42318  0.81678  0.35303  1.0000
  C   C799      1.0  0.42856  0.83581  0.35229  1.0000
  C   C800      1.0  0.44818  0.83726  0.35426  1.0000
  C   C801      1.0  0.46219  0.81952  0.35758  1.0000
  C   C802      1.0  0.45677  0.80046  0.35848  1.0000
  H   H1302     1.0  0.41971  0.77587  0.44803  1.0000
  H   H1303     1.0  0.33952  0.97961  0.42450  1.0000
  C   C803      1.0  0.36547  0.97198  0.63518  1.0000
  H   H1304     1.0  0.46777  0.78687  0.36075  1.0000
  C   C804      1.0  0.37204  0.72824  0.45985  1.0000
  C   C805      1.0  0.38505  0.72252  0.47413  1.0000
  C   C806      1.0  0.40578  0.71654  0.46787  1.0000
  C   C807      1.0  0.41358  0.71636  0.44734  1.0000
  C   C808      1.0  0.40047  0.72168  0.43312  1.0000
  C   C809      1.0  0.37972  0.72755  0.43938  1.0000
  H   H1305     1.0  0.37921  0.72293  0.48998  1.0000
  H   H1306     1.0  0.41585  0.71239  0.47895  1.0000
  H   H1307     1.0  0.40633  0.72137  0.41730  1.0000
  H   H1308     1.0  0.36964  0.73176  0.42833  1.0000
  C   C810      1.0  0.30683  0.80489  0.55212  1.0000
  C   C811      1.0  0.32296  0.79663  0.56258  1.0000
  C   C812      1.0  0.33034  0.80868  0.57320  1.0000
  C   C813      1.0  0.32184  0.82915  0.57324  1.0000
  C   C814      1.0  0.30580  0.83742  0.56266  1.0000
  C   C815      1.0  0.29828  0.82533  0.55225  1.0000
  H   H1309     1.0  0.32959  0.78089  0.56268  1.0000
  H   H1310     1.0  0.34267  0.80208  0.58141  1.0000
  H   H1311     1.0  0.29902  0.85309  0.56266  1.0000
  H   H1312     1.0  0.28587  0.83192  0.54416  1.0000
  C   C816      1.0  0.40266  0.75100  0.58758  1.0000
  C   C817      1.0  0.41257  0.73182  0.58399  1.0000
  C   C818      1.0  0.40346  0.72000  0.57477  1.0000
  C   C819      1.0  0.38441  0.72725  0.56910  1.0000
  C   C820      1.0  0.37469  0.74664  0.57225  1.0000
  C   C821      1.0  0.38379  0.75847  0.58149  1.0000
  H   H1313     1.0  0.42722  0.72604  0.58834  1.0000
  H   H1314     1.0  0.41108  0.70505  0.57224  1.0000
  H   H1315     1.0  0.35999  0.75235  0.56792  1.0000
  H   H1316     1.0  0.37602  0.77332  0.58417  1.0000
  H   H1317     1.0  0.25089  0.51965  0.37117  1.0000
  H   H1318     1.0  0.25106  0.63938  0.52728  1.0000
  C   C822      1.0  0.27046  0.69073  0.50706  1.0000
  C   C823      1.0  0.27368  0.68047  0.52626  1.0000
  C   C824      1.0  0.26643  0.66199  0.53345  1.0000
  C   C825      1.0  0.39593  0.72515  0.64018  1.0000
  H   H1319     1.0  0.35615  0.72371  0.64619  1.0000
  H   H1320     1.0  0.27537  0.70523  0.50158  1.0000
  H   H1321     1.0  0.26865  0.65397  0.54835  1.0000
  C   C826      1.0  0.36219  0.95285  0.63275  1.0000
  H   H1322     1.0  0.36208  0.98287  0.57595  1.0000
  C   C827      1.0  0.46591  0.97746  0.64420  1.0000
  S   S345      1.0  0.46434  0.74665  0.39528  1.0000
  H   H1323     1.0  0.30535  0.96264  0.53444  1.0000
  C   C828      1.0  0.46323  0.96944  0.35001  1.0000
  C   C829      1.0  0.29501  0.95887  0.52550  1.0000
  S   S346      1.0  0.45404  0.71890  0.61973  1.0000
  C   C830      1.0  0.38274  0.84867  0.59714  1.0000
  H   H1324     1.0  0.37538  0.95215  0.42149  1.0000
  H   H1325     1.0  0.41593  0.76049  0.40015  1.0000
  H   H1326     1.0  0.41428  0.68714  0.64682  1.0000
  C   C831      1.0  0.34967  0.96132  0.53335  1.0000
  H   H1327     1.0  0.48911  0.90850  0.38094  1.0000
  C   C832      1.0  0.38940  0.79608  0.42796  1.0000
  C   C833      1.0  0.42347  0.79482  0.40969  1.0000
  S   S347      1.0  0.47847  0.73101  0.35092  1.0000
  C   C834      1.0  0.36254  0.95744  0.49848  1.0000
  H   H1328     1.0  0.30292  0.50881  0.34364  1.0000
  Fe  Fe175     1.0  0.46644  0.76240  0.64263  1.0000
  S   S348      1.0  0.39840  0.93900  0.32520  1.0000
  H   H1329     1.0  0.26034  0.49521  0.32495  1.0000
  H   H1330     1.0  0.33162  0.97163  0.38485  1.0000
  C   C835      1.0  0.38095  0.98295  0.41274  1.0000
  C   C836      1.0  0.26470  0.51203  0.36239  1.0000
  H   H1331     1.0  0.26442  0.96680  0.50431  1.0000
  C   C837      1.0  0.33466  0.98697  0.38538  1.0000
  H   H1332     1.0  0.41818  0.80623  0.39703  1.0000
  H   H1333     1.0  0.31980  0.96706  0.42148  1.0000
  C   C838      1.0  0.45364  0.96325  0.33645  1.0000
  H   H1334     1.0  0.26593  0.50582  0.40198  1.0000
  C   C839      1.0  0.41331  0.97660  0.56860  1.0000
  H   H1335     1.0  0.35082  0.98528  0.38679  1.0000
  H   H1336     1.0  0.42500  0.98666  0.56468  1.0000
  C   C840      1.0  0.26070  0.68227  0.49501  1.0000
  H   H1337     1.0  0.41698  0.80548  0.60174  1.0000
  C   C841      1.0  0.28550  0.53143  0.37304  1.0000
  H   H1338     1.0  0.29886  0.53113  0.38020  1.0000
  C   C842      1.0  0.38927  0.82147  0.57756  1.0000
  C   C843      1.0  0.49095  0.97631  0.32308  1.0000
  Fe  Fe176     1.0  0.48330  0.73084  0.61560  1.0000
  C   C844      1.0  0.37779  0.97446  0.57487  1.0000
  H   H1339     1.0  0.24543  0.86275  0.56175  1.0000
  H   H1340     1.0  0.30154  0.94363  0.52147  1.0000
  H   H1341     1.0  0.37358  0.82488  0.57410  1.0000
  N   N80       1.0  0.28266  0.51078  0.37184  1.0000
  C   C845      1.0  0.48220  0.90962  0.36722  1.0000
  C   C846      1.0  0.40270  0.77145  0.40572  1.0000
  H   H1342     1.0  0.27207  0.53938  0.38218  1.0000
  H   H1343     1.0  0.39793  0.78187  0.39219  1.0000
  N   N81       1.0  0.38625  0.70698  0.64308  1.0000
  H   H1344     1.0  0.25173  0.89926  0.63983  1.0000
  H   H1345     1.0  0.41201  0.82548  0.61643  1.0000
  H   H1346     1.0  0.39881  0.83005  0.56507  1.0000
  C   C847      1.0  0.48122  0.96236  0.63740  1.0000
  H   H1347     1.0  0.48604  0.96239  0.62134  1.0000
  H   H1348     1.0  0.32261  0.98153  0.50296  1.0000
  C   C848      1.0  0.31278  0.97584  0.49485  1.0000
  H   H1349     1.0  0.25226  0.49479  0.53860  1.0000
  H   H1350     1.0  0.31457  0.49990  0.36588  1.0000
  H   H1351     1.0  0.37497  0.98270  0.47959  1.0000
  H   H1352     1.0  0.27755  0.97968  0.48154  1.0000
  H   H1353     1.0  0.49059  0.73384  0.52655  1.0000
  N   N82       1.0  0.29274  0.97427  0.50727  1.0000
  H   H1354     1.0  0.42802  0.80311  0.42016  1.0000
  H   H1355     1.0  0.29277  0.49798  0.40021  1.0000
  H   H1356     1.0  0.37723  0.78727  0.43602  1.0000
  H   H1357     1.0  0.31165  0.98654  0.48047  1.0000
  H   H1358     1.0  0.47743  0.63616  0.33761  1.0000
  H   H1359     1.0  0.39025  0.76276  0.41280  1.0000
  C   C849      1.0  0.24252  0.89162  0.63281  1.0000
  H   H1360     1.0  0.43725  0.78516  0.40308  1.0000
  C   C850      1.0  0.41514  0.76808  0.43716  1.0000
  H   H1361     1.0  0.40331  0.75917  0.44581  1.0000
  C   C851      1.0  0.25359  0.66369  0.50212  1.0000
  H   H1362     1.0  0.38196  0.79850  0.61387  1.0000
  S   S349      1.0  0.46954  0.76371  0.60901  1.0000
  H   H1363     1.0  0.42845  0.75707  0.43181  1.0000
  H   H1364     1.0  0.38327  0.80715  0.41550  1.0000
  H   H1365     1.0  0.40053  0.69839  0.61442  1.0000
  H   H1366     1.0  0.38298  0.85320  0.61188  1.0000
  H   H1367     1.0  0.47342  0.92515  0.36447  1.0000
  H   H1368     1.0  0.37735  0.68895  0.62466  1.0000
  H   H1369     1.0  0.47713  0.89646  0.33402  1.0000
  H   H1370     1.0  0.47909  0.92285  0.32821  1.0000
  C   C852      1.0  0.38082  0.96339  0.40919  1.0000
  N   N83       1.0  0.38998  0.82678  0.59738  1.0000
  H   H1371     1.0  0.32072  0.96088  0.49101  1.0000
  C   C853      1.0  0.39482  0.97282  0.37403  1.0000
  C   C854      1.0  0.37691  0.81509  0.61335  1.0000
  H   H1372     1.0  0.42124  0.83039  0.58973  1.0000
  S   S350      1.0  0.48041  0.69846  0.39348  1.0000
  H   H1373     1.0  0.26233  0.80388  0.56778  1.0000
  H   H1374     1.0  0.41636  0.96641  0.55706  1.0000
  H   H1375     1.0  0.41108  0.72306  0.63072  1.0000
  H   H1376     1.0  0.28623  0.95344  0.49042  1.0000
  C   C855      1.0  0.36771  0.97687  0.49453  1.0000
  C   C856      1.0  0.49011  0.94704  0.65134  1.0000
  H   H1377     1.0  0.41543  0.96699  0.58344  1.0000
  S   S351      1.0  0.48223  0.73025  0.64897  1.0000
  H   H1378     1.0  0.45606  0.96936  0.36560  1.0000
  C   C857      1.0  0.48528  0.80500  0.65147  1.0000
  H   H1379     1.0  0.37701  0.81865  0.62854  1.0000
  N   N84       1.0  0.32871  0.67883  0.47531  1.0000
  C   C858      1.0  0.32194  0.66747  0.49546  1.0000
  C   C859      1.0  0.32706  0.66745  0.45951  1.0000
  C   C860      1.0  0.34994  0.68153  0.47366  1.0000
  C   C861      1.0  0.31586  0.69888  0.47251  1.0000
  H   H1380     1.0  0.33189  0.65268  0.49857  1.0000
  H   H1381     1.0  0.30633  0.66429  0.49682  1.0000
  H   H1382     1.0  0.32179  0.67608  0.50780  1.0000
  H   H1383     1.0  0.33662  0.65225  0.46115  1.0000
  H   H1384     1.0  0.31121  0.66509  0.46040  1.0000
  H   H1385     1.0  0.33190  0.67567  0.44411  1.0000
  H   H1386     1.0  0.35168  0.69040  0.48509  1.0000
  H   H1387     1.0  0.35551  0.69003  0.45862  1.0000
  H   H1388     1.0  0.36014  0.66678  0.47593  1.0000
  H   H1389     1.0  0.31585  0.70749  0.48482  1.0000
  H   H1390     1.0  0.29996  0.69749  0.47243  1.0000
  H   H1391     1.0  0.32127  0.70837  0.45801  1.0000
  C   C862      1.0  0.27968  0.49893  0.39243  1.0000
  C   C863      1.0  0.47916  0.66797  0.32914  1.0000
  H   H1392     1.0  0.37689  0.71516  0.61385  1.0000
  H   H1393     1.0  0.37141  0.93931  0.63918  1.0000
  H   H1394     1.0  0.37970  0.96433  0.56342  1.0000
  H   H1395     1.0  0.40803  0.81575  0.35133  1.0000
  S   S352      1.0  0.46887  0.67300  0.35383  1.0000
  H   H1396     1.0  0.41759  0.84937  0.34994  1.0000
  C   C864      1.0  0.48160  0.64803  0.32538  1.0000
  S   S353      1.0  0.43582  0.75310  0.64870  1.0000
  H   H1397     1.0  0.37721  0.97303  0.64332  1.0000
  H   H1398     1.0  0.24584  0.87507  0.63825  1.0000
  C   C865      1.0  0.48198  0.97580  0.34336  1.0000
  H   H1399     1.0  0.24801  0.89411  0.61622  1.0000
  C   C866      1.0  0.27964  0.96828  0.49535  1.0000
  C   C867      1.0  0.25641  0.65366  0.52152  1.0000
  N   N85       1.0  0.39275  0.98844  0.56948  1.0000
  C   C868      1.0  0.25025  0.88993  0.57050  1.0000
  C   C869      1.0  0.24569  0.80786  0.57202  1.0000
  C   C870      1.0  0.30060  0.50072  0.35951  1.0000
  C   C871      1.0  0.36349  0.98871  0.50986  1.0000
  C   C872      1.0  0.48783  0.90744  0.33163  1.0000
  H   H1400     1.0  0.25653  0.78301  0.54409  1.0000
  H   H1401     1.0  0.37596  0.98656  0.42779  1.0000
  C   C873      1.0  0.33843  0.98783  0.61651  1.0000
  Fe  Fe177     1.0  0.49112  0.72776  0.37972  1.0000
  H   H1402     1.0  0.31388  0.98849  0.43463  1.0000
  H   H1403     1.0  0.24263  0.82315  0.57652  1.0000
  H   H1404     1.0  0.37036  0.94686  0.84623  1.0000
  Fe  Fe178     1.0  0.45911  0.59570  0.74618  1.0000
  H   H1405     1.0  0.46841  0.88504  0.88664  1.0000
  H   H1406     1.0  0.40961  0.58424  0.89745  1.0000
  Fe  Fe179     1.0  0.42571  0.57164  0.76719  1.0000
  S   S354      1.0  0.43602  0.56678  0.79718  1.0000
  S   S355      1.0  0.39715  0.55998  0.76621  1.0000
  Fe  Fe180     1.0  0.44071  0.59907  0.78966  1.0000
  S   S356      1.0  0.43338  0.62135  0.81152  1.0000
  H   H1407     1.0  0.43151  0.65916  0.77771  1.0000
  H   H1408     1.0  0.36263  0.54986  0.71674  1.0000
  S   S357      1.0  0.42734  0.60493  0.76111  1.0000
  S   S358      1.0  0.45661  0.56255  0.75000  1.0000
  H   H1409     1.0  0.27432  0.94973  0.93176  1.0000
  H   H1410     1.0  0.48776  0.97982  0.76429  1.0000
  C   C874      1.0  0.47733  0.89155  0.92951  1.0000
  H   H1411     1.0  0.38217  0.53138  0.72676  1.0000
  H   H1412     1.0  0.44929  0.68829  0.77580  1.0000
  S   S359      1.0  0.47266  0.59205  0.77443  1.0000
  S   S360      1.0  0.48629  0.53297  0.79531  1.0000
  H   H1413     1.0  0.47555  0.67684  0.66963  1.0000
  S   S361      1.0  0.26903  0.97599  0.82461  1.0000
  Fe  Fe181     1.0  0.26800  0.96107  0.85709  1.0000
  S   S362      1.0  0.28590  0.93106  0.86787  1.0000
  C   C875      1.0  0.46986  0.65069  0.78380  1.0000
  H   H1414     1.0  0.41958  0.67091  0.70972  1.0000
  H   H1415     1.0  0.47015  0.90569  0.93557  1.0000
  Fe  Fe182     1.0  0.41534  0.81739  0.94419  1.0000
  H   H1416     1.0  0.37266  0.53765  0.68366  1.0000
  S   S363      1.0  0.38546  0.83523  0.93654  1.0000
  Fe  Fe183     1.0  0.45999  0.80863  0.92665  1.0000
  S   S364      1.0  0.46813  0.79144  0.95617  1.0000
  C   C876      1.0  0.41851  0.51149  0.80898  1.0000
  Fe  Fe184     1.0  0.44061  0.77737  0.95893  1.0000
  C   C877      1.0  0.47723  0.65383  0.74737  1.0000
  S   S365      1.0  0.48651  0.81134  0.90126  1.0000
  S   S366      1.0  0.43392  0.79234  0.92802  1.0000
  S   S367      1.0  0.44106  0.83485  0.94028  1.0000
  Fe  Fe185     1.0  0.47245  0.60833  0.95752  1.0000
  S   S368      1.0  0.44809  0.63369  0.96656  1.0000
  H   H1417     1.0  0.33875  0.51267  0.69983  1.0000
  Fe  Fe186     1.0  0.45362  0.60431  0.92168  1.0000
  S   S369      1.0  0.42821  0.62953  0.92766  1.0000
  S   S370      1.0  0.45469  0.58410  0.89880  1.0000
  Fe  Fe187     1.0  0.45172  0.64563  0.93333  1.0000
  S   S371      1.0  0.45455  0.67777  0.91883  1.0000
  Fe  Fe188     1.0  0.42698  0.61496  0.96023  1.0000
  H   H1418     1.0  0.44419  0.63822  0.76559  1.0000
  H   H1419     1.0  0.34375  0.98626  0.83022  1.0000
  S   S372      1.0  0.45112  0.58868  0.95392  1.0000
  C   C878      1.0  0.44370  0.72693  0.95845  1.0000
  C   C879      1.0  0.45064  0.73127  0.93771  1.0000
  C   C880      1.0  0.45336  0.71620  0.92558  1.0000
  C   C881      1.0  0.44905  0.69678  0.93411  1.0000
  C   C882      1.0  0.44160  0.69261  0.95478  1.0000
  C   C883      1.0  0.43902  0.70764  0.96693  1.0000
  H   H1420     1.0  0.45431  0.74611  0.93105  1.0000
  H   H1421     1.0  0.45908  0.71953  0.90959  1.0000
  H   H1422     1.0  0.43792  0.67781  0.96143  1.0000
  H   H1423     1.0  0.43673  0.66212  0.75049  1.0000
  H   H1424     1.0  0.46320  0.50365  0.82633  1.0000
  N   N86       1.0  0.46259  0.66054  0.76469  1.0000
  C   C884      1.0  0.25121  0.91481  0.88303  1.0000
  H   H1425     1.0  0.43439  0.63672  0.72532  1.0000
  H   H1426     1.0  0.32464  0.98597  0.85216  1.0000
  H   H1427     1.0  0.48468  0.65468  0.78457  1.0000
  N   N87       1.0  0.24287  0.94702  0.93704  1.0000
  C   C885      1.0  0.46860  0.96213  0.67887  1.0000
  H   H1428     1.0  0.29379  0.49753  0.69699  1.0000
  H   H1429     1.0  0.49042  0.64262  0.68537  1.0000
  H   H1430     1.0  0.36379  0.95370  0.82130  1.0000
  H   H1431     1.0  0.46085  0.85032  0.89929  1.0000
  C   C886      1.0  0.27158  0.91386  0.88406  1.0000
  C   C887      1.0  0.28064  0.89919  0.89840  1.0000
  C   C888      1.0  0.26933  0.88559  0.91178  1.0000
  H   H1432     1.0  0.37409  0.51129  0.68255  1.0000
  C   C889      1.0  0.34387  0.80940  0.97979  1.0000
  H   H1433     1.0  0.29643  0.89833  0.89919  1.0000
  H   H1434     1.0  0.27647  0.87419  0.92268  1.0000
  H   H1435     1.0  0.36503  0.58210  0.91497  1.0000
  C   C890      1.0  0.36259  0.82946  0.95166  1.0000
  C   C891      1.0  0.36232  0.81360  0.96804  1.0000
  C   C892      1.0  0.34162  0.52321  0.70919  1.0000
  C   C893      1.0  0.44286  0.65484  0.76456  1.0000
  H   H1436     1.0  0.45153  0.52117  0.78419  1.0000
  C   C894      1.0  0.39927  0.53441  0.76403  1.0000
  C   C895      1.0  0.38233  0.52464  0.77060  1.0000
  C   C896      1.0  0.38387  0.50396  0.76977  1.0000
  C   C897      1.0  0.49162  0.83600  0.89203  1.0000
  C   C898      1.0  0.41913  0.50296  0.75519  1.0000
  C   C899      1.0  0.41762  0.52359  0.75610  1.0000
  H   H1437     1.0  0.36810  0.53300  0.77677  1.0000
  H   H1438     1.0  0.25961  0.96694  0.91459  1.0000
  H   H1439     1.0  0.35653  0.53234  0.73939  1.0000
  H   H1440     1.0  0.43065  0.53110  0.75069  1.0000
  C   C900      1.0  0.43993  0.61121  0.83560  1.0000
  C   C901      1.0  0.44765  0.59067  0.84032  1.0000
  C   C902      1.0  0.45229  0.58262  0.85971  1.0000
  C   C903      1.0  0.44960  0.59510  0.87440  1.0000
  C   C904      1.0  0.44222  0.61574  0.86962  1.0000
  C   C905      1.0  0.43726  0.62374  0.85028  1.0000
  H   H1441     1.0  0.45004  0.58093  0.82907  1.0000
  H   H1442     1.0  0.48643  0.86973  0.82204  1.0000
  H   H1443     1.0  0.44023  0.62552  0.88081  1.0000
  H   H1444     1.0  0.43139  0.63967  0.84670  1.0000
  H   H1445     1.0  0.47229  0.66112  0.73270  1.0000
  C   C906      1.0  0.44657  0.67624  0.68862  1.0000
  C   C907      1.0  0.46656  0.66818  0.68181  1.0000
  H   H1446     1.0  0.36592  0.71497  0.66952  1.0000
  C   C908      1.0  0.46344  0.63733  0.70653  1.0000
  C   C909      1.0  0.44345  0.64543  0.71333  1.0000
  C   C910      1.0  0.43508  0.66480  0.70442  1.0000
  C   C911      1.0  0.48391  0.94700  0.67209  1.0000
  H   H1447     1.0  0.39233  0.51931  0.69373  1.0000
  N   N88       1.0  0.38997  0.58961  0.92528  1.0000
  C   C912      1.0  0.39992  0.59688  0.90462  1.0000
  C   C913      1.0  0.37689  0.57502  0.92440  1.0000
  C   C914      1.0  0.37763  0.60696  0.93428  1.0000
  C   C915      1.0  0.40547  0.57955  0.93787  1.0000
  H   H1448     1.0  0.41000  0.60783  0.90478  1.0000
  H   H1449     1.0  0.38879  0.60462  0.89460  1.0000
  C   C916      1.0  0.44723  0.51041  0.82512  1.0000
  H   H1450     1.0  0.36918  0.56931  0.93980  1.0000
  C   C917      1.0  0.48048  0.87224  0.88585  1.0000
  S   S373      1.0  0.47753  0.62145  0.92455  1.0000
  H   H1451     1.0  0.37027  0.60207  0.95006  1.0000
  H   H1452     1.0  0.36565  0.61490  0.92531  1.0000
  H   H1453     1.0  0.38703  0.61830  0.93515  1.0000
  H   H1454     1.0  0.39860  0.57358  0.95353  1.0000
  H   H1455     1.0  0.41511  0.59035  0.93929  1.0000
  H   H1456     1.0  0.41567  0.56688  0.93121  1.0000
  H   H1457     1.0  0.35849  0.49610  0.73771  1.0000
  H   H1458     1.0  0.45810  0.56668  0.86329  1.0000
  H   H1459     1.0  0.37092  0.49637  0.77545  1.0000
  N   N89       1.0  0.43947  0.50159  0.81058  1.0000
  H   H1460     1.0  0.25833  0.92394  0.95759  1.0000
  H   H1461     1.0  0.32772  0.96321  0.81700  1.0000
  C   C918      1.0  0.36804  0.49856  0.72258  1.0000
  C   C919      1.0  0.36620  0.53390  0.72424  1.0000
  C   C920      1.0  0.37610  0.52205  0.69210  1.0000
  C   C921      1.0  0.32377  0.95549  0.83281  1.0000
  C   C922      1.0  0.39825  0.68970  0.65442  1.0000
  H   H1462     1.0  0.43341  0.49461  0.74912  1.0000
  C   C923      1.0  0.48400  0.82035  0.66294  1.0000
  Fe  Fe189     1.0  0.24438  0.85869  0.95738  1.0000
  H   H1463     1.0  0.33707  0.53893  0.70156  1.0000
  S   S374      1.0  0.42002  0.80111  0.97514  1.0000
  H   H1464     1.0  0.40857  0.51022  0.82395  1.0000
  N   N90       1.0  0.33867  0.95652  0.84548  1.0000
  H   H1465     1.0  0.33133  0.52080  0.72391  1.0000
  C   C924      1.0  0.33255  0.94628  0.86632  1.0000
  C   C925      1.0  0.35874  0.94635  0.83703  1.0000
  C   C926      1.0  0.46032  0.68276  0.76299  1.0000
  H   H1466     1.0  0.47069  0.86571  0.96463  1.0000
  H   H1467     1.0  0.45896  0.65512  0.79721  1.0000
  H   H1468     1.0  0.46846  0.49856  0.79137  1.0000
  S   S375      1.0  0.39614  0.61026  0.97766  1.0000
  H   H1469     1.0  0.47899  0.63716  0.74795  1.0000
  C   C927      1.0  0.24613  0.92616  0.94830  1.0000
  H   H1470     1.0  0.41191  0.50456  0.79884  1.0000
  H   H1471     1.0  0.48073  0.98313  0.79022  1.0000
  C   C928      1.0  0.40240  0.49304  0.76235  1.0000
  H   H1472     1.0  0.39210  0.67543  0.65598  1.0000
  H   H1473     1.0  0.30850  0.96297  0.83884  1.0000
  S   S376      1.0  0.27860  0.98609  0.86696  1.0000
  C   C929      1.0  0.47494  0.64878  0.69073  1.0000
  H   H1474     1.0  0.31748  0.95363  0.87319  1.0000
  H   H1475     1.0  0.47168  0.63390  0.78552  1.0000
  H   H1476     1.0  0.32757  0.96783  0.71390  1.0000
  S   S377      1.0  0.24913  0.82601  0.97185  1.0000
  H   H1477     1.0  0.37739  0.98535  0.70095  1.0000
  Fe  Fe190     1.0  0.44716  0.81635  0.96988  1.0000
  S   S378      1.0  0.44215  0.74482  0.97431  1.0000
  S   S379      1.0  0.47476  0.61336  0.71783  1.0000
  H   H1478     1.0  0.44768  0.49732  0.77949  1.0000
  C   C930      1.0  0.47619  0.85262  0.89312  1.0000
  H   H1479     1.0  0.36502  0.96352  0.70829  1.0000
  C   C931      1.0  0.45231  0.50477  0.79054  1.0000
  S   S380      1.0  0.27013  0.86656  0.96853  1.0000
  H   H1480     1.0  0.43336  0.70433  0.98294  1.0000
  H   H1481     1.0  0.47428  0.96099  0.84722  1.0000
  H   H1482     1.0  0.35855  0.93014  0.83664  1.0000
  Fe  Fe191     1.0  0.46718  0.55998  0.77970  1.0000
  C   C932      1.0  0.32554  0.82101  0.97527  1.0000
  S   S381      1.0  0.43525  0.70045  0.67790  1.0000
  H   H1483     1.0  0.32245  0.93955  0.83242  1.0000
  H   H1484     1.0  0.46561  0.97084  0.77936  1.0000
  C   C933      1.0  0.33955  0.97794  0.84575  1.0000
  C   C934      1.0  0.32577  0.83689  0.95891  1.0000
  N   N91       1.0  0.36299  0.51946  0.71203  1.0000
  H   H1485     1.0  0.25042  0.91477  0.93790  1.0000
  H   H1486     1.0  0.38409  0.49499  0.72493  1.0000
  H   H1487     1.0  0.47493  0.68762  0.76302  1.0000
  C   C935      1.0  0.26162  0.95128  0.92328  1.0000
  C   C936      1.0  0.34424  0.84110  0.94717  1.0000
  H   H1488     1.0  0.46379  0.96216  0.69492  1.0000
  H   H1489     1.0  0.31177  0.84581  0.95514  1.0000
  H   H1490     1.0  0.37632  0.80441  0.97153  1.0000
  H   H1491     1.0  0.34434  0.85331  0.93444  1.0000
  H   H1492     1.0  0.38582  0.56171  0.91781  1.0000
  H   H1493     1.0  0.41774  0.52791  0.80267  1.0000
  H   H1494     1.0  0.47612  0.88897  0.96931  1.0000
  C   C937      1.0  0.47462  0.98337  0.77620  1.0000
  H   H1495     1.0  0.43812  0.50814  0.84049  1.0000
  H   H1496     1.0  0.39805  0.72861  0.65485  1.0000
  C   C938      1.0  0.48278  0.97172  0.83699  1.0000
  H   H1497     1.0  0.46514  0.88288  0.92934  1.0000
  H   H1498     1.0  0.35075  0.97944  0.85500  1.0000
  C   C939      1.0  0.24903  0.88634  0.91055  1.0000
  H   H1499     1.0  0.33129  0.93017  0.86662  1.0000
  S   S382      1.0  0.46871  0.78706  0.65982  1.0000
  H   H1500     1.0  0.45482  0.69058  0.74870  1.0000
  H   H1501     1.0  0.47260  0.82126  0.67629  1.0000
  H   H1502     1.0  0.44701  0.52697  0.82028  1.0000
  H   H1503     1.0  0.24913  0.96032  0.96080  1.0000
  H   H1504     1.0  0.34353  0.94652  0.87631  1.0000
  H   H1505     1.0  0.24419  0.92595  0.87184  1.0000
  H   H1506     1.0  0.26630  0.94068  0.91209  1.0000
  C   C940      1.0  0.36361  0.97966  0.70993  1.0000
  C   C941      1.0  0.45955  0.97732  0.66494  1.0000
  H   H1507     1.0  0.48308  0.69689  0.95464  1.0000
  H   H1508     1.0  0.48457  0.67176  0.94952  1.0000
  H   H1509     1.0  0.36395  0.98033  0.72602  1.0000
  H   H1510     1.0  0.32633  0.98442  0.73178  1.0000
  C   C942      1.0  0.32720  0.98385  0.71544  1.0000
  H   H1511     1.0  0.34636  0.97516  0.67908  1.0000
  H   H1512     1.0  0.39853  0.69241  0.66992  1.0000
  H   H1513     1.0  0.48430  0.89614  0.91354  1.0000
  H   H1514     1.0  0.48865  0.85112  0.93446  1.0000
  C   C943      1.0  0.48293  0.87491  0.96296  1.0000
  H   H1515     1.0  0.32080  0.49417  0.89600  1.0000
  H   H1516     1.0  0.48945  0.81926  0.96555  1.0000
  H   H1517     1.0  0.44776  0.98900  0.67026  1.0000
  H   H1518     1.0  0.35799  0.69743  0.65727  1.0000
  H   H1519     1.0  0.33600  0.49080  0.91550  1.0000
  H   H1520     1.0  0.47056  0.66000  0.98510  1.0000
  C   C944      1.0  0.36564  0.71094  0.65455  1.0000
  Fe  Fe192     1.0  0.27292  0.83485  0.98555  1.0000
  H   H1521     1.0  0.63905  0.04880  0.06530  1.0000
  S   S383      1.0  0.52734  0.05134  0.14749  1.0000
  S   S384      1.0  0.52411  0.39435  0.22583  1.0000
  Fe  Fe193     1.0  0.65016  0.43533  0.19989  1.0000
  S   S385      1.0  0.65469  0.41750  0.23034  1.0000
  S   S386      1.0  0.66643  0.42155  0.17226  1.0000
  H   H1522     1.0  0.61412  0.00815  0.14328  1.0000
  S   S387      1.0  0.62598  0.45512  0.25077  1.0000
  Fe  Fe194     1.0  0.65906  0.44642  0.23902  1.0000
  S   S388      1.0  0.68747  0.44826  0.25124  1.0000
  Fe  Fe195     1.0  0.62143  0.42764  0.23935  1.0000
  S   S389      1.0  0.60318  0.40355  0.25663  1.0000
  S   S390      1.0  0.65719  0.46343  0.20762  1.0000
  S   S391      1.0  0.61670  0.44373  0.20831  1.0000
  H   H1523     1.0  0.54611  0.42730  0.21934  1.0000
  Fe  Fe196     1.0  0.70373  0.09822  0.00944  1.0000
  S   S392      1.0  0.69249  0.08336  0.04110  1.0000
  C   C945      1.0  0.64406  0.00194  0.15087  1.0000
  H   H1524     1.0  0.50431  0.11229  0.06517  1.0000
  C   C946      1.0  0.69997  0.47901  0.30118  1.0000
  C   C947      1.0  0.71164  0.46064  0.27277  1.0000
  H   H1525     1.0  0.68409  0.02274  0.12318  1.0000
  Fe  Fe197     1.0  0.58372  0.04030  0.12199  1.0000
  S   S393      1.0  0.56883  0.07088  0.12909  1.0000
  S   S394      1.0  0.61610  0.03696  0.10602  1.0000
  Fe  Fe198     1.0  0.55535  0.05412  0.15863  1.0000
  H   H1526     1.0  0.61177  0.02175  0.23445  1.0000
  C   C948      1.0  0.63550  0.02322  0.19785  1.0000
  H   H1527     1.0  0.53926  0.32256  0.07734  1.0000
  S   S395      1.0  0.55835  0.03610  0.10754  1.0000
  H   H1528     1.0  0.62810  0.38566  0.00325  1.0000
  S   S396      1.0  0.55309  0.03691  0.30864  1.0000
  H   H1529     1.0  0.50063  0.33796  0.13175  1.0000
  C   C949      1.0  0.63527  0.39699  0.99148  1.0000
  C   C950      1.0  0.60922  0.08037  0.06044  1.0000
  H   H1530     1.0  0.72780  0.41029  0.18971  1.0000
  H   H1531     1.0  0.51406  0.21659  0.28842  1.0000
  H   H1532     1.0  0.50833  0.99797  0.21434  1.0000
  H   H1533     1.0  0.63925  0.00668  0.19737  1.0000
  Fe  Fe199     1.0  0.63601  0.39542  0.07908  1.0000
  S   S397      1.0  0.64510  0.36215  0.07794  1.0000
  S   S398      1.0  0.61811  0.40804  0.10668  1.0000
  Fe  Fe200     1.0  0.65614  0.40701  0.03563  1.0000
  S   S399      1.0  0.66678  0.37479  0.03113  1.0000
  S   S400      1.0  0.66818  0.43073  0.01131  1.0000
  Fe  Fe201     1.0  0.63571  0.36960  0.04692  1.0000
  S   S401      1.0  0.61275  0.35414  0.03759  1.0000
  Fe  Fe202     1.0  0.67517  0.37076  0.06216  1.0000
  S   S402      1.0  0.70677  0.35616  0.06774  1.0000
  S   S403      1.0  0.62453  0.40245  0.04935  1.0000
  S   S404      1.0  0.66640  0.40340  0.06532  1.0000
  N   N92       1.0  0.63117  0.08083  0.05586  1.0000
  C   C951      1.0  0.49545  0.10166  0.07505  1.0000
  H   H1534     1.0  0.58012  0.33372  0.98815  1.0000
  C   C952      1.0  0.54538  0.19077  0.30195  1.0000
  H   H1535     1.0  0.60368  0.07640  0.04766  1.0000
  C   C953      1.0  0.61288  0.34650  0.01404  1.0000
  C   C954      1.0  0.63045  0.34386  0.99977  1.0000
  C   C955      1.0  0.49809  0.00683  0.16428  1.0000
  H   H1536     1.0  0.71254  0.04753  0.10509  1.0000
  C   C956      1.0  0.59477  0.34274  0.00968  1.0000
  C   C957      1.0  0.73093  0.06678  0.04842  1.0000
  H   H1537     1.0  0.51591  0.16119  0.29037  1.0000
  H   H1538     1.0  0.58105  0.34475  0.02049  1.0000
  C   C958      1.0  0.71962  0.37126  0.07765  1.0000
  C   C959      1.0  0.71935  0.39875  0.09579  1.0000
  C   C960      1.0  0.70903  0.38594  0.08921  1.0000
  H   H1539     1.0  0.71090  0.41032  0.10435  1.0000
  H   H1540     1.0  0.69285  0.38738  0.09322  1.0000
  H   H1541     1.0  0.57703  0.43131  0.23109  1.0000
  H   H1542     1.0  0.57985  0.37123  0.26515  1.0000
  C   C961      1.0  0.49803  0.28415  0.01810  1.0000
  S   S405      1.0  0.69804  0.13215  0.00244  1.0000
  C   C962      1.0  0.54996  0.04958  0.20985  1.0000
  C   C963      1.0  0.54978  0.05577  0.22832  1.0000
  C   C964      1.0  0.54586  0.04260  0.24664  1.0000
  C   C965      1.0  0.54226  0.02316  0.24648  1.0000
  C   C966      1.0  0.54260  0.01693  0.22799  1.0000
  C   C967      1.0  0.54631  0.03015  0.20971  1.0000
  C   C968      1.0  0.57839  0.32633  0.07319  1.0000
  H   H1543     1.0  0.54559  0.04748  0.26087  1.0000
  H   H1544     1.0  0.54630  0.33861  0.05395  1.0000
  H   H1545     1.0  0.54649  0.02526  0.19552  1.0000
  H   H1546     1.0  0.55659  0.19124  0.28778  1.0000
  N   N93       1.0  0.56063  0.34165  0.07840  1.0000
  H   H1547     1.0  0.70800  0.41196  0.05161  1.0000
  C   C969      1.0  0.60394  0.02576  0.18609  1.0000
  H   H1548     1.0  0.52947  0.34906  0.07427  1.0000
  C   C970      1.0  0.64210  0.06071  0.05194  1.0000
  C   C971      1.0  0.71032  0.06980  0.05618  1.0000
  C   C972      1.0  0.70371  0.06248  0.07655  1.0000
  C   C973      1.0  0.71770  0.05272  0.08927  1.0000
  H   H1549     1.0  0.55223  0.37405  0.07286  1.0000
  N   N94       1.0  0.51321  0.27343  0.00359  1.0000
  H   H1550     1.0  0.63853  0.40852  0.99940  1.0000
  S   S406      1.0  0.50446  0.33014  0.05142  1.0000
  C   C974      1.0  0.53366  0.27373  0.00746  1.0000
  H   H1551     1.0  0.71983  0.41188  0.31466  1.0000
  H   H1552     1.0  0.54237  0.35176  0.10510  1.0000
  C   C975      1.0  0.54321  0.33781  0.07068  1.0000
  H   H1553     1.0  0.73003  0.17543  0.00460  1.0000
  C   C976      1.0  0.65033  0.44902  0.99989  1.0000
  C   C977      1.0  0.69166  0.46005  0.27081  1.0000
  C   C978      1.0  0.59417  0.33647  0.99130  1.0000
  C   C979      1.0  0.63428  0.02506  0.12132  1.0000
  H   H1554     1.0  0.49718  0.18144  0.31663  1.0000
  N   N95       1.0  0.61345  0.02994  0.20217  1.0000
  H   H1555     1.0  0.62772  0.11155  0.04020  1.0000
  H   H1556     1.0  0.66042  0.46804  0.28338  1.0000
  H   H1557     1.0  0.71905  0.31400  0.05814  1.0000
  Fe  Fe203     1.0  0.51363  0.36393  0.23059  1.0000
  C   C980      1.0  0.65312  0.41913  0.15334  1.0000
  C   C981      1.0  0.66278  0.40728  0.13849  1.0000
  C   C982      1.0  0.65229  0.40418  0.12384  1.0000
  C   C983      1.0  0.63207  0.41299  0.12387  1.0000
  C   C984      1.0  0.62253  0.42516  0.13846  1.0000
  C   C985      1.0  0.63301  0.42827  0.15314  1.0000
  H   H1558     1.0  0.67833  0.40016  0.13847  1.0000
  H   H1559     1.0  0.65969  0.39462  0.11279  1.0000
  H   H1560     1.0  0.60694  0.43217  0.13844  1.0000
  H   H1561     1.0  0.62552  0.43771  0.16428  1.0000
  H   H1562     1.0  0.61509  0.06075  0.18804  1.0000
  H   H1563     1.0  0.50003  0.01244  0.24669  1.0000
  H   H1564     1.0  0.60049  0.09529  0.06356  1.0000
  H   H1565     1.0  0.66764  0.48515  0.30958  1.0000
  H   H1566     1.0  0.68564  0.99722  0.09260  1.0000
  H   H1567     1.0  0.60426  0.42719  0.99508  1.0000
  C   C986      1.0  0.54568  0.39678  0.23517  1.0000
  C   C987      1.0  0.55521  0.38102  0.24815  1.0000
  C   C988      1.0  0.57254  0.38346  0.25507  1.0000
  C   C989      1.0  0.58068  0.40148  0.24872  1.0000
  C   C990      1.0  0.57106  0.41727  0.23584  1.0000
  C   C991      1.0  0.55349  0.41499  0.22927  1.0000
  H   H1568     1.0  0.54918  0.36698  0.25292  1.0000
  H   H1569     1.0  0.70836  0.41164  0.02539  1.0000
  S   S407      1.0  0.57223  0.02380  0.15247  1.0000
  H   H1570     1.0  0.59463  0.40409  0.99738  1.0000
  H   H1571     1.0  0.70165  0.43692  0.14676  1.0000
  C   C992      1.0  0.51735  0.20141  0.28360  1.0000
  H   H1572     1.0  0.57857  0.36530  0.07418  1.0000
  Fe  Fe204     1.0  0.53667  0.01555  0.29912  1.0000
  S   S408      1.0  0.72183  0.99971  0.11085  1.0000
  C   C993      1.0  0.67584  0.46881  0.28430  1.0000
  H   H1573     1.0  0.73159  0.38748  0.16442  1.0000
  H   H1574     1.0  0.55233  0.17938  0.31374  1.0000
  C   C994      1.0  0.67999  0.47837  0.29926  1.0000
  H   H1575     1.0  0.53572  0.26607  0.02302  1.0000
  H   H1576     1.0  0.59964  0.46425  0.00161  1.0000
  H   H1577     1.0  0.49890  0.43289  0.21002  1.0000
  H   H1578     1.0  0.73813  0.20246  0.02008  1.0000
  H   H1579     1.0  0.72982  0.39928  0.03725  1.0000
  N   N96       1.0  0.60873  0.38104  0.19128  1.0000
  C   C995      1.0  0.62159  0.38909  0.20189  1.0000
  C   C996      1.0  0.59952  0.36456  0.20510  1.0000
  C   C997      1.0  0.62115  0.37317  0.17337  1.0000
  C   C998      1.0  0.59260  0.39738  0.18480  1.0000
  H   H1580     1.0  0.63376  0.37715  0.20732  1.0000
  H   H1581     1.0  0.61265  0.39544  0.21531  1.0000
  H   H1582     1.0  0.62898  0.40142  0.19187  1.0000
  H   H1583     1.0  0.59012  0.37005  0.21878  1.0000
  H   H1584     1.0  0.58951  0.35826  0.19770  1.0000
  H   H1585     1.0  0.61189  0.36728  0.16478  1.0000
  H   H1586     1.0  0.63340  0.36072  0.17770  1.0000
  H   H1587     1.0  0.62845  0.38520  0.16275  1.0000
  H   H1588     1.0  0.58279  0.40343  0.19797  1.0000
  H   H1589     1.0  0.58274  0.39196  0.17649  1.0000
  H   H1590     1.0  0.59892  0.41029  0.17471  1.0000
  H   H1591     1.0  0.53894  0.32909  0.01982  1.0000
  H   H1592     1.0  0.65822  0.03917  0.10182  1.0000
  H   H1593     1.0  0.72401  0.45391  0.26243  1.0000
  H   H1594     1.0  0.60778  0.00228  0.22198  1.0000
  H   H1595     1.0  0.58730  0.03039  0.18902  1.0000
  C   C999      1.0  0.72058  0.42266  0.17894  1.0000
  C   C1000     1.0  0.73960  0.43225  0.01137  1.0000
  H   H1596     1.0  0.54782  0.25982  0.29455  1.0000
  C   C1001     1.0  0.74077  0.36888  0.07358  1.0000
  Fe  Fe205     1.0  0.51362  0.31935  0.24837  1.0000
  H   H1597     1.0  0.62432  0.44002  0.02047  1.0000
  H   H1598     1.0  0.72101  0.45162  0.14605  1.0000
  H   H1599     1.0  0.72383  0.43503  0.12787  1.0000
  H   H1600     1.0  0.73146  0.29625  0.04158  1.0000
  C   C1002     1.0  0.66395  0.00572  0.14510  1.0000
  Fe  Fe206     1.0  0.62395  0.47048  0.21874  1.0000
  H   H1601     1.0  0.70275  0.43531  0.31525  1.0000
  H   H1602     1.0  0.60694  0.00937  0.18496  1.0000
  H   H1603     1.0  0.70074  0.44903  0.01848  1.0000
  H   H1604     1.0  0.72989  0.39801  0.13848  1.0000
  C   C1003     1.0  0.50658  0.33745  0.02526  1.0000
  S   S409      1.0  0.51005  0.33195  0.17174  1.0000
  H   H1605     1.0  0.68779  0.06466  0.08263  1.0000
  H   H1606     1.0  0.60954  0.03424  0.17105  1.0000
  C   C1004     1.0  0.53157  0.26166  0.29872  1.0000
  H   H1607     1.0  0.57566  0.31076  0.08020  1.0000
  S   S410      1.0  0.53720  0.00619  0.26896  1.0000
  H   H1608     1.0  0.63471  0.07467  0.08717  1.0000
  C   C1005     1.0  0.49301  0.99879  0.25379  1.0000
  H   H1609     1.0  0.65873  0.06054  0.04854  1.0000
  H   H1610     1.0  0.50287  0.19804  0.28095  1.0000
  H   H1611     1.0  0.73125  0.47058  0.28896  1.0000
  N   N97       1.0  0.52620  0.18570  0.29901  1.0000
  H   H1612     1.0  0.51130  0.24410  0.02161  1.0000
  H   H1613     1.0  0.56857  0.34326  0.10697  1.0000
  H   H1614     1.0  0.64019  0.99124  0.16434  1.0000
  H   H1615     1.0  0.53692  0.15365  0.30378  1.0000
  H   H1616     1.0  0.63088  0.09267  0.02428  1.0000
  H   H1617     1.0  0.64228  0.03104  0.18291  1.0000
  C   C1006     1.0  0.62961  0.44993  0.00696  1.0000
  H   H1618     1.0  0.60532  0.06899  0.07403  1.0000
  C   C1007     1.0  0.63561  0.09615  0.03778  1.0000
  H   H1619     1.0  0.58837  0.02365  0.22554  1.0000
  C   C1008     1.0  0.55575  0.34043  0.10062  1.0000
  C   C1009     1.0  0.71828  0.43665  0.14401  1.0000
  H   H1620     1.0  0.55216  0.32524  0.10817  1.0000
  H   H1621     1.0  0.59270  0.05742  0.20601  1.0000
  H   H1622     1.0  0.52774  0.20263  0.26887  1.0000
  H   H1623     1.0  0.73605  0.07186  0.03262  1.0000
  Fe  Fe207     1.0  0.54231  0.06542  0.11721  1.0000
  Fe  Fe208     1.0  0.50540  0.33453  0.20510  1.0000
  S   S411      1.0  0.52764  0.09031  0.09523  1.0000
  H   H1624     1.0  0.69922  0.44909  0.04494  1.0000
  H   H1625     1.0  0.53655  0.28953  0.00588  1.0000
  C   C1010     1.0  0.51950  0.27723  0.28767  1.0000
  S   S412      1.0  0.49772  0.34824  0.25961  1.0000
  C   C1011     1.0  0.66896  0.01923  0.12743  1.0000
  C   C1012     1.0  0.52544  0.33429  0.01304  1.0000
  C   C1013     1.0  0.49851  0.27952  0.29313  1.0000
  S   S413      1.0  0.53140  0.33541  0.22050  1.0000
  S   S414      1.0  0.53131  0.29345  0.26734  1.0000
  C   C1014     1.0  0.56518  0.36205  0.06907  1.0000
  H   H1626     1.0  0.54006  0.00181  0.22783  1.0000
  S   S415      1.0  0.55593  0.06592  0.18709  1.0000
  H   H1627     1.0  0.61619  0.05572  0.21471  1.0000
  C   C1015     1.0  0.60502  0.01891  0.22189  1.0000
  C   C1016     1.0  0.71580  0.47003  0.28786  1.0000
  H   H1628     1.0  0.50287  0.02143  0.16100  1.0000
  H   H1629     1.0  0.64455  0.34640  0.00297  1.0000
  H   H1630     1.0  0.64328  0.02630  0.20955  1.0000
  C   C1017     1.0  0.53009  0.16572  0.29238  1.0000
  S   S416      1.0  0.73914  0.00437  0.15168  1.0000
  H   H1631     1.0  0.58231  0.32668  0.05653  1.0000
  N   N98       1.0  0.72838  0.41996  0.15771  1.0000
  C   C1018     1.0  0.60923  0.05192  0.20277  1.0000
  C   C1019     1.0  0.65421  0.02873  0.11546  1.0000
  H   H1632     1.0  0.65205  0.09688  0.03384  1.0000
  H   H1633     1.0  0.56872  0.36351  0.05228  1.0000
  H   H1634     1.0  0.59200  0.32909  0.07829  1.0000
  H   H1635     1.0  0.61119  0.35193  0.21038  1.0000
  S   S417      1.0  0.73522  0.09533  0.99216  1.0000
  H   H1636     1.0  0.55262  0.07081  0.22847  1.0000
  C   C1020     1.0  0.52277  0.24854  0.31513  1.0000
  H   H1637     1.0  0.50008  0.30017  0.01672  1.0000
  C   C1021     1.0  0.62927  0.01157  0.13900  1.0000
  C   C1022     1.0  0.49396  0.32070  0.16148  1.0000
  C   C1023     1.0  0.70982  0.44925  0.03033  1.0000
  Fe  Fe209     1.0  0.54541  0.02221  0.13877  1.0000
  C   C1024     1.0  0.61567  0.46365  0.99632  1.0000
  H   H1638     1.0  0.73106  0.43133  0.99933  1.0000
  H   H1639     1.0  0.54551  0.26595  0.99658  1.0000
  H   H1640     1.0  0.62990  0.10108  0.07677  1.0000
  H   H1641     1.0  0.63758  0.05628  0.03882  1.0000
  H   H1642     1.0  0.72335  0.43727  0.18196  1.0000
  C   C1025     1.0  0.63781  0.08601  0.07331  1.0000
  H   H1643     1.0  0.49690  0.48667  0.27968  1.0000
  C   C1026     1.0  0.73234  0.12669  0.03980  1.0000
  C   C1027     1.0  0.52672  0.33688  0.99201  1.0000
  H   H1644     1.0  0.73782  0.32399  0.08094  1.0000
  C   C1028     1.0  0.50365  0.08832  0.09084  1.0000
  C   C1029     1.0  0.73838  0.05041  0.08172  1.0000
  H   H1645     1.0  0.65433  0.08646  0.07033  1.0000
  H   H1646     1.0  0.70771  0.39996  0.15744  1.0000
  H   H1647     1.0  0.73694  0.11809  0.07943  1.0000
  C   C1030     1.0  0.71781  0.41283  0.03657  1.0000
  C   C1031     1.0  0.51196  0.18490  0.31828  1.0000
  H   H1648     1.0  0.70402  0.42266  0.18270  1.0000
  C   C1032     1.0  0.74045  0.39674  0.09122  1.0000
  N   N99       1.0  0.72640  0.43183  0.03127  1.0000
  H   H1649     1.0  0.54070  0.16568  0.27782  1.0000
  H   H1650     1.0  0.72089  0.13634  0.04927  1.0000
  C   C1033     1.0  0.50988  0.25225  0.00605  1.0000
  H   H1651     1.0  0.72553  0.11342  0.03868  1.0000
  H   H1652     1.0  0.52099  0.24376  0.99517  1.0000
  H   H1653     1.0  0.54302  0.20579  0.30686  1.0000
  H   H1654     1.0  0.71566  0.46389  0.02672  1.0000
  H   H1655     1.0  0.72629  0.28789  0.06842  1.0000
  H   H1656     1.0  0.49446  0.25149  0.00352  1.0000
  S   S418      1.0  0.50700  0.02625  0.31743  1.0000
  C   C1034     1.0  0.73831  0.43296  0.04682  1.0000
  H   H1657     1.0  0.49849  0.06404  0.11556  1.0000
  H   H1658     1.0  0.73499  0.13552  0.02430  1.0000
  C   C1035     1.0  0.72422  0.40047  0.15440  1.0000
  H   H1659     1.0  0.49898  0.27685  0.03403  1.0000
  S   S419      1.0  0.53485  0.99215  0.14294  1.0000
  H   H1660     1.0  0.73939  0.09562  0.06886  1.0000
  H   H1661     1.0  0.72875  0.43300  0.06199  1.0000
  H   H1662     1.0  0.65504  0.48467  0.24867  1.0000
  C   C1036     1.0  0.73104  0.30052  0.05660  1.0000
  C   C1037     1.0  0.49225  0.07437  0.10336  1.0000
  S   S420      1.0  0.68220  0.99305  0.16008  1.0000
  C   C1038     1.0  0.51109  0.99003  0.15770  1.0000
  C   C1039     1.0  0.60243  0.41562  0.98644  1.0000
  Fe  Fe210     1.0  0.71464  0.99040  0.14434  1.0000
  Fe  Fe211     1.0  0.63113  0.23177  0.49946  1.0000
  S   S421      1.0  0.59747  0.23937  0.50854  1.0000
  S   S422      1.0  0.65060  0.25389  0.47950  1.0000
  Fe  Fe212     1.0  0.63200  0.18748  0.51839  1.0000
  S   S423      1.0  0.59868  0.19146  0.52952  1.0000
  S   S424      1.0  0.65415  0.15815  0.52039  1.0000
  Fe  Fe213     1.0  0.59578  0.21014  0.49905  1.0000
  S   S425      1.0  0.56981  0.20362  0.48667  1.0000
  Fe  Fe214     1.0  0.60266  0.22021  0.53831  1.0000
  S   S426      1.0  0.58475  0.23180  0.56632  1.0000
  S   S427      1.0  0.62888  0.20400  0.48714  1.0000
  S   S428      1.0  0.63655  0.21474  0.53001  1.0000
  Fe  Fe215     1.0  0.50820  0.21105  0.36180  1.0000
  H   H1663     1.0  0.63048  0.99372  0.50839  1.0000
  Fe  Fe216     1.0  0.54301  0.20215  0.38545  1.0000
  S   S429      1.0  0.53939  0.16971  0.39604  1.0000
  S   S430      1.0  0.56698  0.21690  0.39276  1.0000
  Fe  Fe217     1.0  0.53427  0.16955  0.36460  1.0000
  S   S431      1.0  0.55044  0.14538  0.34601  1.0000
  Fe  Fe218     1.0  0.50624  0.18196  0.40181  1.0000
  H   H1664     1.0  0.54477  0.24101  0.35935  1.0000
  S   S432      1.0  0.54131  0.20098  0.35322  1.0000
  S   S433      1.0  0.51023  0.21457  0.39337  1.0000
  C   C1040     1.0  0.51844  0.09449  0.33907  1.0000
  H   H1665     1.0  0.55418  0.99838  0.64679  1.0000
  H   H1666     1.0  0.73577  0.47165  0.47003  1.0000
  C   C1041     1.0  0.73390  0.43518  0.33425  1.0000
  Fe  Fe219     1.0  0.52386  0.04544  0.32923  1.0000
  S   S434      1.0  0.53549  0.17225  0.63110  1.0000
  H   H1667     1.0  0.71308  0.34869  0.54206  1.0000
  Fe  Fe220     1.0  0.55921  0.01141  0.33435  1.0000
  H   H1668     1.0  0.56404  0.25560  0.35847  1.0000
  S   S435      1.0  0.72153  0.46351  0.60658  1.0000
  Fe  Fe221     1.0  0.65528  0.00594  0.53176  1.0000
  H   H1669     1.0  0.69639  0.32531  0.52926  1.0000
  H   H1670     1.0  0.73800  0.30956  0.55957  1.0000
  Fe  Fe222     1.0  0.63270  0.04603  0.54438  1.0000
  S   S436      1.0  0.62952  0.03291  0.57740  1.0000
  S   S437      1.0  0.61630  0.07773  0.53585  1.0000
  Fe  Fe223     1.0  0.66181  0.01841  0.56958  1.0000
  H   H1671     1.0  0.68462  0.31822  0.58538  1.0000
  H   H1672     1.0  0.66833  0.07576  0.55625  1.0000
  H   H1673     1.0  0.53217  0.19083  0.54924  1.0000
  S   S438      1.0  0.66561  0.03348  0.53718  1.0000
  S   S439      1.0  0.62257  0.01996  0.53572  1.0000
  H   H1674     1.0  0.50627  0.24116  0.56132  1.0000
  H   H1675     1.0  0.56206  0.19732  0.64805  1.0000
  C   C1042     1.0  0.69968  0.31036  0.57911  1.0000
  S   S440      1.0  0.53133  0.02170  0.35556  1.0000
  H   H1676     1.0  0.67299  0.21920  0.46423  1.0000
  H   H1677     1.0  0.69556  0.21071  0.44784  1.0000
  C   C1043     1.0  0.70715  0.02736  0.57811  1.0000
  C   C1044     1.0  0.70717  0.04206  0.56075  1.0000
  H   H1678     1.0  0.69281  0.08324  0.57509  1.0000
  H   H1679     1.0  0.68442  0.08959  0.60003  1.0000
  Fe  Fe224     1.0  0.74010  0.35710  0.46807  1.0000
  H   H1680     1.0  0.73193  0.31544  0.53465  1.0000
  H   H1681     1.0  0.69394  0.04672  0.55368  1.0000
  S   S441      1.0  0.72260  0.38444  0.45124  1.0000
  C   C1045     1.0  0.50314  0.22816  0.57343  1.0000
  H   H1682     1.0  0.72466  0.01016  0.60059  1.0000
  H   H1683     1.0  0.51232  0.19078  0.59383  1.0000
  N   N100      1.0  0.71645  0.42445  0.34193  1.0000
  C   C1046     1.0  0.54856  0.25656  0.35508  1.0000
  H   H1684     1.0  0.71078  0.41909  0.42275  1.0000
  C   C1047     1.0  0.53937  0.09312  0.33356  1.0000
  H   H1685     1.0  0.52992  0.24906  0.39352  1.0000
  H   H1686     1.0  0.50588  0.17742  0.57639  1.0000
  H   H1687     1.0  0.65744  0.11677  0.58733  1.0000
  H   H1688     1.0  0.72617  0.18995  0.48856  1.0000
  H   H1689     1.0  0.66658  0.11070  0.56240  1.0000
  S   S442      1.0  0.50075  0.17944  0.37109  1.0000
  C   C1048     1.0  0.53790  0.12569  0.34405  1.0000
  C   C1049     1.0  0.51699  0.12696  0.34973  1.0000
  C   C1050     1.0  0.50729  0.11149  0.34707  1.0000
  H   H1690     1.0  0.72557  0.19219  0.46200  1.0000
  H   H1691     1.0  0.50826  0.13987  0.35609  1.0000
  H   H1692     1.0  0.69573  0.45204  0.34550  1.0000
  H   H1693     1.0  0.54917  0.26379  0.39209  1.0000
  C   C1051     1.0  0.66812  0.26502  0.48803  1.0000
  C   C1052     1.0  0.67096  0.26096  0.50824  1.0000
  C   C1053     1.0  0.68609  0.26885  0.51414  1.0000
  C   C1054     1.0  0.69825  0.28122  0.50003  1.0000
  C   C1055     1.0  0.69513  0.28566  0.47991  1.0000
  C   C1056     1.0  0.68020  0.27748  0.47393  1.0000
  H   H1694     1.0  0.66169  0.25152  0.51927  1.0000
  H   H1695     1.0  0.68840  0.26533  0.52974  1.0000
  H   H1696     1.0  0.67805  0.28079  0.45828  1.0000
  C   C1057     1.0  0.56893  0.20854  0.46055  1.0000
  C   C1058     1.0  0.55318  0.20274  0.45371  1.0000
  C   C1059     1.0  0.55258  0.20520  0.43295  1.0000
  C   C1060     1.0  0.56762  0.21371  0.41886  1.0000
  C   C1061     1.0  0.58329  0.21974  0.42567  1.0000
  C   C1062     1.0  0.58403  0.21705  0.44650  1.0000
  H   H1697     1.0  0.54148  0.19609  0.46449  1.0000
  H   H1698     1.0  0.54041  0.20052  0.42786  1.0000
  H   H1699     1.0  0.59496  0.22636  0.41482  1.0000
  H   H1700     1.0  0.59624  0.22156  0.45165  1.0000
  C   C1063     1.0  0.57075  0.21510  0.58373  1.0000
  C   C1064     1.0  0.57645  0.19414  0.58508  1.0000
  C   C1065     1.0  0.56543  0.18111  0.59961  1.0000
  C   C1066     1.0  0.54840  0.18895  0.61249  1.0000
  C   C1067     1.0  0.54247  0.20990  0.61089  1.0000
  C   C1068     1.0  0.55380  0.22294  0.59672  1.0000
  H   H1701     1.0  0.58967  0.18799  0.57530  1.0000
  H   H1702     1.0  0.57014  0.16490  0.60088  1.0000
  H   H1703     1.0  0.52949  0.21609  0.62086  1.0000
  H   H1704     1.0  0.54942  0.23917  0.59573  1.0000
  C   C1069     1.0  0.64383  0.13560  0.52546  1.0000
  C   C1070     1.0  0.62333  0.13566  0.53293  1.0000
  C   C1071     1.0  0.61523  0.11767  0.53644  1.0000
  C   C1072     1.0  0.62755  0.09948  0.53256  1.0000
  C   C1073     1.0  0.64813  0.09929  0.52526  1.0000
  C   C1074     1.0  0.65627  0.11733  0.52180  1.0000
  H   H1705     1.0  0.61368  0.14951  0.53614  1.0000
  H   H1706     1.0  0.59930  0.11786  0.54216  1.0000
  H   H1707     1.0  0.65764  0.08537  0.52182  1.0000
  H   H1708     1.0  0.67215  0.11720  0.51594  1.0000
  S   S443      1.0  0.68543  0.01650  0.58906  1.0000
  C   C1075     1.0  0.72641  0.30880  0.55045  1.0000
  C   C1076     1.0  0.72459  0.02146  0.58708  1.0000
  S   S444      1.0  0.59312  0.99271  0.58218  1.0000
  C   C1077     1.0  0.70822  0.42082  0.32470  1.0000
  H   H1709     1.0  0.50895  0.25572  0.36605  1.0000
  H   H1710     1.0  0.70438  0.29515  0.46890  1.0000
  H   H1711     1.0  0.71684  0.47787  0.43155  1.0000
  H   H1712     1.0  0.72947  0.45018  0.32511  1.0000
  S   S445      1.0  0.58930  0.00212  0.34521  1.0000
  S   S446      1.0  0.72775  0.47548  0.36778  1.0000
  Fe  Fe225     1.0  0.72254  0.44017  0.63471  1.0000
  S   S447      1.0  0.71760  0.28996  0.50823  1.0000
  H   H1713     1.0  0.51260  0.27607  0.34551  1.0000
  Fe  Fe226     1.0  0.50278  0.18258  0.64292  1.0000
  S   S448      1.0  0.72581  0.34539  0.49945  1.0000
  H   H1714     1.0  0.71899  0.34263  0.56704  1.0000
  H   H1715     1.0  0.63087  0.08400  0.60206  1.0000
  C   C1078     1.0  0.71984  0.19978  0.47550  1.0000
  H   H1716     1.0  0.69039  0.30255  0.54510  1.0000
  H   H1717     1.0  0.67401  0.21750  0.50063  1.0000
  H   H1718     1.0  0.72238  0.02363  0.52432  1.0000
  C   C1079     1.0  0.72168  0.46221  0.43930  1.0000
  C   C1080     1.0  0.73712  0.42341  0.40023  1.0000
  C   C1081     1.0  0.72437  0.05103  0.55256  1.0000
  C   C1082     1.0  0.54903  0.10878  0.33586  1.0000
  N   N101      1.0  0.69754  0.20356  0.47962  1.0000
  H   H1719     1.0  0.69706  0.22761  0.49599  1.0000
  H   H1720     1.0  0.69847  0.29416  0.57993  1.0000
  H   H1721     1.0  0.72607  0.21421  0.47259  1.0000
  H   H1722     1.0  0.50898  0.19955  0.32404  1.0000
  C   C1083     1.0  0.68978  0.21699  0.46211  1.0000
  C   C1084     1.0  0.49402  0.21041  0.55006  1.0000
  Fe  Fe227     1.0  0.62160  0.00587  0.56835  1.0000
  H   H1723     1.0  0.71025  0.39646  0.36080  1.0000
  H   H1724     1.0  0.69517  0.17368  0.49635  1.0000
  C   C1085     1.0  0.69072  0.21339  0.49777  1.0000
  H   H1725     1.0  0.71024  0.00595  0.51647  1.0000
  C   C1086     1.0  0.68979  0.18418  0.48314  1.0000
  H   H1726     1.0  0.69523  0.41243  0.32993  1.0000
  H   H1727     1.0  0.69533  0.20335  0.51156  1.0000
  H   H1728     1.0  0.53248  0.21759  0.54322  1.0000
  H   H1729     1.0  0.67300  0.18657  0.48646  1.0000
  C   C1087     1.0  0.69171  0.31854  0.54527  1.0000
  H   H1730     1.0  0.69449  0.17635  0.46973  1.0000
  N   N102      1.0  0.66081  0.08513  0.58538  1.0000
  C   C1088     1.0  0.64689  0.08063  0.60452  1.0000
  C   C1089     1.0  0.68186  0.08035  0.58929  1.0000
  C   C1090     1.0  0.65614  0.10677  0.57671  1.0000
  C   C1091     1.0  0.65830  0.07261  0.57097  1.0000
  H   H1731     1.0  0.71129  0.45969  0.45392  1.0000
  H   H1732     1.0  0.64838  0.08970  0.61589  1.0000
  H   H1733     1.0  0.64996  0.06432  0.61127  1.0000
  H   H1734     1.0  0.68713  0.42953  0.36018  1.0000
  C   C1092     1.0  0.52859  0.20512  0.55572  1.0000
  H   H1735     1.0  0.68580  0.06410  0.59588  1.0000
  H   H1736     1.0  0.71049  0.31099  0.58916  1.0000
  H   H1737     1.0  0.53913  0.29662  0.34350  1.0000
  H   H1738     1.0  0.64052  0.11071  0.57306  1.0000
  Fe  Fe228     1.0  0.73616  0.31434  0.49124  1.0000
  Fe  Fe229     1.0  0.51686  0.00195  0.34209  1.0000
  H   H1739     1.0  0.66201  0.05621  0.57692  1.0000
  H   H1740     1.0  0.64249  0.07548  0.56792  1.0000
  N   N103      1.0  0.59873  0.14452  0.47775  1.0000
  C   C1093     1.0  0.59823  0.16162  0.46076  1.0000
  C   C1094     1.0  0.58670  0.15140  0.49632  1.0000
  C   C1095     1.0  0.61982  0.13707  0.48091  1.0000
  C   C1096     1.0  0.59011  0.12803  0.47303  1.0000
  H   H1741     1.0  0.60750  0.15722  0.44653  1.0000
  H   H1742     1.0  0.60394  0.17464  0.46412  1.0000
  H   H1743     1.0  0.58257  0.16724  0.45765  1.0000
  H   H1744     1.0  0.58624  0.13879  0.50935  1.0000
  H   H1745     1.0  0.59306  0.16352  0.50061  1.0000
  H   H1746     1.0  0.57085  0.15785  0.49422  1.0000
  H   H1747     1.0  0.62948  0.13228  0.46703  1.0000
  H   H1748     1.0  0.62078  0.12377  0.49321  1.0000
  H   H1749     1.0  0.62655  0.14896  0.48521  1.0000
  H   H1750     1.0  0.59033  0.11483  0.48553  1.0000
  H   H1751     1.0  0.59872  0.12256  0.45901  1.0000
  H   H1752     1.0  0.57414  0.13317  0.47068  1.0000
  N   N104      1.0  0.70641  0.31973  0.55811  1.0000
  H   H1753     1.0  0.69403  0.23234  0.45994  1.0000
  H   H1754     1.0  0.61072  0.99514  0.41812  1.0000
  H   H1755     1.0  0.57693  0.00289  0.40825  1.0000
  C   C1097     1.0  0.70787  0.34117  0.55766  1.0000
  H   H1756     1.0  0.70717  0.47577  0.65011  1.0000
  H   H1757     1.0  0.74082  0.99395  0.55789  1.0000
  C   C1098     1.0  0.70070  0.43697  0.35437  1.0000
  H   H1758     1.0  0.52299  0.27495  0.39732  1.0000
  H   H1759     1.0  0.72423  0.06255  0.53922  1.0000
  H   H1760     1.0  0.70631  0.43979  0.36764  1.0000
  H   H1761     1.0  0.49688  0.22287  0.53722  1.0000
  H   H1762     1.0  0.72972  0.43700  0.39205  1.0000
  C   C1099     1.0  0.53911  0.29139  0.36001  1.0000
  H   H1763     1.0  0.73889  0.43523  0.46775  1.0000
  C   C1100     1.0  0.50287  0.19220  0.58190  1.0000
  H   H1764     1.0  0.53890  0.20377  0.56684  1.0000
  C   C1101     1.0  0.69414  0.48818  0.64851  1.0000
  H   H1765     1.0  0.69308  0.34997  0.56327  1.0000
  H   H1766     1.0  0.67643  0.32664  0.55051  1.0000
  H   H1767     1.0  0.70975  0.00572  0.54286  1.0000
  N   N105      1.0  0.50718  0.20897  0.56526  1.0000
  H   H1768     1.0  0.55805  0.22433  0.64611  1.0000
  H   H1769     1.0  0.51273  0.22756  0.58502  1.0000
  H   H1770     1.0  0.55441  0.29178  0.36310  1.0000
  S   S449      1.0  0.50567  0.07555  0.33569  1.0000
  C   C1102     1.0  0.72305  0.40491  0.35441  1.0000
  H   H1771     1.0  0.51803  0.17294  0.33010  1.0000
  C   C1103     1.0  0.51336  0.27105  0.36190  1.0000
  C   C1104     1.0  0.72640  0.41324  0.41761  1.0000
  C   C1105     1.0  0.53391  0.26449  0.38826  1.0000
  C   C1106     1.0  0.73592  0.39573  0.42861  1.0000
  C   C1107     1.0  0.71937  0.00776  0.52769  1.0000
  H   H1772     1.0  0.72967  0.40714  0.36735  1.0000
  H   H1773     1.0  0.73488  0.39506  0.34546  1.0000
  H   H1774     1.0  0.54910  0.26103  0.33845  1.0000
  H   H1775     1.0  0.71947  0.45162  0.42974  1.0000
  H   H1776     1.0  0.72591  0.29261  0.55033  1.0000
  N   N106      1.0  0.73836  0.99311  0.52712  1.0000
  H   H1777     1.0  0.58045  0.00031  0.44451  1.0000
  H   H1778     1.0  0.52819  0.30262  0.36817  1.0000
  N   N107      1.0  0.53372  0.27088  0.36633  1.0000
  C   C1108     1.0  0.50179  0.25088  0.32064  1.0000
  H   H1779     1.0  0.74059  0.43790  0.34687  1.0000
  H   H1780     1.0  0.54809  0.08009  0.32734  1.0000
  H   H1781     1.0  0.50166  0.28138  0.37041  1.0000
  H   H1782     1.0  0.53223  0.23678  0.32357  1.0000
  H   H1783     1.0  0.56520  0.10771  0.33140  1.0000
  H   H1784     1.0  0.49653  0.19613  0.54368  1.0000
  C   C1109     1.0  0.74206  0.03002  0.57853  1.0000
  C   C1110     1.0  0.74189  0.04494  0.56133  1.0000
  S   S450      1.0  0.54520  0.98951  0.32313  1.0000
  S   S451      1.0  0.65363  0.98991  0.56379  1.0000
  H   H1785     1.0  0.68031  0.48096  0.65205  1.0000
  H   H1786     1.0  0.61090  0.37904  0.97595  1.0000
  H   H1787     1.0  0.66035  0.38995  0.75124  1.0000
  Fe  Fe230     1.0  0.60125  0.42788  0.77770  1.0000
  C   C1111     1.0  0.52607  0.21008  0.66949  1.0000
  S   S452      1.0  0.59549  0.39574  0.78172  1.0000
  C   C1112     1.0  0.62466  0.19346  0.94133  1.0000
  C   C1113     1.0  0.60570  0.21404  0.91618  1.0000
  S   S453      1.0  0.62903  0.42988  0.78953  1.0000
  Fe  Fe231     1.0  0.72681  0.99269  0.85125  1.0000
  H   H1788     1.0  0.65004  0.38920  0.98449  1.0000
  H   H1789     1.0  0.50025  0.11074  0.90762  1.0000
  Fe  Fe232     1.0  0.51821  0.34164  0.75653  1.0000
  C   C1114     1.0  0.50924  0.26002  0.86246  1.0000
  S   S454      1.0  0.52539  0.37333  0.74573  1.0000
  Fe  Fe233     1.0  0.52259  0.30289  0.78655  1.0000
  S   S455      1.0  0.53754  0.28526  0.81293  1.0000
  S   S456      1.0  0.53873  0.31179  0.75492  1.0000
  N   N108      1.0  0.49263  0.08571  0.93029  1.0000
  S   S457      1.0  0.68993  0.09357  0.98381  1.0000
  H   H1790     1.0  0.65035  0.41496  0.74015  1.0000
  C   C1115     1.0  0.50443  0.26751  0.71294  1.0000
  C   C1116     1.0  0.71884  0.03502  0.91253  1.0000
  S   S458      1.0  0.68764  0.01294  0.91875  1.0000
  H   H1791     1.0  0.62223  0.42967  0.94999  1.0000
  S   S459      1.0  0.71670  0.12743  0.95525  1.0000
  H   H1792     1.0  0.51827  0.25662  0.87500  1.0000
  H   H1793     1.0  0.59634  0.16995  0.94621  1.0000
  Fe  Fe234     1.0  0.72090  0.09375  0.96561  1.0000
  C   C1117     1.0  0.61361  0.47851  0.86487  1.0000
  Fe  Fe235     1.0  0.57702  0.12640  0.90847  1.0000
  S   S460      1.0  0.56479  0.14275  0.88031  1.0000
  S   S461      1.0  0.61058  0.11458  0.90820  1.0000
  Fe  Fe236     1.0  0.53501  0.12989  0.93356  1.0000
  S   S462      1.0  0.51953  0.14742  0.90785  1.0000
  C   C1118     1.0  0.62189  0.18006  0.91190  1.0000
  Fe  Fe237     1.0  0.53912  0.12459  0.88981  1.0000
  S   S463      1.0  0.52819  0.10568  0.87089  1.0000
  Fe  Fe238     1.0  0.54615  0.16411  0.90073  1.0000
  S   S464      1.0  0.54490  0.19783  0.89000  1.0000
  S   S465      1.0  0.55338  0.10628  0.91601  1.0000
  S   S466      1.0  0.55970  0.14869  0.92821  1.0000
  Fe  Fe239     1.0  0.53986  0.32503  0.94450  1.0000
  S   S467      1.0  0.56057  0.30281  0.96302  1.0000
  Fe  Fe240     1.0  0.56668  0.31874  0.90468  1.0000
  S   S468      1.0  0.59004  0.29621  0.91998  1.0000
  S   S469      1.0  0.56796  0.33140  0.87122  1.0000
  Fe  Fe241     1.0  0.56322  0.28350  0.93920  1.0000
  S   S470      1.0  0.55918  0.25092  0.95104  1.0000
  Fe  Fe242     1.0  0.58536  0.31762  0.94270  1.0000
  S   S471      1.0  0.61183  0.32622  0.95348  1.0000
  S   S472      1.0  0.54036  0.30453  0.92242  1.0000
  S   S473      1.0  0.56431  0.34119  0.92561  1.0000
  C   C1119     1.0  0.54755  0.21304  0.90722  1.0000
  C   C1120     1.0  0.54429  0.20629  0.92808  1.0000
  C   C1121     1.0  0.54733  0.21831  0.94144  1.0000
  C   C1122     1.0  0.55352  0.23718  0.93406  1.0000
  C   C1123     1.0  0.55615  0.24424  0.91326  1.0000
  C   C1124     1.0  0.55320  0.23219  0.89988  1.0000
  H   H1794     1.0  0.53957  0.19173  0.93393  1.0000
  H   H1795     1.0  0.54511  0.21283  0.95755  1.0000
  H   H1796     1.0  0.56097  0.25877  0.90743  1.0000
  H   H1797     1.0  0.55589  0.23756  0.88380  1.0000
  H   H1798     1.0  0.62175  0.37193  0.75281  1.0000
  H   H1799     1.0  0.67866  0.48475  0.68789  1.0000
  H   H1800     1.0  0.54126  0.33444  0.98260  1.0000
  H   H1801     1.0  0.58262  0.18466  0.92715  1.0000
  H   H1802     1.0  0.74131  0.01517  0.94780  1.0000
  H   H1803     1.0  0.58429  0.19520  0.94889  1.0000
  H   H1804     1.0  0.62674  0.16438  0.91946  1.0000
  H   H1805     1.0  0.51046  0.27522  0.68047  1.0000
  N   N109      1.0  0.63968  0.39111  0.73076  1.0000
  S   S474      1.0  0.66757  0.45042  0.74466  1.0000
  C   C1125     1.0  0.64348  0.13267  0.95310  1.0000
  C   C1126     1.0  0.62234  0.13490  0.95644  1.0000
  C   C1127     1.0  0.61214  0.12891  0.94310  1.0000
  C   C1128     1.0  0.62299  0.12083  0.92613  1.0000
  C   C1129     1.0  0.64419  0.11804  0.92310  1.0000
  C   C1130     1.0  0.65441  0.12383  0.93659  1.0000
  H   H1806     1.0  0.63889  0.19902  0.93358  1.0000
  H   H1807     1.0  0.59587  0.13062  0.94594  1.0000
  H   H1808     1.0  0.65278  0.11188  0.91001  1.0000
  H   H1809     1.0  0.67072  0.12209  0.93381  1.0000
  C   C1131     1.0  0.70039  0.03096  0.92401  1.0000
  C   C1132     1.0  0.70259  0.05411  0.94631  1.0000
  C   C1133     1.0  0.69219  0.04074  0.94074  1.0000
  H   H1810     1.0  0.69634  0.06121  0.95947  1.0000
  H   H1811     1.0  0.67791  0.03766  0.94969  1.0000
  C   C1134     1.0  0.54575  0.29838  0.82908  1.0000
  C   C1135     1.0  0.54618  0.31919  0.82423  1.0000
  C   C1136     1.0  0.55292  0.32915  0.83729  1.0000
  C   C1137     1.0  0.55887  0.31852  0.85552  1.0000
  C   C1138     1.0  0.55820  0.29776  0.86050  1.0000
  C   C1139     1.0  0.55197  0.28769  0.84718  1.0000
  H   H1812     1.0  0.54159  0.32758  0.81029  1.0000
  H   H1813     1.0  0.55336  0.34518  0.83325  1.0000
  H   H1814     1.0  0.56297  0.28937  0.87437  1.0000
  H   H1815     1.0  0.55210  0.27155  0.85092  1.0000
  C   C1140     1.0  0.67407  0.44670  0.71921  1.0000
  C   C1141     1.0  0.65932  0.44754  0.70734  1.0000
  C   C1142     1.0  0.66505  0.44420  0.68720  1.0000
  C   C1143     1.0  0.68551  0.44026  0.67871  1.0000
  C   C1144     1.0  0.70026  0.43968  0.69048  1.0000
  C   C1145     1.0  0.69453  0.44283  0.71069  1.0000
  H   H1816     1.0  0.64354  0.45090  0.71363  1.0000
  H   H1817     1.0  0.65357  0.44479  0.67809  1.0000
  H   H1818     1.0  0.71607  0.43651  0.68411  1.0000
  H   H1819     1.0  0.63569  0.18571  0.90301  1.0000
  C   C1146     1.0  0.57551  0.39009  0.77205  1.0000
  C   C1147     1.0  0.57099  0.37034  0.77695  1.0000
  C   C1148     1.0  0.55552  0.36513  0.76908  1.0000
  C   C1149     1.0  0.54460  0.37961  0.75611  1.0000
  C   C1150     1.0  0.54909  0.39939  0.75124  1.0000
  C   C1151     1.0  0.56447  0.40466  0.75926  1.0000
  H   H1820     1.0  0.57945  0.35899  0.78687  1.0000
  H   H1821     1.0  0.55215  0.34985  0.77294  1.0000
  H   H1822     1.0  0.54070  0.41064  0.74120  1.0000
  H   H1823     1.0  0.56785  0.41993  0.75541  1.0000
  H   H1824     1.0  0.59761  0.22438  0.92700  1.0000
  Fe  Fe243     1.0  0.51323  0.30171  0.74462  1.0000
  H   H1825     1.0  0.66073  0.40417  0.70641  1.0000
  Fe  Fe244     1.0  0.69981  0.99627  0.89215  1.0000
  H   H1826     1.0  0.60970  0.39727  0.95335  1.0000
  H   H1827     1.0  0.60633  0.46745  0.87596  1.0000
  C   C1152     1.0  0.72134  0.05774  0.93523  1.0000
  H   H1828     1.0  0.53391  0.22053  0.83885  1.0000
  N   N110      1.0  0.59066  0.38538  0.84654  1.0000
  C   C1153     1.0  0.57820  0.37546  0.83724  1.0000
  C   C1154     1.0  0.59173  0.37489  0.86747  1.0000
  C   C1155     1.0  0.58153  0.40683  0.84674  1.0000
  C   C1156     1.0  0.61122  0.38431  0.83467  1.0000
  H   H1829     1.0  0.58510  0.35946  0.83612  1.0000
  H   H1830     1.0  0.57634  0.38334  0.82172  1.0000
  H   H1831     1.0  0.56286  0.37513  0.84634  1.0000
  H   H1832     1.0  0.60086  0.38200  0.87511  1.0000
  H   H1833     1.0  0.57642  0.37504  0.87677  1.0000
  H   H1834     1.0  0.59860  0.35866  0.86778  1.0000
  H   H1835     1.0  0.59069  0.41490  0.85341  1.0000
  H   H1836     1.0  0.56604  0.40825  0.85566  1.0000
  H   H1837     1.0  0.58045  0.41509  0.83114  1.0000
  H   H1838     1.0  0.61857  0.36835  0.83413  1.0000
  H   H1839     1.0  0.62100  0.39179  0.84119  1.0000
  H   H1840     1.0  0.61091  0.39202  0.81879  1.0000
  H   H1841     1.0  0.53956  0.18728  0.70221  1.0000
  H   H1842     1.0  0.49374  0.15104  0.94541  1.0000
  Fe  Fe245     1.0  0.61042  0.45596  0.80346  1.0000
  H   H1843     1.0  0.56602  0.18699  0.69264  1.0000
  H   H1844     1.0  0.64356  0.33537  0.97056  1.0000
  H   H1845     1.0  0.61716  0.20335  0.95273  1.0000
  H   H1846     1.0  0.61200  0.17901  0.90107  1.0000
  H   H1847     1.0  0.62538  0.42003  0.71708  1.0000
  C   C1157     1.0  0.63422  0.37095  0.73966  1.0000
  S   S475      1.0  0.51704  0.28663  0.71663  1.0000
  H   H1848     1.0  0.50049  0.23437  0.82785  1.0000
  H   H1849     1.0  0.49252  0.24918  0.67415  1.0000
  C   C1158     1.0  0.65708  0.46233  0.98275  1.0000
  H   H1850     1.0  0.61922  0.22051  0.90768  1.0000
  H   H1851     1.0  0.50638  0.25951  0.82379  1.0000
  H   H1852     1.0  0.66974  0.37895  0.71775  1.0000
  H   H1853     1.0  0.60922  0.40657  0.73694  1.0000
  C   C1159     1.0  0.62986  0.33752  0.98142  1.0000
  C   C1160     1.0  0.50490  0.99922  0.81040  1.0000
  S   S476      1.0  0.60827  0.45696  0.83676  1.0000
  H   H1854     1.0  0.50384  0.21175  0.86150  1.0000
  H   H1855     1.0  0.52571  0.19778  0.66106  1.0000
  H   H1856     1.0  0.63351  0.38258  0.95831  1.0000
  C   C1161     1.0  0.61685  0.47680  0.84428  1.0000
  H   H1857     1.0  0.51354  0.00987  0.80026  1.0000
  S   S477      1.0  0.73572  0.07283  0.94299  1.0000
  H   H1858     1.0  0.52268  0.27594  0.97139  1.0000
  H   H1859     1.0  0.65131  0.38325  0.70118  1.0000
  C   C1162     1.0  0.59282  0.18544  0.93775  1.0000
  S   S478      1.0  0.65550  0.14310  0.96849  1.0000
  H   H1860     1.0  0.51375  0.29961  0.98033  1.0000
  H   H1861     1.0  0.63456  0.43401  0.96922  1.0000
  Fe  Fe246     1.0  0.59199  0.47336  0.76567  1.0000
  H   H1862     1.0  0.64724  0.36032  0.74515  1.0000
  C   C1163     1.0  0.64661  0.39954  0.74612  1.0000
  N   N111      1.0  0.61130  0.19325  0.92678  1.0000
  C   C1164     1.0  0.49541  0.25455  0.72915  1.0000
  S   S479      1.0  0.61919  0.47891  0.77642  1.0000
  H   H1863     1.0  0.51436  0.07719  0.85293  1.0000
  H   H1864     1.0  0.49224  0.07853  0.90110  1.0000
  S   S480      1.0  0.50989  0.34127  0.95780  1.0000
  C   C1165     1.0  0.49977  0.24763  0.83538  1.0000
  H   H1865     1.0  0.52112  0.08294  0.94025  1.0000
  C   C1166     1.0  0.50358  0.26521  0.69311  1.0000
  C   C1167     1.0  0.49355  0.25036  0.68947  1.0000
  N   N112      1.0  0.62213  0.40632  0.97623  1.0000
  Fe  Fe247     1.0  0.68638  0.12724  0.97525  1.0000
  C   C1168     1.0  0.64322  0.47605  0.97226  1.0000
  H   H1866     1.0  0.51411  0.20884  0.68307  1.0000
  C   C1169     1.0  0.55091  0.18883  0.68814  1.0000
  H   H1867     1.0  0.49762  0.11505  0.93304  1.0000
  H   H1868     1.0  0.51491  0.27274  0.85143  1.0000
  H   H1869     1.0  0.72523  0.02768  0.89950  1.0000
  H   H1870     1.0  0.56084  0.22441  0.69088  1.0000
  H   H1871     1.0  0.61379  0.14144  0.96935  1.0000
  H   H1872     1.0  0.49626  0.25591  0.74448  1.0000
  H   H1873     1.0  0.59548  0.21439  0.90520  1.0000
  S   S481      1.0  0.58194  0.45224  0.79382  1.0000
  H   H1874     1.0  0.63480  0.40075  0.75971  1.0000
  C   C1170     1.0  0.72935  0.04828  0.91823  1.0000
  H   H1875     1.0  0.61601  0.39870  0.71262  1.0000
  C   C1171     1.0  0.62181  0.40471  0.72403  1.0000
  N   N113      1.0  0.65016  0.05962  0.88909  1.0000
  C   C1172     1.0  0.63719  0.07651  0.87836  1.0000
  C   C1173     1.0  0.64550  0.04011  0.88638  1.0000
  C   C1174     1.0  0.64637  0.06106  0.91086  1.0000
  C   C1175     1.0  0.67159  0.06084  0.88076  1.0000
  H   H1876     1.0  0.64051  0.09144  0.87992  1.0000
  H   H1877     1.0  0.62090  0.07638  0.88460  1.0000
  H   H1878     1.0  0.63932  0.07576  0.86194  1.0000
  H   H1879     1.0  0.65495  0.02705  0.89444  1.0000
  H   H1880     1.0  0.62942  0.03870  0.89235  1.0000
  H   H1881     1.0  0.64842  0.03835  0.87014  1.0000
  H   H1882     1.0  0.65567  0.04839  0.91950  1.0000
  Fe  Fe248     1.0  0.72890  0.12924  0.98328  1.0000
  H   H1883     1.0  0.65002  0.07546  0.91349  1.0000
  H   H1884     1.0  0.68179  0.04818  0.88834  1.0000
  H   H1885     1.0  0.67577  0.07520  0.88287  1.0000
  H   H1886     1.0  0.67496  0.05996  0.86432  1.0000
  H   H1887     1.0  0.62894  0.36410  0.72850  1.0000
  C   C1176     1.0  0.61895  0.39065  0.96546  1.0000
  C   C1177     1.0  0.54600  0.22517  0.68617  1.0000
  C   C1178     1.0  0.65606  0.38925  0.71326  1.0000
  N   N114      1.0  0.54614  0.20851  0.67511  1.0000
  S   S482      1.0  0.60892  0.44854  0.74848  1.0000
  H   H1888     1.0  0.70601  0.44216  0.71981  1.0000
  S   S483      1.0  0.50375  0.33330  0.78868  1.0000
  S   S484      1.0  0.69553  0.00930  0.86029  1.0000
  C   C1179     1.0  0.61175  0.33377  0.97705  1.0000
  C   C1180     1.0  0.50152  0.08872  0.85631  1.0000
  Fe  Fe249     1.0  0.63541  0.45239  0.76137  1.0000
  C   C1181     1.0  0.63181  0.42202  0.96159  1.0000
  H   H1889     1.0  0.54104  0.23056  0.85826  1.0000
  H   H1890     1.0  0.62899  0.17801  0.94975  1.0000
  H   H1891     1.0  0.63024  0.06064  0.91753  1.0000
  H   H1892     1.0  0.53434  0.22474  0.70007  1.0000
  C   C1182     1.0  0.50396  0.10492  0.86518  1.0000
  C   C1183     1.0  0.50175  0.22608  0.86771  1.0000
  H   H1893     1.0  0.70963  0.00105  0.95694  1.0000
  H   H1894     1.0  0.70567  0.48083  0.68517  1.0000
  H   H1895     1.0  0.54251  0.24024  0.67670  1.0000
  H   H1896     1.0  0.55092  0.17599  0.68019  1.0000
  S   S485      1.0  0.51992  0.11698  0.96430  1.0000
  S   S486      1.0  0.69196  0.43597  0.65346  1.0000
  N   N115      1.0  0.51073  0.24204  0.85281  1.0000
  C   C1184     1.0  0.53216  0.23444  0.84568  1.0000
  H   H1897     1.0  0.64669  0.41549  0.95358  1.0000
  H   H1898     1.0  0.53936  0.24589  0.83412  1.0000
  H   H1899     1.0  0.50891  0.22247  0.88156  1.0000
  S   S487      1.0  0.49881  0.29029  0.77617  1.0000
  H   H1900     1.0  0.49614  0.28360  0.97916  1.0000
  H   H1901     1.0  0.67309  0.46184  0.97731  1.0000
  H   H1902     1.0  0.49336  0.26561  0.86880  1.0000
  C   C1185     1.0  0.51131  0.28359  0.98272  1.0000
  C   C1186     1.0  0.50918  0.34241  0.98329  1.0000
  C   C1187     1.0  0.62250  0.47648  0.97873  1.0000
  H   H1903     1.0  0.59226  0.42324  0.97537  1.0000
  S   S488      1.0  0.49424  0.33262  0.74343  1.0000
  H   H1904     1.0  0.51798  0.99955  0.66202  1.0000
  H   H1905     1.0  0.64870  0.48607  0.95895  1.0000
  C   C1188     1.0  0.51401  0.07640  0.93015  1.0000
  C   C1189     1.0  0.49520  0.12855  0.97216  1.0000
  H   H1906     1.0  0.51561  0.05978  0.93537  1.0000
  H   H1907     1.0  0.52294  0.07893  0.91463  1.0000
  H   H1908     1.0  0.54821  0.48403  0.78733  1.0000
  H   H1909     1.0  0.52188  0.22475  0.65970  1.0000
  H   H1910     1.0  0.57681  0.20904  0.66014  1.0000
  C   C1190     1.0  0.56145  0.20988  0.65657  1.0000
  H   H1911     1.0  0.73240  0.99431  0.92548  1.0000
  H   H1912     1.0  0.49255  0.40999  0.75440  1.0000
  C   C1191     1.0  0.50649  0.96586  0.11130  1.0000
  Fe  Fe250     1.0  0.50418  0.62331  0.25526  1.0000
  H   H1913     1.0  0.58207  0.62884  0.99116  1.0000
  H   H1914     1.0  0.54697  0.55841  0.99902  1.0000
  H   H1915     1.0  0.51304  0.97314  0.22888  1.0000
  C   C1192     1.0  0.74063  0.93070  0.08418  1.0000
  Fe  Fe251     1.0  0.52469  0.57976  0.25306  1.0000
  S   S489      1.0  0.54583  0.55327  0.26671  1.0000
  S   S490      1.0  0.52967  0.60944  0.23312  1.0000
  C   C1193     1.0  0.63711  0.53501  0.24112  1.0000
  C   C1194     1.0  0.51512  0.87085  0.10182  1.0000
  H   H1916     1.0  0.61368  0.56979  0.01097  1.0000
  H   H1917     1.0  0.63009  0.53642  0.25702  1.0000
  C   C1195     1.0  0.49474  0.65856  0.28999  1.0000
  N   N116      1.0  0.49517  0.76196  0.00769  1.0000
  C   C1196     1.0  0.49271  0.89320  0.12346  1.0000
  H   H1918     1.0  0.60612  0.55920  0.10538  1.0000
  H   H1919     1.0  0.52025  0.50449  0.25270  1.0000
  C   C1197     1.0  0.49362  0.53565  0.28534  1.0000
  Fe  Fe252     1.0  0.71468  0.84213  0.02241  1.0000
  S   S491      1.0  0.69004  0.82751  0.01613  1.0000
  H   H1920     1.0  0.53329  0.75079  0.09789  1.0000
  S   S492      1.0  0.70880  0.87260  0.03191  1.0000
  C   C1198     1.0  0.49253  0.67846  0.29380  1.0000
  H   H1921     1.0  0.52085  0.63275  0.11331  1.0000
  C   C1199     1.0  0.51226  0.62213  0.14516  1.0000
  H   H1922     1.0  0.50497  0.53336  0.29559  1.0000
  Fe  Fe253     1.0  0.56878  0.63010  0.03865  1.0000
  S   S493      1.0  0.54599  0.65147  0.02185  1.0000
  S   S494      1.0  0.59174  0.60366  0.02890  1.0000
  Fe  Fe254     1.0  0.55257  0.64701  0.07807  1.0000
  S   S495      1.0  0.52817  0.66957  0.06487  1.0000
  S   S496      1.0  0.56022  0.64450  0.10932  1.0000
  C   C1200     1.0  0.68472  0.94940  0.08566  1.0000
  Fe  Fe255     1.0  0.55199  0.67510  0.03782  1.0000
  S   S497      1.0  0.55233  0.70719  0.02167  1.0000
  S   S498      1.0  0.54608  0.62114  0.06583  1.0000
  S   S499      1.0  0.57703  0.65446  0.05202  1.0000
  Fe  Fe256     1.0  0.57635  0.83971  0.05229  1.0000
  S   S500      1.0  0.56153  0.82168  0.08044  1.0000
  S   S501      1.0  0.60024  0.85692  0.05567  1.0000
  Fe  Fe257     1.0  0.55193  0.82780  0.02561  1.0000
  S   S502      1.0  0.53508  0.80868  0.05110  1.0000
  C   C1201     1.0  0.66903  0.51819  0.25113  1.0000
  Fe  Fe258     1.0  0.53274  0.83410  0.06834  1.0000
  H   H1923     1.0  0.67968  0.93547  0.09508  1.0000
  Fe  Fe259     1.0  0.56490  0.79773  0.06123  1.0000
  S   S503      1.0  0.57321  0.76504  0.07424  1.0000
  S   S504      1.0  0.54699  0.85453  0.04172  1.0000
  S   S505      1.0  0.58231  0.81444  0.03415  1.0000
  H   H1924     1.0  0.49821  0.97461  0.09907  1.0000
  H   H1925     1.0  0.51732  0.79845  0.11952  1.0000
  C   C1202     1.0  0.53928  0.96790  0.09097  1.0000
  C   C1203     1.0  0.51333  0.61435  0.02077  1.0000
  H   H1926     1.0  0.65379  0.79073  0.08061  1.0000
  H   H1927     1.0  0.49831  0.61802  0.14327  1.0000
  H   H1928     1.0  0.65518  0.98439  0.11254  1.0000
  H   H1929     1.0  0.62470  0.53435  0.23290  1.0000
  H   H1930     1.0  0.54957  0.93172  0.11412  1.0000
  H   H1931     1.0  0.63134  0.49739  0.24166  1.0000
  H   H1932     1.0  0.52686  0.61472  0.02656  1.0000
  C   C1204     1.0  0.55827  0.72308  0.03638  1.0000
  C   C1205     1.0  0.55842  0.74362  0.02856  1.0000
  C   C1206     1.0  0.56293  0.75658  0.04015  1.0000
  C   C1207     1.0  0.56762  0.74895  0.05952  1.0000
  C   C1208     1.0  0.56753  0.72841  0.06734  1.0000
  C   C1209     1.0  0.56273  0.71551  0.05585  1.0000
  H   H1933     1.0  0.55528  0.74947  0.01341  1.0000
  H   H1934     1.0  0.56314  0.77237  0.03390  1.0000
  H   H1935     1.0  0.57110  0.72242  0.08232  1.0000
  H   H1936     1.0  0.56263  0.69967  0.06201  1.0000
  S   S506      1.0  0.50302  0.83987  0.08896  1.0000
  C   C1210     1.0  0.59723  0.59973  0.00349  1.0000
  H   H1937     1.0  0.63943  0.77001  0.03987  1.0000
  H   H1938     1.0  0.59500  0.49390  0.25114  1.0000
  H   H1939     1.0  0.67628  0.53178  0.24455  1.0000
  H   H1940     1.0  0.52907  0.51435  0.27141  1.0000
  H   H1941     1.0  0.63720  0.49905  0.26571  1.0000
  H   H1942     1.0  0.51487  0.94963  0.07682  1.0000
  S   S507      1.0  0.50113  0.60802  0.18521  1.0000
  C   C1211     1.0  0.66517  0.83685  0.02635  1.0000
  C   C1212     1.0  0.64908  0.83197  0.01927  1.0000
  C   C1213     1.0  0.62907  0.83849  0.02783  1.0000
  C   C1214     1.0  0.62506  0.84979  0.04361  1.0000
  C   C1215     1.0  0.64116  0.85505  0.05034  1.0000
  C   C1216     1.0  0.66117  0.84856  0.04177  1.0000
  H   H1943     1.0  0.65210  0.82302  0.00724  1.0000
  H   H1944     1.0  0.61675  0.83487  0.02215  1.0000
  H   H1945     1.0  0.63816  0.86380  0.06254  1.0000
  H   H1946     1.0  0.67348  0.85216  0.04752  1.0000
  H   H1947     1.0  0.51122  0.83899  0.02314  1.0000
  H   H1948     1.0  0.54421  0.53726  0.98815  1.0000
  H   H1949     1.0  0.58318  0.55237  0.12070  1.0000
  C   C1217     1.0  0.51460  0.60472  0.00409  1.0000
  C   C1218     1.0  0.51186  0.88706  0.11264  1.0000
  H   H1950     1.0  0.52531  0.93127  0.12971  1.0000
  H   H1951     1.0  0.70726  0.95633  0.11104  1.0000
  N   N117      1.0  0.52569  0.95397  0.10301  1.0000
  Fe  Fe260     1.0  0.52400  0.64434  0.05011  1.0000
  C   C1219     1.0  0.49333  0.78918  0.09702  1.0000
  H   H1952     1.0  0.52425  0.89478  0.11267  1.0000
  H   H1953     1.0  0.51960  0.76829  0.01990  1.0000
  H   H1954     1.0  0.50915  0.97684  0.12020  1.0000
  H   H1955     1.0  0.68781  0.97263  0.12449  1.0000
  N   N118      1.0  0.58117  0.58367  0.10702  1.0000
  H   H1956     1.0  0.60326  0.58787  0.12375  1.0000
  C   C1220     1.0  0.56312  0.53905  0.25013  1.0000
  C   C1221     1.0  0.56679  0.54623  0.22939  1.0000
  C   C1222     1.0  0.58105  0.53476  0.21657  1.0000
  C   C1223     1.0  0.59134  0.51589  0.22433  1.0000
  C   C1224     1.0  0.58732  0.50850  0.24503  1.0000
  C   C1225     1.0  0.57341  0.52019  0.25792  1.0000
  H   H1957     1.0  0.55888  0.56076  0.22328  1.0000
  H   H1958     1.0  0.58409  0.54053  0.20056  1.0000
  H   H1959     1.0  0.66313  0.51903  0.26739  1.0000
  H   H1960     1.0  0.57055  0.51456  0.27397  1.0000
  C   C1226     1.0  0.59080  0.61454  0.98780  1.0000
  C   C1227     1.0  0.53542  0.62451  0.16694  1.0000
  C   C1228     1.0  0.54827  0.63271  0.14991  1.0000
  C   C1229     1.0  0.54312  0.63564  0.13051  1.0000
  H   H1961     1.0  0.67318  0.50173  0.21752  1.0000
  C   C1230     1.0  0.64371  0.49869  0.24951  1.0000
  H   H1962     1.0  0.53948  0.62224  0.18185  1.0000
  H   H1963     1.0  0.56227  0.63671  0.15178  1.0000
  C   C1231     1.0  0.66138  0.51538  0.21877  1.0000
  C   C1232     1.0  0.58939  0.56204  0.10667  1.0000
  C   C1233     1.0  0.52457  0.78742  0.10915  1.0000
  N   N119      1.0  0.63089  0.78277  0.06734  1.0000
  C   C1234     1.0  0.62740  0.78107  0.04708  1.0000
  C   C1235     1.0  0.63109  0.76279  0.08043  1.0000
  C   C1236     1.0  0.61451  0.79752  0.07630  1.0000
  C   C1237     1.0  0.65045  0.78970  0.06556  1.0000
  S   S508      1.0  0.50137  0.59409  0.27625  1.0000
  C   C1238     1.0  0.50657  0.83430  0.01074  1.0000
  H   H1964     1.0  0.61653  0.75713  0.08189  1.0000
  H   H1965     1.0  0.64950  0.51414  0.21014  1.0000
  N   N120      1.0  0.65283  0.51687  0.24014  1.0000
  C   C1239     1.0  0.55896  0.58667  0.10885  1.0000
  H   H1966     1.0  0.63339  0.76353  0.09595  1.0000
  S   S509      1.0  0.60987  0.50252  0.20793  1.0000
  H   H1967     1.0  0.61344  0.81263  0.06652  1.0000
  H   H1968     1.0  0.50996  0.75165  0.08914  1.0000
  H   H1969     1.0  0.65050  0.80502  0.05630  1.0000
  S   S510      1.0  0.54651  0.82847  0.99417  1.0000
  C   C1240     1.0  0.51741  0.61911  0.16457  1.0000
  H   H1970     1.0  0.53938  0.95105  0.12945  1.0000
  H   H1971     1.0  0.68484  0.89791  0.99036  1.0000
  H   H1972     1.0  0.49894  0.79811  0.08223  1.0000
  H   H1973     1.0  0.58010  0.58143  0.13909  1.0000
  C   C1241     1.0  0.60868  0.58132  0.99891  1.0000
  C   C1242     1.0  0.50106  0.98485  0.22273  1.0000
  H   H1974     1.0  0.50581  0.49636  0.29842  1.0000
  H   H1975     1.0  0.67695  0.95323  0.07221  1.0000
  C   C1243     1.0  0.68862  0.98407  0.08439  1.0000
  H   H1976     1.0  0.60640  0.59400  0.08607  1.0000
  H   H1977     1.0  0.58560  0.55683  0.09358  1.0000
  C   C1244     1.0  0.50325  0.77371  0.01947  1.0000
  C   C1245     1.0  0.49723  0.60484  0.99606  1.0000
  C   C1246     1.0  0.51723  0.51707  0.26163  1.0000
  S   S511      1.0  0.50348  0.65353  0.26505  1.0000
  S   S512      1.0  0.72893  0.86737  0.08231  1.0000
  H   H1978     1.0  0.64339  0.54911  0.23421  1.0000
  H   H1979     1.0  0.58387  0.61237  0.08790  1.0000
  H   H1980     1.0  0.58082  0.60634  0.12504  1.0000
  N   N121      1.0  0.68065  0.96636  0.09725  1.0000
  H   H1981     1.0  0.51414  0.75339  0.13244  1.0000
  H   H1982     1.0  0.49661  0.69034  0.28153  1.0000
  H   H1983     1.0  0.49533  0.97846  0.21151  1.0000
  H   H1984     1.0  0.73243  0.92333  0.11654  1.0000
  H   H1985     1.0  0.55240  0.60291  0.10847  1.0000
  S   S513      1.0  0.72694  0.91128  0.98895  1.0000
  H   H1986     1.0  0.68126  0.55893  0.98773  1.0000
  S   S514      1.0  0.50217  0.57381  0.23605  1.0000
  H   H1987     1.0  0.53077  0.79638  0.09474  1.0000
  H   H1988     1.0  0.55189  0.57834  0.12333  1.0000
  H   H1989     1.0  0.66836  0.52888  0.21109  1.0000
  Fe  Fe261     1.0  0.50492  0.60460  0.21790  1.0000
  H   H1990     1.0  0.58565  0.59174  0.07454  1.0000
  H   H1991     1.0  0.55422  0.58158  0.09621  1.0000
  C   C1247     1.0  0.52499  0.63048  0.12819  1.0000
  C   C1248     1.0  0.69065  0.96025  0.11532  1.0000
  C   C1249     1.0  0.58966  0.59593  0.08807  1.0000
  H   H1992     1.0  0.66316  0.77935  0.05823  1.0000
  C   C1250     1.0  0.49929  0.86051  0.10202  1.0000
  H   H1993     1.0  0.61689  0.79969  0.09135  1.0000
  C   C1251     1.0  0.52159  0.94071  0.09003  1.0000
  C   C1252     1.0  0.49459  0.49973  0.28790  1.0000
  H   H1994     1.0  0.64332  0.75128  0.07419  1.0000
  H   H1995     1.0  0.70527  0.98062  0.07956  1.0000
  H   H1996     1.0  0.61268  0.77595  0.04791  1.0000
  C   C1253     1.0  0.73305  0.89188  0.08300  1.0000
  H   H1997     1.0  0.68570  0.87130  0.99966  1.0000
  H   H1998     1.0  0.52990  0.86625  0.09348  1.0000
  H   H1999     1.0  0.62716  0.79585  0.03677  1.0000
  S   S515      1.0  0.73323  0.95943  0.14401  1.0000
  H   H2000     1.0  0.68519  0.94681  0.12534  1.0000
  C   C1254     1.0  0.58663  0.59003  0.12449  1.0000
  H   H2001     1.0  0.50543  0.98127  0.31782  1.0000
  C   C1255     1.0  0.53542  0.94145  0.11980  1.0000
  H   H2002     1.0  0.59963  0.79245  0.07837  1.0000
  H   H2003     1.0  0.49634  0.95587  0.12151  1.0000
  H   H2004     1.0  0.51471  0.95797  0.15753  1.0000
  H   H2005     1.0  0.68107  0.50464  0.25063  1.0000
  H   H2006     1.0  0.65060  0.97668  0.09043  1.0000
  H   H2007     1.0  0.55390  0.95943  0.08444  1.0000
  H   H2008     1.0  0.52664  0.76934  0.07693  1.0000
  H   H2009     1.0  0.65216  0.95870  0.11336  1.0000
  H   H2010     1.0  0.51943  0.53121  0.25078  1.0000
  H   H2011     1.0  0.72625  0.88878  0.11549  1.0000
  H   H2012     1.0  0.74003  0.89987  0.05069  1.0000
  C   C1256     1.0  0.49466  0.62402  0.02948  1.0000
  Fe  Fe262     1.0  0.73386  0.87992  0.00669  1.0000
  H   H2013     1.0  0.65184  0.87274  0.99181  1.0000
  H   H2014     1.0  0.50495  0.98736  0.26038  1.0000
  H   H2015     1.0  0.53557  0.93082  0.08419  1.0000
  C   C1257     1.0  0.52090  0.82856  0.99444  1.0000
  C   C1258     1.0  0.50469  0.97116  0.16209  1.0000
  H   H2016     1.0  0.54271  0.97803  0.10046  1.0000
  C   C1259     1.0  0.52035  0.76117  0.09186  1.0000
  H   H2017     1.0  0.53239  0.97775  0.07827  1.0000
  C   C1260     1.0  0.73081  0.89866  0.10160  1.0000
  N   N122      1.0  0.51003  0.77540  0.10584  1.0000
  H   H2018     1.0  0.52915  0.59798  0.99697  1.0000
  H   H2019     1.0  0.51510  0.64698  0.98988  1.0000
  H   H2020     1.0  0.51071  0.93062  0.09854  1.0000
  C   C1261     1.0  0.65867  0.97173  0.10364  1.0000
  H   H2021     1.0  0.51402  0.73399  0.01728  1.0000
  H   H2022     1.0  0.51164  0.68143  0.99757  1.0000
  H   H2023     1.0  0.70113  0.94547  0.08004  1.0000
  H   H2024     1.0  0.49520  0.77263  0.03533  1.0000
  H   H2025     1.0  0.53759  0.77759  0.11549  1.0000
  S   S516      1.0  0.49325  0.63894  0.04802  1.0000
  Fe  Fe263     1.0  0.73319  0.86011  0.05065  1.0000
  N   N123      1.0  0.49676  0.51880  0.27373  1.0000
  H   H2026     1.0  0.49905  0.90472  0.31791  1.0000
  C   C1262     1.0  0.73442  0.91814  0.10220  1.0000
  S   S517      1.0  0.73698  0.82850  0.04354  1.0000
  H   H2027     1.0  0.49404  0.77421  0.13629  1.0000
  S   S518      1.0  0.73816  0.85027  0.99565  1.0000
  C   C1263     1.0  0.50189  0.76390  0.12539  1.0000
  H   H2028     1.0  0.50162  0.79003  0.01277  1.0000
  C   C1264     1.0  0.49779  0.74038  0.01701  1.0000
  C   C1265     1.0  0.73867  0.90474  0.06508  1.0000
  H   H2029     1.0  0.49510  0.55027  0.27517  1.0000
  C   C1266     1.0  0.50623  0.76402  0.98673  1.0000
  H   H2030     1.0  0.52261  0.75801  0.98629  1.0000
  H   H2031     1.0  0.68162  0.98898  0.07048  1.0000
  H   H2032     1.0  0.72439  0.96993  0.52068  1.0000
  H   H2033     1.0  0.54860  0.69035  0.37256  1.0000
  S   S519      1.0  0.49410  0.98324  0.36034  1.0000
  H   H2034     1.0  0.54499  0.81835  0.48028  1.0000
  C   C1267     1.0  0.72977  0.55806  0.58303  1.0000
  H   H2035     1.0  0.56291  0.67669  0.34058  1.0000
  S   S520      1.0  0.51032  0.71462  0.59695  1.0000
  C   C1268     1.0  0.72096  0.90287  0.41825  1.0000
  H   H2036     1.0  0.56002  0.98456  0.41592  1.0000
  S   S521      1.0  0.52330  0.73160  0.37885  1.0000
  H   H2037     1.0  0.62321  0.93556  0.62857  1.0000
  Fe  Fe264     1.0  0.58211  0.74307  0.50059  1.0000
  S   S522      1.0  0.58548  0.70966  0.50148  1.0000
  S   S523      1.0  0.56206  0.76222  0.52238  1.0000
  Fe  Fe265     1.0  0.60927  0.74921  0.45983  1.0000
  S   S524      1.0  0.61447  0.71619  0.45675  1.0000
  S   S525      1.0  0.62242  0.77328  0.43610  1.0000
  Fe  Fe266     1.0  0.58125  0.71778  0.46887  1.0000
  S   S526      1.0  0.55800  0.70230  0.46120  1.0000
  Fe  Fe267     1.0  0.61833  0.71078  0.48942  1.0000
  S   S527      1.0  0.64366  0.69058  0.50415  1.0000
  S   S528      1.0  0.57575  0.75120  0.46883  1.0000
  S   S529      1.0  0.61524  0.74369  0.49163  1.0000
  H   H2038     1.0  0.51369  0.98489  0.64450  1.0000
  C   C1269     1.0  0.51194  0.92004  0.34555  1.0000
  N   N124      1.0  0.49768  0.90543  0.34953  1.0000
  H   H2039     1.0  0.51557  0.70596  0.48424  1.0000
  H   H2040     1.0  0.49357  0.72281  0.49328  1.0000
  S   S530      1.0  0.71644  0.63404  0.45964  1.0000
  C   C1270     1.0  0.55388  0.98306  0.64362  1.0000
  C   C1271     1.0  0.72986  0.55327  0.56401  1.0000
  H   H2041     1.0  0.57365  0.82826  0.45444  1.0000
  H   H2042     1.0  0.52475  0.81728  0.61521  1.0000
  H   H2043     1.0  0.52047  0.88089  0.34070  1.0000
  H   H2044     1.0  0.51966  0.91901  0.35874  1.0000
  Fe  Fe268     1.0  0.64720  0.87623  0.44701  1.0000
  S   S531      1.0  0.65728  0.88441  0.41352  1.0000
  S   S532      1.0  0.64874  0.84514  0.46609  1.0000
  Fe  Fe269     1.0  0.63439  0.92019  0.45318  1.0000
  S   S533      1.0  0.64319  0.93215  0.42047  1.0000
  S   S534      1.0  0.61858  0.94175  0.47450  1.0000
  Fe  Fe270     1.0  0.62886  0.90749  0.41459  1.0000
  S   S535      1.0  0.60566  0.91321  0.39389  1.0000
  Fe  Fe271     1.0  0.67076  0.90846  0.42226  1.0000
  S   S536      1.0  0.61770  0.89727  0.44740  1.0000
  S   S537      1.0  0.66312  0.89848  0.45571  1.0000
  C   C1272     1.0  0.58968  0.80115  0.49729  1.0000
  H   H2045     1.0  0.52761  0.64363  0.37268  1.0000
  H   H2046     1.0  0.50907  0.69752  0.35561  1.0000
  C   C1273     1.0  0.73633  0.87043  0.43473  1.0000
  H   H2047     1.0  0.50100  0.79231  0.62516  1.0000
  H   H2048     1.0  0.58871  0.97609  0.45874  1.0000
  C   C1274     1.0  0.71964  0.88287  0.42729  1.0000
  C   C1275     1.0  0.65845  0.97616  0.49701  1.0000
  H   H2049     1.0  0.54654  0.66508  0.38564  1.0000
  C   C1276     1.0  0.57207  0.83544  0.49235  1.0000
  H   H2050     1.0  0.70581  0.87693  0.42841  1.0000
  S   S538      1.0  0.53050  0.84971  0.63368  1.0000
  S   S539      1.0  0.53517  0.90364  0.64514  1.0000
  H   H2051     1.0  0.53552  0.73771  0.51157  1.0000
  H   H2052     1.0  0.59359  0.94716  0.41694  1.0000
  C   C1277     1.0  0.55614  0.80788  0.48885  1.0000
  C   C1278     1.0  0.60192  0.93742  0.37913  1.0000
  C   C1279     1.0  0.58338  0.94465  0.37238  1.0000
  C   C1280     1.0  0.57950  0.96438  0.36169  1.0000
  C   C1281     1.0  0.51221  0.83340  0.64018  1.0000
  C   C1282     1.0  0.61290  0.96959  0.36399  1.0000
  C   C1283     1.0  0.61671  0.94992  0.37488  1.0000
  H   H2053     1.0  0.57184  0.93510  0.37573  1.0000
  H   H2054     1.0  0.63116  0.94436  0.37975  1.0000
  C   C1284     1.0  0.59380  0.96931  0.59843  1.0000
  C   C1285     1.0  0.57696  0.95939  0.60227  1.0000
  C   C1286     1.0  0.57675  0.94093  0.61557  1.0000
  C   C1287     1.0  0.59327  0.93248  0.62538  1.0000
  C   C1288     1.0  0.61032  0.94215  0.62112  1.0000
  C   C1289     1.0  0.61063  0.96051  0.60762  1.0000
  H   H2055     1.0  0.69578  0.49536  0.63232  1.0000
  H   H2056     1.0  0.56383  0.93323  0.61827  1.0000
  C   C1290     1.0  0.73637  0.54307  0.59851  1.0000
  S   S540      1.0  0.72456  0.51610  0.40134  1.0000
  C   C1291     1.0  0.63432  0.95549  0.48189  1.0000
  C   C1292     1.0  0.62545  0.97131  0.49261  1.0000
  C   C1293     1.0  0.59427  0.97690  0.35742  1.0000
  C   C1294     1.0  0.52034  0.65777  0.36405  1.0000
  C   C1295     1.0  0.63749  0.98159  0.50015  1.0000
  C   C1296     1.0  0.65535  0.95039  0.47808  1.0000
  H   H2057     1.0  0.60920  0.97552  0.49531  1.0000
  S   S541      1.0  0.70415  0.49123  0.32041  1.0000
  H   H2058     1.0  0.66229  0.93835  0.46955  1.0000
  H   H2059     1.0  0.54932  0.80579  0.50516  1.0000
  H   H2060     1.0  0.62370  0.96805  0.60471  1.0000
  H   H2061     1.0  0.51079  0.72566  0.54097  1.0000
  H   H2062     1.0  0.72458  0.57345  0.58580  1.0000
  H   H2063     1.0  0.55830  0.79284  0.48396  1.0000
  H   H2064     1.0  0.56566  0.83426  0.50874  1.0000
  H   H2065     1.0  0.58645  0.84163  0.49001  1.0000
  H   H2066     1.0  0.70446  0.92461  0.47035  1.0000
  H   H2067     1.0  0.51620  0.88243  0.36721  1.0000
  H   H2068     1.0  0.52380  0.91749  0.33223  1.0000
  C   C1297     1.0  0.73887  0.91048  0.41681  1.0000
  C   C1298     1.0  0.55254  0.66527  0.34540  1.0000
  C   C1299     1.0  0.66391  0.67542  0.49117  1.0000
  C   C1300     1.0  0.66397  0.67226  0.47153  1.0000
  C   C1301     1.0  0.68042  0.65991  0.46182  1.0000
  C   C1302     1.0  0.69669  0.65037  0.47181  1.0000
  C   C1303     1.0  0.69670  0.65369  0.49135  1.0000
  C   C1304     1.0  0.68038  0.66624  0.50096  1.0000
  H   H2069     1.0  0.65127  0.67910  0.46390  1.0000
  H   H2070     1.0  0.68034  0.65735  0.44668  1.0000
  H   H2071     1.0  0.70929  0.64663  0.49905  1.0000
  H   H2072     1.0  0.68049  0.66878  0.51610  1.0000
  C   C1305     1.0  0.63081  0.79289  0.44405  1.0000
  C   C1306     1.0  0.63554  0.79058  0.46345  1.0000
  C   C1307     1.0  0.64156  0.80657  0.46977  1.0000
  C   C1308     1.0  0.64253  0.82514  0.45688  1.0000
  C   C1309     1.0  0.63806  0.82745  0.43735  1.0000
  C   C1310     1.0  0.63242  0.81125  0.43088  1.0000
  H   H2073     1.0  0.63466  0.77650  0.47362  1.0000
  H   H2074     1.0  0.64517  0.80468  0.48483  1.0000
  H   H2075     1.0  0.63887  0.84171  0.42726  1.0000
  H   H2076     1.0  0.62888  0.81313  0.41579  1.0000
  C   C1311     1.0  0.53239  0.72435  0.40211  1.0000
  C   C1312     1.0  0.52221  0.71232  0.41833  1.0000
  C   C1313     1.0  0.53026  0.70565  0.43633  1.0000
  C   C1314     1.0  0.54823  0.71143  0.43849  1.0000
  C   C1315     1.0  0.55820  0.72386  0.42247  1.0000
  C   C1316     1.0  0.55042  0.73008  0.40422  1.0000
  C   C1317     1.0  0.50272  0.72103  0.53036  1.0000
  H   H2077     1.0  0.52251  0.69597  0.44861  1.0000
  H   H2078     1.0  0.57210  0.72833  0.42398  1.0000
  H   H2079     1.0  0.55836  0.73939  0.39174  1.0000
  C   C1318     1.0  0.52510  0.72841  0.57706  1.0000
  C   C1319     1.0  0.51991  0.74932  0.57143  1.0000
  C   C1320     1.0  0.53158  0.75968  0.55486  1.0000
  C   C1321     1.0  0.54841  0.74916  0.54382  1.0000
  C   C1322     1.0  0.55373  0.72831  0.54959  1.0000
  C   C1323     1.0  0.54209  0.71797  0.56616  1.0000
  H   H2080     1.0  0.71437  0.93779  0.49834  1.0000
  H   H2081     1.0  0.52742  0.77583  0.55051  1.0000
  H   H2082     1.0  0.56691  0.72015  0.54145  1.0000
  H   H2083     1.0  0.54625  0.70182  0.57057  1.0000
  H   H2084     1.0  0.49774  0.69688  0.50543  1.0000
  C   C1324     1.0  0.52648  0.73332  0.50173  1.0000
  C   C1325     1.0  0.51330  0.81825  0.62850  1.0000
  C   C1326     1.0  0.73624  0.53323  0.56063  1.0000
  H   H2085     1.0  0.53578  0.95276  0.63948  1.0000
  H   H2086     1.0  0.59300  0.78614  0.49221  1.0000
  C   C1327     1.0  0.58410  0.81781  0.46384  1.0000
  C   C1328     1.0  0.72929  0.53746  0.42969  1.0000
  H   H2087     1.0  0.58744  0.80300  0.45829  1.0000
  C   C1329     1.0  0.52346  0.69155  0.34655  1.0000
  H   H2088     1.0  0.62439  0.97920  0.36072  1.0000
  H   H2089     1.0  0.61877  0.97107  0.43276  1.0000
  H   H2090     1.0  0.51973  0.68834  0.33244  1.0000
  H   H2091     1.0  0.52543  0.68491  0.52575  1.0000
  H   H2092     1.0  0.50604  0.66329  0.37374  1.0000
  S   S542      1.0  0.72897  0.57923  0.48689  1.0000
  N   N125      1.0  0.73293  0.91567  0.48125  1.0000
  H   H2093     1.0  0.71329  0.54302  0.43048  1.0000
  H   H2094     1.0  0.66538  0.72661  0.43729  1.0000
  H   H2095     1.0  0.56142  0.84674  0.48384  1.0000
  H   H2096     1.0  0.59846  0.82405  0.46081  1.0000
  C   C1330     1.0  0.60936  0.97881  0.42102  1.0000
  N   N126      1.0  0.67997  0.73309  0.46004  1.0000
  C   C1331     1.0  0.68598  0.75195  0.44768  1.0000
  C   C1332     1.0  0.67487  0.73550  0.48158  1.0000
  C   C1333     1.0  0.69674  0.71605  0.45751  1.0000
  C   C1334     1.0  0.66215  0.72883  0.45340  1.0000
  H   H2097     1.0  0.69931  0.75582  0.45232  1.0000
  H   H2098     1.0  0.67351  0.76504  0.44914  1.0000
  H   H2099     1.0  0.68984  0.75065  0.43133  1.0000
  H   H2100     1.0  0.68797  0.73869  0.48719  1.0000
  H   H2101     1.0  0.66221  0.74816  0.48405  1.0000
  H   H2102     1.0  0.67010  0.72156  0.49130  1.0000
  H   H2103     1.0  0.69265  0.70163  0.46675  1.0000
  H   H2104     1.0  0.71053  0.71875  0.46226  1.0000
  H   H2105     1.0  0.70077  0.71356  0.44148  1.0000
  H   H2106     1.0  0.65692  0.71498  0.46269  1.0000
  N   N127      1.0  0.66995  0.60319  0.51966  1.0000
  C   C1335     1.0  0.67568  0.58092  0.52284  1.0000
  C   C1336     1.0  0.67107  0.61096  0.49777  1.0000
  C   C1337     1.0  0.68393  0.61219  0.52797  1.0000
  C   C1338     1.0  0.64913  0.60873  0.53009  1.0000
  H   H2107     1.0  0.66549  0.57352  0.51681  1.0000
  H   H2108     1.0  0.67529  0.57457  0.53918  1.0000
  H   H2109     1.0  0.69134  0.57628  0.51522  1.0000
  H   H2110     1.0  0.66610  0.62763  0.49492  1.0000
  H   H2111     1.0  0.68676  0.60787  0.48947  1.0000
  H   H2112     1.0  0.66130  0.60395  0.49079  1.0000
  H   H2113     1.0  0.67953  0.62887  0.52675  1.0000
  H   H2114     1.0  0.69967  0.60908  0.51983  1.0000
  H   H2115     1.0  0.68427  0.60589  0.54422  1.0000
  H   H2116     1.0  0.64437  0.62547  0.52795  1.0000
  H   H2117     1.0  0.64779  0.60317  0.54665  1.0000
  H   H2118     1.0  0.63816  0.60219  0.52420  1.0000
  H   H2119     1.0  0.60425  0.80671  0.49567  1.0000
  H   H2120     1.0  0.58337  0.79854  0.51371  1.0000
  S   S543      1.0  0.70054  0.91862  0.40856  1.0000
  H   H2121     1.0  0.54116  0.70218  0.52830  1.0000
  H   H2122     1.0  0.53276  0.70392  0.34242  1.0000
  C   C1339     1.0  0.74214  0.51798  0.57647  1.0000
  N   N128      1.0  0.61593  0.93624  0.54915  1.0000
  C   C1340     1.0  0.60426  0.92944  0.53633  1.0000
  C   C1341     1.0  0.63764  0.93269  0.54066  1.0000
  C   C1342     1.0  0.61258  0.92483  0.56992  1.0000
  C   C1343     1.0  0.60923  0.95806  0.54970  1.0000
  H   H2123     1.0  0.58779  0.93209  0.54221  1.0000
  H   H2124     1.0  0.60888  0.91301  0.53560  1.0000
  H   H2125     1.0  0.60656  0.93768  0.52051  1.0000
  H   H2126     1.0  0.64684  0.93794  0.54981  1.0000
  H   H2127     1.0  0.64326  0.91635  0.54012  1.0000
  H   H2128     1.0  0.64063  0.94099  0.52496  1.0000
  H   H2129     1.0  0.62099  0.92976  0.58005  1.0000
  H   H2130     1.0  0.61753  0.90827  0.57022  1.0000
  H   H2131     1.0  0.59633  0.92716  0.57680  1.0000
  H   H2132     1.0  0.61827  0.96388  0.55857  1.0000
  H   H2133     1.0  0.59310  0.96130  0.55674  1.0000
  H   H2134     1.0  0.61076  0.96718  0.53433  1.0000
  H   H2135     1.0  0.64934  0.74150  0.45481  1.0000
  H   H2136     1.0  0.68365  0.95676  0.48285  1.0000
  C   C1344     1.0  0.66742  0.96077  0.48564  1.0000
  S   S544      1.0  0.74159  0.51752  0.34234  1.0000
  C   C1345     1.0  0.50865  0.88458  0.35373  1.0000
  H   H2137     1.0  0.70786  0.89964  0.48503  1.0000
  C   C1346     1.0  0.72565  0.92375  0.50040  1.0000
  N   N129      1.0  0.57548  0.81558  0.48558  1.0000
  S   S545      1.0  0.67344  0.98786  0.50798  1.0000
  H   H2138     1.0  0.73530  0.85493  0.44170  1.0000
  H   H2139     1.0  0.50826  0.70790  0.41696  1.0000
  H   H2140     1.0  0.73179  0.94521  0.46299  1.0000
  H   H2141     1.0  0.74047  0.48975  0.44754  1.0000
  H   H2142     1.0  0.59569  0.94534  0.44288  1.0000
  H   H2143     1.0  0.52489  0.68465  0.38635  1.0000
  N   N130      1.0  0.51669  0.71573  0.51205  1.0000
  C   C1347     1.0  0.57617  0.98639  0.41159  1.0000
  N   N131      1.0  0.53378  0.67325  0.35813  1.0000
  Fe  Fe272     1.0  0.73186  0.49019  0.33515  1.0000
  S   S546      1.0  0.59315  0.90999  0.64303  1.0000
  H   H2144     1.0  0.54971  0.98505  0.62830  1.0000
  C   C1348     1.0  0.71576  0.91087  0.47381  1.0000
  S   S547      1.0  0.71974  0.57224  0.54568  1.0000
  H   H2145     1.0  0.51518  0.74674  0.49739  1.0000
  H   H2146     1.0  0.71293  0.52075  0.64029  1.0000
  C   C1349     1.0  0.73898  0.52439  0.41597  1.0000
  H   H2147     1.0  0.49535  0.70799  0.53882  1.0000
  C   C1350     1.0  0.49990  0.80407  0.63412  1.0000
  C   C1351     1.0  0.53872  0.67847  0.37645  1.0000
  H   H2148     1.0  0.73651  0.54702  0.61308  1.0000
  H   H2149     1.0  0.54308  0.69407  0.50443  1.0000
  H   H2150     1.0  0.56400  0.96603  0.59494  1.0000
  H   H2151     1.0  0.73267  0.55380  0.45265  1.0000
  H   H2152     1.0  0.73594  0.52936  0.54607  1.0000
  H   H2153     1.0  0.53689  0.72994  0.48769  1.0000
  C   C1352     1.0  0.50536  0.71010  0.49817  1.0000
  H   H2154     1.0  0.51594  0.65382  0.35059  1.0000
  H   H2155     1.0  0.57126  0.95093  0.43525  1.0000
  C   C1353     1.0  0.53226  0.69846  0.51790  1.0000
  H   H2156     1.0  0.56078  0.65147  0.35368  1.0000
  H   H2157     1.0  0.73978  0.92603  0.40996  1.0000
  H   H2158     1.0  0.72089  0.90424  0.45969  1.0000
  Fe  Fe273     1.0  0.73711  0.61045  0.47763  1.0000
  H   H2159     1.0  0.49820  0.87324  0.35670  1.0000
  H   H2160     1.0  0.73837  0.92746  0.50631  1.0000
  H   H2161     1.0  0.56394  0.98163  0.45189  1.0000
  H   H2162     1.0  0.56496  0.96997  0.35707  1.0000
  C   C1354     1.0  0.58707  0.95387  0.43082  1.0000
  N   N132      1.0  0.58812  0.97573  0.42748  1.0000
  Fe  Fe274     1.0  0.74011  0.50122  0.37434  1.0000
  H   H2163     1.0  0.71841  0.91254  0.51227  1.0000
  H   H2164     1.0  0.72466  0.96925  0.54703  1.0000
  H   H2165     1.0  0.61610  0.97269  0.40679  1.0000
  H   H2166     1.0  0.54928  0.66118  0.33146  1.0000
  H   H2167     1.0  0.50170  0.93531  0.64600  1.0000
  H   H2168     1.0  0.67565  0.52669  0.64413  1.0000
  Fe  Fe275     1.0  0.73951  0.57999  0.51582  1.0000
  C   C1355     1.0  0.74020  0.54349  0.44234  1.0000
  H   H2169     1.0  0.50688  0.75750  0.57976  1.0000
  C   C1356     1.0  0.73354  0.97233  0.53159  1.0000
  H   H2170     1.0  0.50404  0.93590  0.34243  1.0000
  H   H2171     1.0  0.74101  0.88494  0.49570  1.0000
  H   H2172     1.0  0.56955  0.97451  0.64284  1.0000
  H   H2173     1.0  0.58186  0.98039  0.39718  1.0000
  C   C1357     1.0  0.57991  0.98383  0.44650  1.0000
  H   H2174     1.0  0.74046  0.92097  0.36767  1.0000
  C   C1358     1.0  0.65596  0.87315  0.81374  1.0000
  C   C1359     1.0  0.67592  0.55815  0.97356  1.0000
  H   H2175     1.0  0.56514  0.55883  0.93550  1.0000
  H   H2176     1.0  0.59322  0.54806  0.79651  1.0000
  C   C1360     1.0  0.54302  0.78605  0.70407  1.0000
  H   H2177     1.0  0.68452  0.54419  0.96788  1.0000
  H   H2178     1.0  0.61474  0.89744  0.79298  1.0000
  S   S548      1.0  0.68640  0.96861  0.89230  1.0000
  Fe  Fe276     1.0  0.57675  0.91661  0.84531  1.0000
  S   S549      1.0  0.56446  0.88774  0.84787  1.0000
  S   S550      1.0  0.60300  0.91398  0.86196  1.0000
  Fe  Fe277     1.0  0.54806  0.93938  0.81678  1.0000
  S   S551      1.0  0.53426  0.91222  0.81623  1.0000
  S   S552      1.0  0.53673  0.96988  0.80020  1.0000
  Fe  Fe278     1.0  0.53393  0.90676  0.84976  1.0000
  S   S553      1.0  0.50509  0.90031  0.87032  1.0000
  Fe  Fe279     1.0  0.56604  0.89579  0.81421  1.0000
  S   S554      1.0  0.58118  0.86969  0.79809  1.0000
  S   S555      1.0  0.54584  0.93503  0.85050  1.0000
  S   S556      1.0  0.58010  0.92351  0.81149  1.0000
  S   S557      1.0  0.55003  0.90227  0.68893  1.0000
  S   S558      1.0  0.51768  0.87292  0.68591  1.0000
  Fe  Fe280     1.0  0.52076  0.90576  0.67744  1.0000
  C   C1361     1.0  0.71649  0.93075  0.95291  1.0000
  Fe  Fe281     1.0  0.54811  0.86926  0.69502  1.0000
  S   S559      1.0  0.55553  0.84637  0.72220  1.0000
  C   C1362     1.0  0.68360  0.86039  0.96452  1.0000
  Fe  Fe282     1.0  0.63663  0.53022  0.89718  1.0000
  Fe  Fe283     1.0  0.68485  0.98031  0.85957  1.0000
  S   S560      1.0  0.63584  0.52998  0.86418  1.0000
  Fe  Fe284     1.0  0.62702  0.55730  0.92983  1.0000
  S   S561      1.0  0.63914  0.53240  0.95277  1.0000
  S   S562      1.0  0.61332  0.58839  0.93771  1.0000
  Fe  Fe285     1.0  0.66475  0.52495  0.92809  1.0000
  S   S563      1.0  0.69449  0.51554  0.93974  1.0000
  Fe  Fe286     1.0  0.62306  0.51293  0.94080  1.0000
  C   C1363     1.0  0.54248  0.79460  0.66813  1.0000
  S   S564      1.0  0.65395  0.55160  0.90564  1.0000
  S   S565      1.0  0.60875  0.53837  0.91944  1.0000
  H   H2179     1.0  0.72559  0.50102  0.65694  1.0000
  H   H2180     1.0  0.52238  0.68961  0.97179  1.0000
  H   H2181     1.0  0.60710  0.52308  0.80198  1.0000
  C   C1364     1.0  0.71646  0.54225  0.91278  1.0000
  C   C1365     1.0  0.71540  0.52818  0.93064  1.0000
  H   H2182     1.0  0.57440  0.54402  0.83162  1.0000
  C   C1366     1.0  0.53064  0.82015  0.68952  1.0000
  H   H2183     1.0  0.70443  0.54523  0.90387  1.0000
  H   H2184     1.0  0.52550  0.87936  0.79508  1.0000
  C   C1367     1.0  0.59602  0.61099  0.96766  1.0000
  C   C1368     1.0  0.60737  0.59250  0.96312  1.0000
  H   H2185     1.0  0.50961  0.54825  0.75699  1.0000
  H   H2186     1.0  0.59116  0.62258  0.95557  1.0000
  H   H2187     1.0  0.67348  0.58783  0.92772  1.0000
  H   H2188     1.0  0.55302  0.78046  0.66543  1.0000
  C   C1369     1.0  0.72748  0.91351  0.96283  1.0000
  H   H2189     1.0  0.50500  0.88005  0.83052  1.0000
  C   C1370     1.0  0.51575  0.85880  0.87641  1.0000
  C   C1371     1.0  0.51137  0.83909  0.88341  1.0000
  H   H2190     1.0  0.71639  0.98903  0.98103  1.0000
  H   H2191     1.0  0.53257  0.82627  0.70288  1.0000
  N   N133      1.0  0.63618  0.88638  0.81340  1.0000
  H   H2192     1.0  0.53109  0.86117  0.87040  1.0000
  H   H2193     1.0  0.52335  0.82622  0.88262  1.0000
  C   C1372     1.0  0.50051  0.86569  0.82877  1.0000
  H   H2194     1.0  0.57629  0.50065  0.79352  1.0000
  H   H2195     1.0  0.56971  0.58696  0.95077  1.0000
  H   H2196     1.0  0.51491  0.81695  0.69210  1.0000
  H   H2197     1.0  0.70716  0.94181  0.96154  1.0000
  H   H2198     1.0  0.52584  0.81846  0.96564  1.0000
  S   S566      1.0  0.57293  0.50057  0.75047  1.0000
  C   C1373     1.0  0.67132  0.57459  0.93983  1.0000
  S   S567      1.0  0.73194  0.98194  0.88346  1.0000
  C   C1374     1.0  0.72938  0.91939  0.92066  1.0000
  H   H2199     1.0  0.66124  0.87191  0.82844  1.0000
  H   H2200     1.0  0.50825  0.94905  0.82954  1.0000
  C   C1375     1.0  0.57331  0.86452  0.77678  1.0000
  C   C1376     1.0  0.57778  0.84455  0.77313  1.0000
  C   C1377     1.0  0.57205  0.83937  0.75646  1.0000
  C   C1378     1.0  0.56223  0.85417  0.74285  1.0000
  C   C1379     1.0  0.55770  0.87430  0.74634  1.0000
  C   C1380     1.0  0.56309  0.87946  0.76346  1.0000
  H   H2201     1.0  0.58572  0.83294  0.78328  1.0000
  H   H2202     1.0  0.57558  0.82382  0.75390  1.0000
  H   H2203     1.0  0.55000  0.88582  0.73595  1.0000
  H   H2204     1.0  0.55968  0.89497  0.76612  1.0000
  C   C1381     1.0  0.64259  0.96372  0.84946  1.0000
  C   C1382     1.0  0.62597  0.96611  0.83944  1.0000
  C   C1383     1.0  0.61361  0.95106  0.84325  1.0000
  C   C1384     1.0  0.61778  0.93351  0.85718  1.0000
  C   C1385     1.0  0.63448  0.93103  0.86709  1.0000
  C   C1386     1.0  0.64685  0.94608  0.86326  1.0000
  S   S568      1.0  0.56500  0.86399  0.66444  1.0000
  H   H2205     1.0  0.60079  0.95314  0.83552  1.0000
  H   H2206     1.0  0.63782  0.91747  0.87784  1.0000
  H   H2207     1.0  0.65963  0.94408  0.87102  1.0000
  C   C1387     1.0  0.54832  0.50873  0.76241  1.0000
  C   C1388     1.0  0.53724  0.52677  0.75383  1.0000
  C   C1389     1.0  0.51802  0.53427  0.76365  1.0000
  H   H2208     1.0  0.61911  0.86257  0.82795  1.0000
  C   C1390     1.0  0.52088  0.50566  0.79067  1.0000
  C   C1391     1.0  0.71167  0.51254  0.65614  1.0000
  H   H2209     1.0  0.54361  0.53507  0.73962  1.0000
  H   H2210     1.0  0.56165  0.49781  0.81846  1.0000
  H   H2211     1.0  0.66768  0.87916  0.80157  1.0000
  H   H2212     1.0  0.70633  0.57974  0.96687  1.0000
  H   H2213     1.0  0.66117  0.51189  0.66440  1.0000
  H   H2214     1.0  0.71184  0.52355  0.66614  1.0000
  C   C1392     1.0  0.62890  0.50907  0.85697  1.0000
  Fe  Fe287     1.0  0.71826  0.95513  0.88125  1.0000
  H   H2215     1.0  0.53218  0.83236  0.67622  1.0000
  C   C1393     1.0  0.50797  0.68734  0.98208  1.0000
  H   H2216     1.0  0.63948  0.51840  0.82534  1.0000
  H   H2217     1.0  0.64897  0.91392  0.80424  1.0000
  H   H2218     1.0  0.55543  0.94276  0.65463  1.0000
  H   H2219     1.0  0.55453  0.53771  0.95085  1.0000
  N   N134      1.0  0.57488  0.52503  0.80969  1.0000
  H   H2220     1.0  0.55551  0.55339  0.80262  1.0000
  C   C1394     1.0  0.63793  0.90683  0.81640  1.0000
  H   H2221     1.0  0.55411  0.77206  0.70212  1.0000
  H   H2222     1.0  0.71004  0.97446  0.96455  1.0000
  C   C1395     1.0  0.62964  0.88760  0.79373  1.0000
  C   C1396     1.0  0.69212  0.49254  0.68313  1.0000
  N   N135      1.0  0.55910  0.55983  0.96739  1.0000
  C   C1397     1.0  0.67528  0.51866  0.66000  1.0000
  C   C1398     1.0  0.51071  0.83404  0.81599  1.0000
  H   H2223     1.0  0.67941  0.56077  0.93365  1.0000
  H   H2224     1.0  0.65515  0.85758  0.81157  1.0000
  H   H2225     1.0  0.64060  0.89389  0.78091  1.0000
  S   S569      1.0  0.49599  0.92915  0.68984  1.0000
  H   H2226     1.0  0.69110  0.50326  0.69381  1.0000
  H   H2227     1.0  0.50022  0.75572  0.97726  1.0000
  H   H2228     1.0  0.52513  0.65495  0.96390  1.0000
  S   S570      1.0  0.71581  0.96461  0.84821  1.0000
  H   H2229     1.0  0.64283  0.90642  0.83113  1.0000
  C   C1399     1.0  0.49418  0.82314  0.97831  1.0000
  H   H2230     1.0  0.62548  0.87676  0.84496  1.0000
  H   H2231     1.0  0.59392  0.52954  0.78073  1.0000
  H   H2232     1.0  0.57789  0.79363  0.68062  1.0000
  H   H2233     1.0  0.56092  0.52302  0.84091  1.0000
  H   H2234     1.0  0.56855  0.81881  0.66917  1.0000
  C   C1400     1.0  0.51090  0.65357  0.97477  1.0000
  C   C1401     1.0  0.51892  0.98386  0.65920  1.0000
  H   H2235     1.0  0.62782  0.87246  0.79115  1.0000
  H   H2236     1.0  0.53199  0.85586  0.78552  1.0000
  C   C1402     1.0  0.55417  0.55433  0.94922  1.0000
  H   H2237     1.0  0.50794  0.82524  0.83154  1.0000
  C   C1403     1.0  0.55878  0.58193  0.96430  1.0000
  H   H2238     1.0  0.65050  0.89933  0.98241  1.0000
  H   H2239     1.0  0.50630  0.86835  0.78850  1.0000
  H   H2240     1.0  0.51459  0.49746  0.80496  1.0000
  C   C1404     1.0  0.56612  0.80708  0.68283  1.0000
  H   H2241     1.0  0.52087  0.88215  0.94911  1.0000
  N   N136      1.0  0.51675  0.85364  0.81631  1.0000
  H   H2242     1.0  0.64654  0.88261  0.96668  1.0000
  N   N137      1.0  0.67746  0.88083  0.97010  1.0000
  H   H2243     1.0  0.51664  0.89453  0.92420  1.0000
  C   C1405     1.0  0.70027  0.57830  0.95332  1.0000
  H   H2244     1.0  0.70296  0.59172  0.94159  1.0000
  C   C1406     1.0  0.57535  0.50339  0.80923  1.0000
  H   H2245     1.0  0.49608  0.84637  0.66618  1.0000
  C   C1407     1.0  0.73118  0.52426  0.94197  1.0000
  H   H2246     1.0  0.62257  0.97973  0.82877  1.0000
  C   C1408     1.0  0.61969  0.49454  0.87122  1.0000
  H   H2247     1.0  0.49834  0.70244  0.98250  1.0000
  S   S571      1.0  0.73128  0.92341  0.89423  1.0000
  C   C1409     1.0  0.50990  0.52377  0.78216  1.0000
  H   H2248     1.0  0.54359  0.59042  0.96194  1.0000
  C   C1410     1.0  0.71750  0.93374  0.93189  1.0000
  H   H2249     1.0  0.61709  0.49577  0.88710  1.0000
  H   H2250     1.0  0.49409  0.86625  0.97261  1.0000
  H   H2251     1.0  0.50350  0.90550  0.94595  1.0000
  C   C1411     1.0  0.61359  0.57766  0.97885  1.0000
  H   H2252     1.0  0.54514  0.79128  0.71789  1.0000
  C   C1412     1.0  0.68194  0.89619  0.95207  1.0000
  H   H2253     1.0  0.60619  0.88762  0.83010  1.0000
  H   H2254     1.0  0.62320  0.91717  0.81663  1.0000
  H   H2255     1.0  0.73413  0.56307  0.89241  1.0000
  H   H2256     1.0  0.67192  0.59636  0.98039  1.0000
  C   C1413     1.0  0.57449  0.52789  0.83069  1.0000
  H   H2257     1.0  0.65495  0.57358  0.94294  1.0000
  H   H2258     1.0  0.73042  0.51339  0.95581  1.0000
  C   C1414     1.0  0.50911  0.89092  0.94018  1.0000
  C   C1415     1.0  0.73329  0.55229  0.90630  1.0000
  H   H2259     1.0  0.62225  0.56338  0.97566  1.0000
  H   H2260     1.0  0.51227  0.85080  0.94243  1.0000
  N   N138      1.0  0.67862  0.57640  0.95828  1.0000
  N   N139      1.0  0.54558  0.80193  0.68614  1.0000
  S   S572      1.0  0.49947  0.59594  0.97316  1.0000
  S   S573      1.0  0.64957  0.50310  0.91784  1.0000
  H   H2261     1.0  0.67816  0.91178  0.95584  1.0000
  H   H2262     1.0  0.59121  0.55394  0.95809  1.0000
  H   H2263     1.0  0.53367  0.84106  0.84055  1.0000
  C   C1416     1.0  0.55665  0.53701  0.80210  1.0000
  H   H2264     1.0  0.50663  0.68372  0.94359  1.0000
  C   C1417     1.0  0.62117  0.87785  0.82982  1.0000
  H   H2265     1.0  0.70917  0.94723  0.92435  1.0000
  H   H2266     1.0  0.70947  0.56479  0.94730  1.0000
  H   H2267     1.0  0.66859  0.60854  0.95516  1.0000
  H   H2268     1.0  0.49660  0.85715  0.84422  1.0000
  H   H2269     1.0  0.53499  0.96208  0.69122  1.0000
  C   C1418     1.0  0.66694  0.59452  0.96637  1.0000
  N   N140      1.0  0.69330  0.50299  0.66196  1.0000
  C   C1419     1.0  0.51472  0.82293  0.97825  1.0000
  H   H2270     1.0  0.68014  0.84845  0.97772  1.0000
  H   H2271     1.0  0.56873  0.81332  0.69589  1.0000
  C   C1420     1.0  0.50206  0.96495  0.82697  1.0000
  H   H2272     1.0  0.58798  0.51889  0.83692  1.0000
  H   H2273     1.0  0.58050  0.53246  0.97236  1.0000
  C   C1421     1.0  0.51308  0.97863  0.81352  1.0000
  C   C1422     1.0  0.59307  0.53176  0.79665  1.0000
  C   C1423     1.0  0.63218  0.50731  0.83639  1.0000
  H   H2274     1.0  0.67333  0.89563  0.93999  1.0000
  C   C1424     1.0  0.50027  0.87540  0.87772  1.0000
  N   N141      1.0  0.49761  0.67332  0.97534  1.0000
  C   C1425     1.0  0.54539  0.97038  0.67927  1.0000
  H   H2275     1.0  0.70531  0.88012  0.98042  1.0000
  H   H2276     1.0  0.70014  0.85726  0.95904  1.0000
  H   H2277     1.0  0.52265  0.82454  0.80676  1.0000
  S   S574      1.0  0.65761  0.98309  0.84430  1.0000
  H   H2278     1.0  0.54260  0.53193  0.81114  1.0000
  H   H2279     1.0  0.52956  0.94355  0.66590  1.0000
  H   H2280     1.0  0.55676  0.53551  0.78612  1.0000
  C   C1426     1.0  0.50071  0.86027  0.93373  1.0000
  C   C1427     1.0  0.53554  0.84997  0.82503  1.0000
  C   C1428     1.0  0.65561  0.88403  0.97807  1.0000
  H   H2281     1.0  0.69826  0.89383  0.94547  1.0000
  H   H2282     1.0  0.53884  0.56202  0.94634  1.0000
  H   H2283     1.0  0.54028  0.86442  0.82603  1.0000
  H   H2284     1.0  0.52763  0.78190  0.70690  1.0000
  H   H2285     1.0  0.50810  0.86314  0.91770  1.0000
  H   H2286     1.0  0.54829  0.84152  0.81562  1.0000
  C   C1429     1.0  0.53997  0.49806  0.78074  1.0000
  H   H2287     1.0  0.67568  0.85855  0.95238  1.0000
  H   H2288     1.0  0.50489  0.78015  0.97935  1.0000
  H   H2289     1.0  0.58866  0.49387  0.81524  1.0000
  H   H2290     1.0  0.49658  0.83623  0.80949  1.0000
  H   H2291     1.0  0.67422  0.53019  0.66984  1.0000
  H   H2292     1.0  0.50334  0.64249  0.97015  1.0000
  N   N142      1.0  0.49250  0.87942  0.94161  1.0000
  H   H2293     1.0  0.56283  0.58663  0.97753  1.0000
  C   C1430     1.0  0.52025  0.86480  0.79546  1.0000
  H   H2294     1.0  0.52678  0.79151  0.66967  1.0000
  H   H2295     1.0  0.56091  0.96175  0.67969  1.0000
  C   C1431     1.0  0.49731  0.83457  0.65727  1.0000
  C   C1432     1.0  0.57939  0.54918  0.97083  1.0000
  H   H2296     1.0  0.54497  0.80606  0.65424  1.0000
  S   S575      1.0  0.60534  0.49246  0.96434  1.0000
  H   H2297     1.0  0.65052  0.59360  0.97013  1.0000
  C   C1433     1.0  0.73891  0.89879  0.95175  1.0000
  H   H2298     1.0  0.65979  0.55614  0.97753  1.0000
  C   C1434     1.0  0.73984  0.90174  0.93065  1.0000
  H   H2299     1.0  0.73371  0.96763  0.93326  1.0000
  C   C1435     1.0  0.71792  0.98714  0.96496  1.0000
  H   H2300     1.0  0.52849  0.56130  0.98290  1.0000
  C   C1436     1.0  0.54405  0.55391  0.98516  1.0000
  H   H2301     1.0  0.58327  0.55244  0.98484  1.0000
  H   H2302     1.0  0.50788  0.97644  0.67113  1.0000
  C   C1437     1.0  0.74057  0.98084  0.93424  1.0000
  N   N143      1.0  0.73933  0.98343  0.95546  1.0000
  C   C1438     1.0  0.62635  0.49115  0.83008  1.0000
  H   H2303     1.0  0.54501  0.98544  0.68344  1.0000
  N   N144      1.0  0.53958  0.97237  0.65914  1.0000
  C   C1439     1.0  0.54015  0.95199  0.65451  1.0000
  Fe  Fe288     1.0  0.53461  0.87016  0.65468  1.0000
  Fe  Fe289     1.0  0.56432  0.89759  0.65732  1.0000
  H   H2304     1.0  0.49242  0.65756  0.74708  1.0000
  C   C1440     1.0  0.49279  0.68178  0.95490  1.0000
  C   C1441     1.0  0.68878  0.88263  0.98583  1.0000
  H   H2305     1.0  0.62929  0.48976  0.81424  1.0000
  Fe  Fe290     1.0  0.80477  0.22755  0.01845  1.0000
  H   H2306     1.0  0.87697  0.45869  0.09190  1.0000
  H   H2307     1.0  0.88933  0.00508  0.24691  1.0000
  Fe  Fe291     1.0  0.84443  0.23021  0.03195  1.0000
  S   S576      1.0  0.85056  0.25752  0.00876  1.0000
  S   S577      1.0  0.86303  0.21670  0.05688  1.0000
  Fe  Fe292     1.0  0.81767  0.26892  0.01789  1.0000
  S   S578      1.0  0.80577  0.30195  0.01982  1.0000
  H   H2308     1.0  0.89338  0.47028  0.07096  1.0000
  S   S579      1.0  0.81186  0.24267  0.04232  1.0000
  H   H2309     1.0  0.75070  0.41980  0.04828  1.0000
  S   S580      1.0  0.94593  0.24850  0.12172  1.0000
  H   H2310     1.0  0.86100  0.47136  0.03271  1.0000
  Fe  Fe293     1.0  0.95781  0.23851  0.09166  1.0000
  S   S581      1.0  0.94387  0.24661  0.06299  1.0000
  H   H2311     1.0  0.86611  0.31982  0.05790  1.0000
  Fe  Fe294     1.0  0.97444  0.10627  0.24522  1.0000
  H   H2312     1.0  0.83659  0.01036  0.28541  1.0000
  H   H2313     1.0  0.78044  0.10236  0.04096  1.0000
  Fe  Fe295     1.0  0.95043  0.07148  0.25345  1.0000
  S   S582      1.0  0.95707  0.06148  0.28506  1.0000
  S   S583      1.0  0.93370  0.05609  0.23675  1.0000
  Fe  Fe296     1.0  0.95095  0.09458  0.28734  1.0000
  H   H2314     1.0  0.88072  0.26512  0.07728  1.0000
  H   H2315     1.0  0.91594  0.28633  0.05739  1.0000
  C   C1442     1.0  0.78124  0.16603  0.99385  1.0000
  S   S584      1.0  0.94161  0.10439  0.25654  1.0000
  H   H2316     1.0  0.76095  0.05517  0.05529  1.0000
  H   H2317     1.0  0.99093  0.25689  0.19017  1.0000
  Fe  Fe297     1.0  0.82335  0.37783  0.08335  1.0000
  S   S585      1.0  0.80676  0.38953  0.11169  1.0000
  S   S586      1.0  0.83224  0.34384  0.08382  1.0000
  Fe  Fe298     1.0  0.82273  0.42049  0.05954  1.0000
  S   S587      1.0  0.80513  0.43538  0.08561  1.0000
  S   S588      1.0  0.83598  0.43666  0.02943  1.0000
  Fe  Fe299     1.0  0.82664  0.41386  0.10387  1.0000
  S   S589      1.0  0.84509  0.42172  0.12522  1.0000
  Fe  Fe300     1.0  0.78699  0.40989  0.09082  1.0000
  S   S590      1.0  0.87894  0.99404  0.29086  1.0000
  S   S591      1.0  0.84503  0.40003  0.07743  1.0000
  S   S592      1.0  0.80271  0.39723  0.06295  1.0000
  C   C1443     1.0  0.74964  0.31057  0.07866  1.0000
  C   C1444     1.0  0.83094  0.47245  0.00353  1.0000
  Fe  Fe301     1.0  0.84033  0.24142  0.98770  1.0000
  H   H2318     1.0  0.84447  0.45006  0.08582  1.0000
  H   H2319     1.0  0.76739  0.37946  0.07714  1.0000
  C   C1445     1.0  0.82313  0.46091  0.02162  1.0000
  S   S593      1.0  0.93123  0.10270  0.31628  1.0000
  H   H2320     1.0  0.83758  0.45770  0.06118  1.0000
  C   C1446     1.0  0.87393  0.46247  0.14056  1.0000
  C   C1447     1.0  0.86833  0.44448  0.13760  1.0000
  C   C1448     1.0  0.85135  0.44498  0.12857  1.0000
  C   C1449     1.0  0.83988  0.46380  0.12273  1.0000
  H   H2321     1.0  0.88704  0.46177  0.14749  1.0000
  H   H2322     1.0  0.87727  0.43004  0.14233  1.0000
  H   H2323     1.0  0.82646  0.46451  0.11630  1.0000
  C   C1450     1.0  0.97732  0.47925  0.12771  1.0000
  H   H2324     1.0  0.93428  0.24544  0.18095  1.0000
  C   C1451     1.0  0.96769  0.44812  0.12347  1.0000
  C   C1452     1.0  0.96236  0.46834  0.12653  1.0000
  H   H2325     1.0  0.94388  0.45293  0.21200  1.0000
  H   H2326     1.0  0.95608  0.43953  0.12301  1.0000
  H   H2327     1.0  0.94669  0.47538  0.12831  1.0000
  H   H2328     1.0  0.88251  0.31127  0.09833  1.0000
  H   H2329     1.0  0.98037  0.11981  0.18077  1.0000
  H   H2330     1.0  0.96669  0.42955  0.16618  1.0000
  S   S594      1.0  0.98678  0.25057  0.08850  1.0000
  C   C1453     1.0  0.89653  0.01381  0.25420  1.0000
  C   C1454     1.0  0.90881  0.02757  0.24245  1.0000
  C   C1455     1.0  0.91818  0.03908  0.25175  1.0000
  C   C1456     1.0  0.91506  0.03685  0.27283  1.0000
  C   C1457     1.0  0.90285  0.02310  0.28455  1.0000
  C   C1458     1.0  0.86249  0.48128  0.13466  1.0000
  H   H2331     1.0  0.91105  0.02934  0.22612  1.0000
  H   H2332     1.0  0.92189  0.04585  0.28016  1.0000
  H   H2333     1.0  0.75881  0.31752  0.02728  1.0000
  C   C1459     1.0  0.95623  0.18199  0.17977  1.0000
  H   H2334     1.0  0.82325  0.03485  0.28970  1.0000
  H   H2335     1.0  0.79336  0.15581  0.98662  1.0000
  C   C1460     1.0  0.79589  0.48873  0.02738  1.0000
  C   C1461     1.0  0.95491  0.15596  0.20992  1.0000
  C   C1462     1.0  0.94522  0.17210  0.19717  1.0000
  H   H2336     1.0  0.88817  0.32741  0.06253  1.0000
  H   H2337     1.0  0.75998  0.09376  0.03395  1.0000
  H   H2338     1.0  0.94632  0.14849  0.22334  1.0000
  H   H2339     1.0  0.92912  0.17696  0.20082  1.0000
  C   C1463     1.0  0.88560  0.22506  0.05821  1.0000
  C   C1464     1.0  0.89379  0.21944  0.07621  1.0000
  C   C1465     1.0  0.91169  0.22585  0.07787  1.0000
  C   C1466     1.0  0.92166  0.23777  0.06142  1.0000
  C   C1467     1.0  0.91358  0.24329  0.04336  1.0000
  C   C1468     1.0  0.89556  0.23704  0.04177  1.0000
  H   H2340     1.0  0.88622  0.21008  0.08895  1.0000
  H   H2341     1.0  0.91780  0.22147  0.09184  1.0000
  H   H2342     1.0  0.92124  0.25245  0.03054  1.0000
  H   H2343     1.0  0.88953  0.24128  0.02777  1.0000
  C   C1469     1.0  0.81351  0.31332  0.03755  1.0000
  C   C1470     1.0  0.82022  0.30179  0.05496  1.0000
  C   C1471     1.0  0.82505  0.31141  0.06945  1.0000
  C   C1472     1.0  0.82389  0.33254  0.06635  1.0000
  C   C1473     1.0  0.81714  0.34403  0.04895  1.0000
  C   C1474     1.0  0.81175  0.33447  0.03474  1.0000
  H   H2344     1.0  0.82134  0.28548  0.05743  1.0000
  H   H2345     1.0  0.82966  0.30244  0.08312  1.0000
  H   H2346     1.0  0.81644  0.36025  0.04619  1.0000
  H   H2347     1.0  0.80652  0.34351  0.02133  1.0000
  H   H2348     1.0  0.74901  0.14866  0.05854  1.0000
  C   C1475     1.0  0.77038  0.19460  0.01211  1.0000
  H   H2349     1.0  0.93579  0.12395  0.20190  1.0000
  H   H2350     1.0  0.93004  0.11620  0.16971  1.0000
  H   H2351     1.0  0.78125  0.28923  0.05860  1.0000
  H   H2352     1.0  0.95867  0.13407  0.17068  1.0000
  H   H2353     1.0  0.97669  0.22059  0.17989  1.0000
  H   H2354     1.0  0.97518  0.11521  0.15747  1.0000
  H   H2355     1.0  0.95159  0.45409  0.16662  1.0000
  H   H2356     1.0  0.87109  0.48234  0.28580  1.0000
  H   H2357     1.0  0.84831  0.03222  0.27527  1.0000
  C   C1476     1.0  0.75114  0.38150  0.08041  1.0000
  H   H2358     1.0  0.80848  0.00402  0.27083  1.0000
  H   H2359     1.0  0.76422  0.31449  0.08043  1.0000
  H   H2360     1.0  0.76114  0.10226  0.07529  1.0000
  H   H2361     1.0  0.83799  0.47651  0.07606  1.0000
  H   H2362     1.0  0.86973  0.48444  0.08078  1.0000
  H   H2363     1.0  0.97966  0.32789  0.13268  1.0000
  N   N145      1.0  0.88611  0.29589  0.07286  1.0000
  H   H2364     1.0  0.74587  0.29805  0.09109  1.0000
  C   C1477     1.0  0.87628  0.29942  0.09342  1.0000
  C   C1478     1.0  0.90804  0.28950  0.07258  1.0000
  C   C1479     1.0  0.87768  0.27983  0.06709  1.0000
  H   H2365     1.0  0.74449  0.33536  0.04301  1.0000
  C   C1480     1.0  0.95735  0.45908  0.20287  1.0000
  S   S595      1.0  0.83690  0.21281  0.01003  1.0000
  H   H2366     1.0  0.87832  0.28537  0.10471  1.0000
  S   S596      1.0  0.96992  0.20696  0.10537  1.0000
  H   H2367     1.0  0.85979  0.30480  0.09408  1.0000
  C   C1481     1.0  0.74559  0.17691  0.00408  1.0000
  H   H2368     1.0  0.79454  0.02836  0.27513  1.0000
  H   H2369     1.0  0.96676  0.12070  0.31509  1.0000
  H   H2370     1.0  0.86109  0.28375  0.06766  1.0000
  H   H2371     1.0  0.94256  0.26945  0.17019  1.0000
  H   H2372     1.0  0.96257  0.25427  0.21894  1.0000
  Fe  Fe302     1.0  0.97619  0.25769  0.11988  1.0000
  C   C1482     1.0  0.75024  0.19222  0.01286  1.0000
  H   H2373     1.0  0.83517  0.05722  0.24711  1.0000
  H   H2374     1.0  0.77294  0.99084  0.18460  1.0000
  N   N146      1.0  0.96216  0.24907  0.18899  1.0000
  C   C1483     1.0  0.74497  0.05725  0.06123  1.0000
  H   H2375     1.0  0.87003  0.43604  0.04908  1.0000
  C   C1484     1.0  0.87734  0.44180  0.05958  1.0000
  C   C1485     1.0  0.84588  0.46165  0.07196  1.0000
  S   S597      1.0  0.97506  0.28797  0.12941  1.0000
  H   H2376     1.0  0.77070  0.32623  0.04434  1.0000
  H   H2377     1.0  0.88428  0.27730  0.05140  1.0000
  H   H2378     1.0  0.91506  0.30128  0.07663  1.0000
  H   H2379     1.0  0.79936  0.02138  0.25028  1.0000
  H   H2380     1.0  0.76924  0.11586  0.01945  1.0000
  H   H2381     1.0  0.76390  0.14700  0.03413  1.0000
  S   S598      1.0  0.75283  0.41403  0.09849  1.0000
  C   C1486     1.0  0.96917  0.08351  0.18761  1.0000
  C   C1487     1.0  0.76590  0.10749  0.03512  1.0000
  H   H2382     1.0  0.80142  0.18250  0.00261  1.0000
  C   C1488     1.0  0.89369  0.01143  0.27533  1.0000
  C   C1489     1.0  0.97746  0.42577  0.20281  1.0000
  N   N147      1.0  0.95586  0.10323  0.18413  1.0000
  H   H2383     1.0  0.96061  0.07161  0.19689  1.0000
  H   H2384     1.0  0.84452  0.46618  0.99427  1.0000
  C   C1490     1.0  0.88250  0.31479  0.05834  1.0000
  S   S599      1.0  0.75603  0.04002  0.09801  1.0000
  H   H2385     1.0  0.76829  0.28237  0.04122  1.0000
  C   C1491     1.0  0.75988  0.13822  0.04940  1.0000
  N   N148      1.0  0.75128  0.12023  0.04831  1.0000
  N   N149      1.0  0.86725  0.46230  0.06311  1.0000
  H   H2386     1.0  0.91130  0.27534  0.08349  1.0000
  C   C1492     1.0  0.75039  0.42005  0.15348  1.0000
  H   H2387     1.0  0.77389  0.13389  0.05627  1.0000
  H   H2388     1.0  0.83348  0.01876  0.23060  1.0000
  Fe  Fe303     1.0  0.98865  0.06661  0.27189  1.0000
  H   H2389     1.0  0.93678  0.09768  0.21297  1.0000
  H   H2390     1.0  0.81011  0.05926  0.26145  1.0000
  C   C1493     1.0  0.94029  0.10153  0.17255  1.0000
  C   C1494     1.0  0.87729  0.46925  0.07725  1.0000
  H   H2391     1.0  0.75850  0.40761  0.16349  1.0000
  H   H2392     1.0  0.93882  0.24939  0.21501  1.0000
  N   N150      1.0  0.82504  0.02880  0.25954  1.0000
  C   C1495     1.0  0.83955  0.01777  0.24483  1.0000
  C   C1496     1.0  0.80599  0.02037  0.26419  1.0000
  C   C1497     1.0  0.82106  0.05046  0.25078  1.0000
  C   C1498     1.0  0.83362  0.02653  0.27829  1.0000
  H   H2393     1.0  0.81467  0.05261  0.23655  1.0000
  C   C1499     1.0  0.97704  0.17573  0.17525  1.0000
  S   S600      1.0  0.99032  0.22761  0.13516  1.0000
  S   S601      1.0  0.77535  0.21469  0.02263  1.0000
  H   H2394     1.0  0.90054  0.02151  0.30088  1.0000
  C   C1500     1.0  0.94774  0.25295  0.17462  1.0000
  S   S602      1.0  0.80781  0.25514  0.99491  1.0000
  H   H2395     1.0  0.88999  0.31281  0.04272  1.0000
  H   H2396     1.0  0.96601  0.46275  0.21352  1.0000
  C   C1501     1.0  0.84547  0.48178  0.12568  1.0000
  H   H2397     1.0  0.94665  0.27349  0.20462  1.0000
  C   C1502     1.0  0.76627  0.28664  0.05651  1.0000
  C   C1503     1.0  0.74704  0.10857  0.06886  1.0000
  H   H2398     1.0  0.85414  0.02363  0.24088  1.0000
  N   N151      1.0  0.96990  0.44471  0.19000  1.0000
  N   N152      1.0  0.75084  0.30486  0.05860  1.0000
  C   C1504     1.0  0.80554  0.46903  0.03349  1.0000
  H   H2399     1.0  0.79930  0.46017  0.04732  1.0000
  H   H2400     1.0  0.84278  0.00144  0.25106  1.0000
  H   H2401     1.0  0.98138  0.08452  0.19588  1.0000
  H   H2402     1.0  0.97654  0.07826  0.17312  1.0000
  S   S603      1.0  0.98310  0.09915  0.27632  1.0000
  H   H2403     1.0  0.74626  0.44645  0.00685  1.0000
  C   C1505     1.0  0.97965  0.25943  0.17982  1.0000
  H   H2404     1.0  0.97893  0.21712  0.03590  1.0000
  C   C1506     1.0  0.95763  0.44011  0.17638  1.0000
  C   C1507     1.0  0.78587  0.18119  0.00283  1.0000
  Fe  Fe304     1.0  0.96075  0.21782  0.13543  1.0000
  C   C1508     1.0  0.94595  0.10912  0.20381  1.0000
  S   S604      1.0  0.94364  0.20239  0.16430  1.0000
  C   C1509     1.0  0.96906  0.22702  0.19373  1.0000
  H   H2405     1.0  0.96485  0.41841  0.21224  1.0000
  H   H2406     1.0  0.74535  0.44692  0.04317  1.0000
  C   C1510     1.0  0.97573  0.14969  0.20537  1.0000
  H   H2407     1.0  0.98568  0.18321  0.16188  1.0000
  H   H2408     1.0  0.75233  0.41934  0.01159  1.0000
  H   H2409     1.0  0.95617  0.21870  0.20033  1.0000
  H   H2410     1.0  0.86410  0.47836  0.26295  1.0000
  H   H2411     1.0  0.74925  0.35755  0.06482  1.0000
  H   H2412     1.0  0.78624  0.00015  0.21234  1.0000
  H   H2413     1.0  0.75683  0.41798  0.13761  1.0000
  C   C1511     1.0  0.96802  0.11875  0.17271  1.0000
  H   H2414     1.0  0.94720  0.09701  0.15761  1.0000
  C   C1512     1.0  0.75641  0.32175  0.04262  1.0000
  S   S605      1.0  0.98270  0.07392  0.24002  1.0000
  H   H2415     1.0  0.98698  0.41465  0.19347  1.0000
  C   C1513     1.0  0.76110  0.16380  0.99438  1.0000
  H   H2416     1.0  0.93084  0.08999  0.18091  1.0000
  H   H2417     1.0  0.95730  0.11057  0.21285  1.0000
  C   C1514     1.0  0.95210  0.25690  0.20775  1.0000
  C   C1515     1.0  0.86835  0.47639  0.04370  1.0000
  H   H2418     1.0  0.95166  0.47365  0.19362  1.0000
  H   H2419     1.0  0.76226  0.27338  0.06786  1.0000
  H   H2420     1.0  0.95483  0.24690  0.16054  1.0000
  H   H2421     1.0  0.94450  0.43305  0.18498  1.0000
  H   H2422     1.0  0.87662  0.43078  0.07396  1.0000
  C   C1516     1.0  0.98673  0.15971  0.18806  1.0000
  H   H2423     1.0  0.89351  0.44165  0.05285  1.0000
  H   H2424     1.0  0.75409  0.43459  0.15566  1.0000
  Fe  Fe305     1.0  0.74753  0.01151  0.11777  1.0000
  C   C1517     1.0  0.87020  0.48902  0.26973  1.0000
  S   S606      1.0  0.98863  0.12899  0.22027  1.0000
  H   H2425     1.0  0.97991  0.22338  0.20461  1.0000
  H   H2426     1.0  0.97493  0.27609  0.17584  1.0000
  H   H2427     1.0  0.88425  0.47742  0.03657  1.0000
  H   H2428     1.0  0.98699  0.42856  0.21317  1.0000
  H   H2429     1.0  0.98750  0.25402  0.16554  1.0000
  H   H2430     1.0  0.98201  0.46856  0.16848  1.0000
  C   C1518     1.0  0.98718  0.45387  0.17782  1.0000
  C   C1519     1.0  0.98789  0.43878  0.12193  1.0000
  C   C1520     1.0  0.87887  0.02075  0.50847  1.0000
  S   S607      1.0  0.74797  0.32627  0.45881  1.0000
  H   H2431     1.0  0.80787  0.37391  0.60282  1.0000
  C   C1521     1.0  0.83471  0.40486  0.63881  1.0000
  H   H2432     1.0  0.87111  0.01536  0.59447  1.0000
  Fe  Fe306     1.0  0.77736  0.32581  0.46946  1.0000
  S   S608      1.0  0.77002  0.35739  0.47691  1.0000
  S   S609      1.0  0.80673  0.31401  0.45053  1.0000
  Fe  Fe307     1.0  0.75998  0.46116  0.36113  1.0000
  H   H2433     1.0  0.75546  0.45101  0.41309  1.0000
  Fe  Fe308     1.0  0.81845  0.00747  0.58335  1.0000
  H   H2434     1.0  0.91748  0.10091  0.35892  1.0000
  C   C1522     1.0  0.95931  0.11794  0.33062  1.0000
  N   N153      1.0  0.99095  0.05870  0.34247  1.0000
  S   S610      1.0  0.77075  0.45180  0.59671  1.0000
  C   C1523     1.0  0.88398  0.00765  0.47714  1.0000
  C   C1524     1.0  0.97422  0.35523  0.62810  1.0000
  S   S611      1.0  0.81892  0.04079  0.53059  1.0000
  H   H2435     1.0  0.84709  0.02775  0.48880  1.0000
  C   C1525     1.0  0.74519  0.47389  0.45479  1.0000
  S   S612      1.0  0.81107  0.04137  0.57976  1.0000
  C   C1526     1.0  0.98117  0.48600  0.34030  1.0000
  Fe  Fe309     1.0  0.79319  0.03804  0.55645  1.0000
  Fe  Fe310     1.0  0.83732  0.04106  0.55423  1.0000
  S   S613      1.0  0.86312  0.05827  0.55125  1.0000
  H   H2436     1.0  0.89175  0.05307  0.48479  1.0000
  C   C1527     1.0  0.74977  0.99597  0.54239  1.0000
  C   C1528     1.0  0.96273  0.35818  0.61263  1.0000
  Fe  Fe311     1.0  0.96718  0.09656  0.45979  1.0000
  S   S614      1.0  0.94147  0.11516  0.47711  1.0000
  H   H2437     1.0  0.88610  0.23836  0.48042  1.0000
  Fe  Fe312     1.0  0.95667  0.11803  0.41858  1.0000
  S   S615      1.0  0.93004  0.13849  0.43254  1.0000
  S   S616      1.0  0.97048  0.12254  0.38543  1.0000
  Fe  Fe313     1.0  0.95004  0.14142  0.45392  1.0000
  S   S617      1.0  0.95633  0.16921  0.46324  1.0000
  Fe  Fe314     1.0  0.92367  0.11030  0.45458  1.0000
  S   S618      1.0  0.89190  0.10314  0.46302  1.0000
  S   S619      1.0  0.97716  0.12323  0.43836  1.0000
  S   S620      1.0  0.94887  0.08952  0.43877  1.0000
  Fe  Fe315     1.0  0.91887  0.31609  0.44235  1.0000
  S   S621      1.0  0.92792  0.28330  0.45443  1.0000
  S   S622      1.0  0.89132  0.33240  0.46029  1.0000
  Fe  Fe316     1.0  0.95400  0.31609  0.40732  1.0000
  S   S623      1.0  0.96542  0.28307  0.41643  1.0000
  H   H2438     1.0  0.84876  0.24470  0.48112  1.0000
  Fe  Fe317     1.0  0.93305  0.27897  0.42212  1.0000
  S   S624      1.0  0.92173  0.25288  0.41457  1.0000
  Fe  Fe318     1.0  0.95947  0.29010  0.44795  1.0000
  C   C1529     1.0  0.85007  0.41248  0.64458  1.0000
  S   S625      1.0  0.92176  0.31135  0.41023  1.0000
  S   S626      1.0  0.95033  0.32357  0.43864  1.0000
  C   C1530     1.0  0.95694  0.20645  0.37910  1.0000
  H   H2439     1.0  0.89475  0.04451  0.46110  1.0000
  C   C1531     1.0  0.98732  0.42320  0.33731  1.0000
  H   H2440     1.0  0.96525  0.05018  0.33437  1.0000
  H   H2441     1.0  0.88564  0.01205  0.63547  1.0000
  C   C1532     1.0  0.94561  0.19254  0.45071  1.0000
  C   C1533     1.0  0.95313  0.21004  0.45140  1.0000
  C   C1534     1.0  0.94564  0.22869  0.44053  1.0000
  C   C1535     1.0  0.93058  0.22986  0.42897  1.0000
  C   C1536     1.0  0.92262  0.21248  0.42873  1.0000
  C   C1537     1.0  0.93013  0.19381  0.43960  1.0000
  H   H2442     1.0  0.96502  0.20916  0.46009  1.0000
  H   H2443     1.0  0.95178  0.24208  0.44087  1.0000
  H   H2444     1.0  0.91074  0.21342  0.42001  1.0000
  H   H2445     1.0  0.92393  0.18044  0.43945  1.0000
  C   C1538     1.0  0.87311  0.26960  0.43817  1.0000
  C   C1539     1.0  0.98303  0.09273  0.52773  1.0000
  H   H2446     1.0  0.75553  0.02534  0.58545  1.0000
  H   H2447     1.0  0.93091  0.18362  0.37385  1.0000
  H   H2448     1.0  0.86481  0.40336  0.64504  1.0000
  S   S627      1.0  0.74808  0.45047  0.64421  1.0000
  H   H2449     1.0  0.75388  0.01143  0.53931  1.0000
  H   H2450     1.0  0.96416  0.23604  0.55159  1.0000
  H   H2451     1.0  0.96451  0.09137  0.50606  1.0000
  S   S628      1.0  0.76381  0.47430  0.32804  1.0000
  H   H2452     1.0  0.87249  0.99752  0.48342  1.0000
  H   H2453     1.0  0.96202  0.35202  0.58301  1.0000
  H   H2454     1.0  0.88599  0.27822  0.43412  1.0000
  S   S629      1.0  0.95400  0.40349  0.65152  1.0000
  H   H2455     1.0  0.89889  0.99886  0.48003  1.0000
  C   C1540     1.0  0.98966  0.14042  0.49829  1.0000
  H   H2456     1.0  0.98613  0.18301  0.35767  1.0000
  C   C1541     1.0  0.87050  0.07232  0.52730  1.0000
  C   C1542     1.0  0.85711  0.07884  0.51341  1.0000
  C   C1543     1.0  0.86366  0.08899  0.49398  1.0000
  C   C1544     1.0  0.88364  0.09258  0.48826  1.0000
  C   C1545     1.0  0.89695  0.08631  0.50227  1.0000
  C   C1546     1.0  0.89035  0.07633  0.52177  1.0000
  H   H2457     1.0  0.84169  0.07612  0.51764  1.0000
  H   H2458     1.0  0.85327  0.09385  0.48323  1.0000
  H   H2459     1.0  0.91245  0.08873  0.49798  1.0000
  H   H2460     1.0  0.90080  0.07131  0.53244  1.0000
  C   C1547     1.0  0.81556  0.41663  0.63809  1.0000
  C   C1548     1.0  0.74870  0.43836  0.45284  1.0000
  S   S630      1.0  0.79650  0.40670  0.63100  1.0000
  H   H2461     1.0  0.87473  0.03436  0.51604  1.0000
  H   H2462     1.0  0.97235  0.39530  0.58434  1.0000
  H   H2463     1.0  0.83152  0.40974  0.56108  1.0000
  C   C1549     1.0  0.96785  0.12209  0.34619  1.0000
  C   C1550     1.0  0.95840  0.11843  0.36639  1.0000
  C   C1551     1.0  0.94005  0.11110  0.37094  1.0000
  H   H2464     1.0  0.85150  0.05804  0.59790  1.0000
  H   H2465     1.0  0.98199  0.12789  0.34257  1.0000
  H   H2466     1.0  0.93259  0.10834  0.38647  1.0000
  N   N154      1.0  0.74292  0.45919  0.44238  1.0000
  H   H2467     1.0  0.97690  0.08170  0.32108  1.0000
  H   H2468     1.0  0.76113  0.47253  0.45696  1.0000
  H   H2469     1.0  0.97205  0.44264  0.36969  1.0000
  H   H2470     1.0  0.97068  0.10016  0.53758  1.0000
  H   H2471     1.0  0.98033  0.09523  0.64520  1.0000
  C   C1552     1.0  0.97307  0.40764  0.59262  1.0000
  C   C1553     1.0  0.81903  0.37997  0.59002  1.0000
  H   H2472     1.0  0.83505  0.04252  0.63196  1.0000
  N   N155      1.0  0.96006  0.18415  0.38105  1.0000
  H   H2473     1.0  0.88940  0.23270  0.45525  1.0000
  C   C1554     1.0  0.82921  0.32221  0.45220  1.0000
  C   C1555     1.0  0.84588  0.31949  0.43685  1.0000
  C   C1556     1.0  0.86490  0.32294  0.43900  1.0000
  C   C1557     1.0  0.86729  0.32958  0.45640  1.0000
  C   C1558     1.0  0.85038  0.33330  0.47133  1.0000
  C   C1559     1.0  0.83139  0.32954  0.46930  1.0000
  H   H2474     1.0  0.84412  0.31435  0.42335  1.0000
  H   H2475     1.0  0.87769  0.32044  0.42722  1.0000
  H   H2476     1.0  0.85209  0.33860  0.48475  1.0000
  H   H2477     1.0  0.81860  0.33175  0.48120  1.0000
  C   C1560     1.0  0.93152  0.10691  0.35533  1.0000
  H   H2478     1.0  0.96198  0.25296  0.52813  1.0000
  C   C1561     1.0  0.97753  0.28279  0.53689  1.0000
  C   C1562     1.0  0.76664  0.39800  0.40422  1.0000
  H   H2479     1.0  0.86967  0.06482  0.61017  1.0000
  H   H2480     1.0  0.78222  0.39200  0.39904  1.0000
  H   H2481     1.0  0.83799  0.26316  0.46193  1.0000
  H   H2482     1.0  0.94768  0.21387  0.36717  1.0000
  H   H2483     1.0  0.82606  0.39063  0.59589  1.0000
  C   C1563     1.0  0.85149  0.25160  0.46489  1.0000
  H   H2484     1.0  0.86025  0.00331  0.61890  1.0000
  N   N156      1.0  0.87915  0.02623  0.48641  1.0000
  H   H2485     1.0  0.89015  0.03768  0.63161  1.0000
  C   C1564     1.0  0.98807  0.30857  0.47801  1.0000
  H   H2486     1.0  0.97981  0.03031  0.34952  1.0000
  S   S631      1.0  0.74384  0.43606  0.55903  1.0000
  Fe  Fe319     1.0  0.74827  0.47236  0.61494  1.0000
  H   H2487     1.0  0.74736  0.42688  0.44379  1.0000
  Fe  Fe320     1.0  0.74399  0.44056  0.59093  1.0000
  S   S632      1.0  0.77103  0.42823  0.37171  1.0000
  H   H2488     1.0  0.87642  0.25770  0.42837  1.0000
  H   H2489     1.0  0.97643  0.28421  0.52062  1.0000
  C   C1565     1.0  0.99194  0.07593  0.32569  1.0000
  C   C1566     1.0  0.85911  0.03721  0.48242  1.0000
  H   H2490     1.0  0.94216  0.16028  0.38733  1.0000
  H   H2491     1.0  0.85949  0.28012  0.43399  1.0000
  H   H2492     1.0  0.75436  0.38639  0.51334  1.0000
  H   H2493     1.0  0.96362  0.07298  0.35885  1.0000
  H   H2494     1.0  0.97240  0.39077  0.35978  1.0000
  H   H2495     1.0  0.87787  0.05040  0.58981  1.0000
  H   H2496     1.0  0.98113  0.41632  0.37739  1.0000
  C   C1567     1.0  0.75311  0.37189  0.54439  1.0000
  H   H2497     1.0  0.98231  0.13179  0.49028  1.0000
  H   H2498     1.0  0.98691  0.18002  0.39438  1.0000
  H   H2499     1.0  0.95450  0.42587  0.38134  1.0000
  H   H2500     1.0  0.96369  0.29189  0.54411  1.0000
  C   C1568     1.0  0.97218  0.46445  0.64368  1.0000
  C   C1569     1.0  0.75226  0.38861  0.52892  1.0000
  C   C1570     1.0  0.97955  0.08801  0.50975  1.0000
  C   C1571     1.0  0.81892  0.99596  0.63487  1.0000
  H   H2501     1.0  0.95664  0.45403  0.33912  1.0000
  H   H2502     1.0  0.96398  0.17918  0.41225  1.0000
  N   N157      1.0  0.97990  0.26138  0.54682  1.0000
  C   C1572     1.0  0.94030  0.17706  0.38585  1.0000
  Fe  Fe321     1.0  0.93940  0.43534  0.64188  1.0000
  S   S633      1.0  0.76325  0.05616  0.55028  1.0000
  H   H2503     1.0  0.88137  0.28497  0.46811  1.0000
  H   H2504     1.0  0.98696  0.41987  0.32209  1.0000
  C   C1573     1.0  0.98085  0.04355  0.33722  1.0000
  H   H2505     1.0  0.94897  0.21163  0.39345  1.0000
  H   H2506     1.0  0.79784  0.02212  0.62513  1.0000
  H   H2507     1.0  0.96608  0.08941  0.61598  1.0000
  H   H2508     1.0  0.86767  0.01056  0.51556  1.0000
  C   C1574     1.0  0.89461  0.03930  0.47760  1.0000
  S   S634      1.0  0.79833  0.00407  0.56213  1.0000
  H   H2509     1.0  0.78870  0.36894  0.57723  1.0000
  H   H2510     1.0  0.94813  0.26028  0.55146  1.0000
  Fe  Fe322     1.0  0.93097  0.39485  0.63685  1.0000
  C   C1575     1.0  0.81180  0.43603  0.64321  1.0000
  H   H2511     1.0  0.81740  0.40651  0.54263  1.0000
  H   H2512     1.0  0.98280  0.08340  0.59344  1.0000
  S   S635      1.0  0.75846  0.34703  0.53909  1.0000
  H   H2513     1.0  0.78566  0.41523  0.56579  1.0000
  C   C1576     1.0  0.94137  0.10987  0.33519  1.0000
  H   H2514     1.0  0.97152  0.21234  0.37524  1.0000
  C   C1577     1.0  0.80588  0.01412  0.63723  1.0000
  H   H2515     1.0  0.85486  0.05118  0.48938  1.0000
  N   N158      1.0  0.80924  0.39025  0.57245  1.0000
  C   C1578     1.0  0.79338  0.40690  0.57861  1.0000
  H   H2516     1.0  0.98652  0.42347  0.61961  1.0000
  C   C1579     1.0  0.75070  0.99639  0.50681  1.0000
  C   C1580     1.0  0.80008  0.37565  0.56515  1.0000
  C   C1581     1.0  0.75032  0.37490  0.56453  1.0000
  H   H2517     1.0  0.94640  0.40218  0.36245  1.0000
  C   C1582     1.0  0.74669  0.41129  0.55375  1.0000
  H   H2518     1.0  0.79222  0.38305  0.55212  1.0000
  H   H2519     1.0  0.79981  0.41798  0.58447  1.0000
  H   H2520     1.0  0.89755  0.02327  0.61115  1.0000
  Fe  Fe323     1.0  0.82542  0.00702  0.53799  1.0000
  C   C1583     1.0  0.97931  0.06599  0.36101  1.0000
  H   H2521     1.0  0.83100  0.36717  0.58610  1.0000
  C   C1584     1.0  0.88760  0.24516  0.46415  1.0000
  H   H2522     1.0  0.74608  0.42635  0.32463  1.0000
  H   H2523     1.0  0.98626  0.07771  0.36531  1.0000
  C   C1585     1.0  0.96139  0.40290  0.35271  1.0000
  C   C1586     1.0  0.82703  0.44350  0.64931  1.0000
  S   S636      1.0  0.76639  0.31110  0.50092  1.0000
  H   H2524     1.0  0.85450  0.28838  0.47005  1.0000
  C   C1587     1.0  0.96276  0.25224  0.54442  1.0000
  H   H2525     1.0  0.97525  0.31610  0.47087  1.0000
  C   C1588     1.0  0.95228  0.43873  0.34137  1.0000
  H   H2526     1.0  0.76461  0.43561  0.45548  1.0000
  C   C1589     1.0  0.75608  0.46238  0.42254  1.0000
  H   H2527     1.0  0.93159  0.18129  0.40037  1.0000
  N   N159      1.0  0.86566  0.03356  0.61807  1.0000
  C   C1590     1.0  0.88566  0.02634  0.62432  1.0000
  C   C1591     1.0  0.86034  0.01805  0.60851  1.0000
  C   C1592     1.0  0.86622  0.05255  0.60341  1.0000
  C   C1593     1.0  0.85040  0.03728  0.63603  1.0000
  H   H2528     1.0  0.85235  0.23959  0.45566  1.0000
  Fe  Fe324     1.0  0.75641  0.34273  0.50760  1.0000
  H   H2529     1.0  0.74501  0.39667  0.58474  1.0000
  H   H2530     1.0  0.96501  0.40372  0.60824  1.0000
  C   C1594     1.0  0.74910  0.40827  0.53362  1.0000
  H   H2531     1.0  0.98169  0.06497  0.61611  1.0000
  H   H2532     1.0  0.89384  0.01287  0.51210  1.0000
  N   N160      1.0  0.96746  0.42298  0.35050  1.0000
  C   C1595     1.0  0.96886  0.42709  0.37062  1.0000
  H   H2533     1.0  0.83664  0.38645  0.55101  1.0000
  H   H2534     1.0  0.98171  0.11996  0.61366  1.0000
  H   H2535     1.0  0.77214  0.46124  0.42418  1.0000
  H   H2536     1.0  0.84973  0.02328  0.64745  1.0000
  H   H2537     1.0  0.96631  0.26868  0.57627  1.0000
  C   C1596     1.0  0.98126  0.08142  0.61024  1.0000
  C   C1597     1.0  0.97086  0.34978  0.59503  1.0000
  C   C1598     1.0  0.97110  0.17803  0.36177  1.0000
  S   S637      1.0  0.97112  0.33091  0.37809  1.0000
  C   C1599     1.0  0.97192  0.17502  0.39744  1.0000
  H   H2538     1.0  0.91001  0.03138  0.47985  1.0000
  H   H2539     1.0  0.76347  0.37448  0.43025  1.0000
  C   C1600     1.0  0.86811  0.27686  0.47222  1.0000
  H   H2540     1.0  0.90189  0.25161  0.46004  1.0000
  S   S638      1.0  0.84605  0.00740  0.55956  1.0000
  H   H2541     1.0  0.96049  0.39908  0.33782  1.0000
  H   H2542     1.0  0.78162  0.40118  0.59091  1.0000
  H   H2543     1.0  0.96796  0.36136  0.64185  1.0000
  C   C1601     1.0  0.75729  0.41584  0.39351  1.0000
  C   C1602     1.0  0.98032  0.26024  0.56858  1.0000
  C   C1603     1.0  0.82439  0.39859  0.55606  1.0000
  H   H2544     1.0  0.81160  0.36298  0.56007  1.0000
  H   H2545     1.0  0.96252  0.18452  0.34910  1.0000
  C   C1604     1.0  0.75604  0.38805  0.42186  1.0000
  H   H2546     1.0  0.84504  0.02270  0.60423  1.0000
  H   H2547     1.0  0.86667  0.27067  0.48863  1.0000
  Fe  Fe325     1.0  0.76841  0.42889  0.62504  1.0000
  H   H2548     1.0  0.98216  0.24429  0.57652  1.0000
  S   S639      1.0  0.93859  0.37305  0.61445  1.0000
  S   S640      1.0  0.91811  0.42688  0.62507  1.0000
  N   N161      1.0  0.87009  0.26080  0.45987  1.0000
  H   H2549     1.0  0.93723  0.43941  0.35120  1.0000
  S   S641      1.0  0.95669  0.46073  0.62749  1.0000
  H   H2550     1.0  0.88434  0.01125  0.46049  1.0000
  S   S642      1.0  0.77218  0.48554  0.37050  1.0000
  S   S643      1.0  0.98203  0.27333  0.46791  1.0000
  H   H2551     1.0  0.97373  0.16128  0.36269  1.0000
  H   H2552     1.0  0.85879  0.04178  0.46594  1.0000
  H   H2553     1.0  0.74871  0.42118  0.52160  1.0000
  H   H2554     1.0  0.97833  0.05347  0.37409  1.0000
  H   H2555     1.0  0.83768  0.38983  0.63490  1.0000
  H   H2556     1.0  0.97459  0.15820  0.39929  1.0000
  H   H2557     1.0  0.97450  0.35662  0.40637  1.0000
  C   C1605     1.0  0.98300  0.48065  0.63824  1.0000
  H   H2558     1.0  0.95054  0.43593  0.32633  1.0000
  C   C1606     1.0  0.98683  0.34892  0.37686  1.0000
  H   H2559     1.0  0.75083  0.36200  0.57655  1.0000
  H   H2560     1.0  0.85382  0.04897  0.64363  1.0000
  H   H2561     1.0  0.98613  0.44115  0.59659  1.0000
  H   H2562     1.0  0.75472  0.01190  0.50306  1.0000
  H   H2563     1.0  0.99058  0.13174  0.51373  1.0000
  H   H2564     1.0  0.79708  0.44520  0.64269  1.0000
  C   C1607     1.0  0.74712  0.39454  0.56920  1.0000
  H   H2565     1.0  0.98919  0.03782  0.32323  1.0000
  H   H2566     1.0  0.75136  0.47754  0.41386  1.0000
  C   C1608     1.0  0.98553  0.35937  0.39289  1.0000
  H   H2567     1.0  0.97934  0.15498  0.49990  1.0000
  H   H2568     1.0  0.99058  0.29002  0.53760  1.0000
  C   C1609     1.0  0.99057  0.33886  0.59269  1.0000
  H   H2569     1.0  0.96432  0.42183  0.58556  1.0000
  C   C1610     1.0  0.84620  0.43180  0.64994  1.0000
  S   S644      1.0  0.83648  0.99032  0.51155  1.0000
  H   H2570     1.0  0.74253  0.99449  0.49488  1.0000
  S   S645      1.0  0.99165  0.07424  0.47340  1.0000
  S   S646      1.0  0.74280  0.41638  0.61824  1.0000
  H   H2571     1.0  0.85442  0.44078  0.70529  1.0000
  S   S647      1.0  0.90768  0.39257  0.66503  1.0000
  H   H2572     1.0  0.87973  0.42913  0.69773  1.0000
  C   C1611     1.0  0.96702  0.25981  0.79128  1.0000
  C   C1612     1.0  0.78226  0.01484  0.74407  1.0000
  S   S648      1.0  0.87958  0.99060  0.74270  1.0000
  H   H2573     1.0  0.94003  0.23580  0.80852  1.0000
  S   S649      1.0  0.96747  0.04666  0.75311  1.0000
  Fe  Fe326     1.0  0.87102  0.02177  0.72555  1.0000
  S   S650      1.0  0.86875  0.01085  0.69715  1.0000
  S   S651      1.0  0.88553  0.04970  0.72161  1.0000
  H   H2574     1.0  0.77508  0.00115  0.71234  1.0000
  H   H2575     1.0  0.77820  0.02700  0.73140  1.0000
  H   H2576     1.0  0.80984  0.01518  0.77906  1.0000
  N   N162      1.0  0.77315  0.99672  0.74469  1.0000
  Fe  Fe327     1.0  0.83640  0.01008  0.71089  1.0000
  S   S652      1.0  0.81080  0.02205  0.69325  1.0000
  H   H2577     1.0  0.90573  0.26797  0.93341  1.0000
  S   S653      1.0  0.83790  0.02340  0.73806  1.0000
  H   H2578     1.0  0.94519  0.15719  0.81090  1.0000
  H   H2579     1.0  0.87461  0.37862  0.72770  1.0000
  H   H2580     1.0  0.79900  0.01120  0.74171  1.0000
  Fe  Fe328     1.0  0.96086  0.25465  0.85435  1.0000
  S   S654      1.0  0.96894  0.25301  0.88504  1.0000
  S   S655      1.0  0.86459  0.44142  0.65846  1.0000
  Fe  Fe329     1.0  0.95853  0.22280  0.89140  1.0000
  S   S656      1.0  0.94324  0.21297  0.92311  1.0000
  S   S657      1.0  0.94850  0.22528  0.86135  1.0000
  H   H2581     1.0  0.81948  0.24052  0.93058  1.0000
  Fe  Fe330     1.0  0.90274  0.43638  0.85629  1.0000
  S   S658      1.0  0.91370  0.45473  0.82658  1.0000
  S   S659      1.0  0.87638  0.44692  0.87967  1.0000
  Fe  Fe331     1.0  0.93138  0.39788  0.84671  1.0000
  S   S660      1.0  0.94454  0.41306  0.81608  1.0000
  S   S661      1.0  0.94434  0.36665  0.86173  1.0000
  Fe  Fe332     1.0  0.94464  0.43912  0.83167  1.0000
  H   H2582     1.0  0.89013  0.31053  0.89340  1.0000
  Fe  Fe333     1.0  0.91271  0.42747  0.81310  1.0000
  S   S662      1.0  0.90016  0.43571  0.78379  1.0000
  S   S663      1.0  0.93399  0.42303  0.86266  1.0000
  S   S664      1.0  0.89925  0.41006  0.84244  1.0000
  H   H2583     1.0  0.98664  0.45678  0.89981  1.0000
  C   C1613     1.0  0.91679  0.27608  0.89307  1.0000
  H   H2584     1.0  0.89146  0.39368  0.71063  1.0000
  C   C1614     1.0  0.77118  0.00042  0.81543  1.0000
  H   H2585     1.0  0.94385  0.47598  0.85019  1.0000
  H   H2586     1.0  0.97569  0.26890  0.77843  1.0000
  H   H2587     1.0  0.86623  0.40230  0.68694  1.0000
  H   H2588     1.0  0.81665  0.21614  0.97370  1.0000
  Fe  Fe334     1.0  0.92969  0.40401  0.67887  1.0000
  S   S665      1.0  0.93660  0.38930  0.70988  1.0000
  C   C1615     1.0  0.86700  0.42927  0.71060  1.0000
  H   H2589     1.0  0.97361  0.25950  0.80502  1.0000
  C   C1616     1.0  0.87487  0.46890  0.89024  1.0000
  H   H2590     1.0  0.98923  0.21271  0.78191  1.0000
  H   H2591     1.0  0.84114  0.41412  0.69509  1.0000
  C   C1617     1.0  0.96966  0.45298  0.77048  1.0000
  C   C1618     1.0  0.85922  0.47302  0.90626  1.0000
  C   C1619     1.0  0.91055  0.42244  0.76363  1.0000
  C   C1620     1.0  0.90725  0.43166  0.74411  1.0000
  C   C1621     1.0  0.91558  0.42178  0.72751  1.0000
  C   C1622     1.0  0.92691  0.40242  0.73035  1.0000
  C   C1623     1.0  0.93017  0.39313  0.74990  1.0000
  C   C1624     1.0  0.92204  0.40314  0.76654  1.0000
  H   H2592     1.0  0.89843  0.44664  0.74182  1.0000
  H   H2593     1.0  0.91309  0.42911  0.71257  1.0000
  H   H2594     1.0  0.93887  0.37809  0.75220  1.0000
  H   H2595     1.0  0.92451  0.39588  0.78161  1.0000
  H   H2596     1.0  0.94394  0.29652  0.89991  1.0000
  C   C1625     1.0  0.78010  0.22277  0.96314  1.0000
  C   C1626     1.0  0.95726  0.48306  0.84571  1.0000
  H   H2597     1.0  0.78096  0.22946  0.97655  1.0000
  C   C1627     1.0  0.97468  0.14846  0.79413  1.0000
  C   C1628     1.0  0.93299  0.29130  0.91334  1.0000
  C   C1629     1.0  0.82665  0.99350  0.66868  1.0000
  C   C1630     1.0  0.91754  0.22150  0.93131  1.0000
  C   C1631     1.0  0.91046  0.22053  0.95211  1.0000
  C   C1632     1.0  0.89005  0.22721  0.95924  1.0000
  C   C1633     1.0  0.87661  0.23474  0.94556  1.0000
  C   C1634     1.0  0.88365  0.23568  0.92473  1.0000
  C   C1635     1.0  0.90408  0.22903  0.91761  1.0000
  H   H2598     1.0  0.92079  0.21455  0.96278  1.0000
  H   H2599     1.0  0.88473  0.22638  0.97532  1.0000
  H   H2600     1.0  0.87324  0.24137  0.91411  1.0000
  H   H2601     1.0  0.90935  0.22938  0.90158  1.0000
  C   C1636     1.0  0.94456  0.34364  0.85347  1.0000
  C   C1637     1.0  0.95641  0.32615  0.86207  1.0000
  C   C1638     1.0  0.95667  0.30731  0.85655  1.0000
  C   C1639     1.0  0.94480  0.30570  0.84262  1.0000
  C   C1640     1.0  0.93296  0.32318  0.83392  1.0000
  C   C1641     1.0  0.93289  0.34215  0.83927  1.0000
  H   H2602     1.0  0.96557  0.32725  0.87295  1.0000
  H   H2603     1.0  0.96617  0.29409  0.86302  1.0000
  H   H2604     1.0  0.90236  0.27439  0.88886  1.0000
  H   H2605     1.0  0.92366  0.35556  0.83261  1.0000
  H   H2606     1.0  0.98710  0.43865  0.72440  1.0000
  H   H2607     1.0  0.95415  0.41971  0.77131  1.0000
  H   H2608     1.0  0.83098  0.42092  0.73049  1.0000
  H   H2609     1.0  0.96550  0.43880  0.66627  1.0000
  H   H2610     1.0  0.94235  0.24804  0.77108  1.0000
  C   C1642     1.0  0.99063  0.48440  0.82619  1.0000
  N   N163      1.0  0.96739  0.23915  0.78735  1.0000
  C   C1643     1.0  0.96090  0.15897  0.80819  1.0000
  C   C1644     1.0  0.80145  0.00533  0.79057  1.0000
  H   H2611     1.0  0.89649  0.29370  0.93709  1.0000
  C   C1645     1.0  0.90879  0.04820  0.72968  1.0000
  C   C1646     1.0  0.91712  0.03088  0.74180  1.0000
  C   C1647     1.0  0.93534  0.03047  0.74859  1.0000
  C   C1648     1.0  0.94542  0.04728  0.74313  1.0000
  C   C1649     1.0  0.93729  0.06448  0.73071  1.0000
  C   C1650     1.0  0.91893  0.06499  0.72417  1.0000
  H   H2612     1.0  0.90941  0.01790  0.74613  1.0000
  H   H2613     1.0  0.94158  0.01711  0.75817  1.0000
  H   H2614     1.0  0.94506  0.07742  0.72621  1.0000
  H   H2615     1.0  0.91256  0.07840  0.71473  1.0000
  H   H2616     1.0  0.93111  0.30201  0.92422  1.0000
  H   H2617     1.0  0.98292  0.44556  0.77792  1.0000
  C   C1651     1.0  0.78225  0.01297  0.80036  1.0000
  C   C1652     1.0  0.74899  0.00092  0.95596  1.0000
  S   S666      1.0  0.91722  0.43676  0.67041  1.0000
  S   S667      1.0  0.97272  0.10614  0.73448  1.0000
  S   S668      1.0  0.97244  0.45397  0.82133  1.0000
  C   C1653     1.0  0.80296  0.02177  0.65546  1.0000
  H   H2618     1.0  0.88470  0.28201  0.92205  1.0000
  H   H2619     1.0  0.94000  0.27617  0.92055  1.0000
  H   H2620     1.0  0.87191  0.43454  0.72303  1.0000
  S   S669      1.0  0.96591  0.13272  0.78097  1.0000
  N   N164      1.0  0.91350  0.29035  0.90757  1.0000
  H   H2621     1.0  0.98903  0.46720  0.87343  1.0000
  H   H2622     1.0  0.95663  0.17938  0.82989  1.0000
  C   C1654     1.0  0.95834  0.24036  0.76910  1.0000
  S   S670      1.0  0.98917  0.20563  0.88146  1.0000
  C   C1655     1.0  0.96734  0.17161  0.81894  1.0000
  H   H2623     1.0  0.92410  0.26081  0.89949  1.0000
  N   N165      1.0  0.79966  0.22094  0.94935  1.0000
  C   C1656     1.0  0.90482  0.31069  0.89802  1.0000
  C   C1657     1.0  0.81355  0.01160  0.67110  1.0000
  C   C1658     1.0  0.95572  0.22775  0.80486  1.0000
  C   C1659     1.0  0.97378  0.45137  0.66198  1.0000
  N   N166      1.0  0.92739  0.08461  0.79164  1.0000
  C   C1660     1.0  0.91414  0.09859  0.80446  1.0000
  C   C1661     1.0  0.93138  0.09536  0.77071  1.0000
  C   C1662     1.0  0.91750  0.06707  0.79189  1.0000
  C   C1663     1.0  0.94668  0.07745  0.79939  1.0000
  H   H2624     1.0  0.91080  0.09102  0.82041  1.0000
  H   H2625     1.0  0.89951  0.10440  0.79892  1.0000
  H   H2626     1.0  0.92137  0.11193  0.80449  1.0000
  H   H2627     1.0  0.91730  0.10050  0.76403  1.0000
  H   H2628     1.0  0.93853  0.10891  0.76996  1.0000
  H   H2629     1.0  0.94178  0.08535  0.76085  1.0000
  H   H2630     1.0  0.92737  0.05617  0.78251  1.0000
  H   H2631     1.0  0.90314  0.07182  0.78563  1.0000
  H   H2632     1.0  0.91406  0.05866  0.80747  1.0000
  H   H2633     1.0  0.95689  0.06657  0.79022  1.0000
  H   H2634     1.0  0.94431  0.06959  0.81531  1.0000
  H   H2635     1.0  0.95483  0.09028  0.79886  1.0000
  C   C1664     1.0  0.98764  0.17397  0.81555  1.0000
  H   H2636     1.0  0.92676  0.28128  0.87887  1.0000
  C   C1665     1.0  0.88829  0.48267  0.88257  1.0000
  S   S671      1.0  0.85096  0.24314  0.95398  1.0000
  C   C1666     1.0  0.98707  0.44597  0.73761  1.0000
  H   H2637     1.0  0.94916  0.44650  0.73107  1.0000
  H   H2638     1.0  0.79280  0.03578  0.65729  1.0000
  H   H2639     1.0  0.77590  0.02870  0.79627  1.0000
  S   S672      1.0  0.74674  0.01060  0.82649  1.0000
  H   H2640     1.0  0.74383  0.05108  0.90956  1.0000
  N   N167      1.0  0.96879  0.44364  0.75291  1.0000
  H   H2641     1.0  0.76510  0.99883  0.94869  1.0000
  H   H2642     1.0  0.91507  0.31644  0.88418  1.0000
  C   C1667     1.0  0.98631  0.45445  0.67475  1.0000
  S   S673      1.0  0.94407  0.28187  0.83649  1.0000
  H   H2643     1.0  0.81278  0.20883  0.92209  1.0000
  H   H2644     1.0  0.74560  0.00765  0.76329  1.0000
  H   H2645     1.0  0.95599  0.45160  0.78226  1.0000
  H   H2646     1.0  0.92374  0.32207  0.82310  1.0000
  H   H2647     1.0  0.90222  0.32194  0.90847  1.0000
  H   H2648     1.0  0.83077  0.20819  0.95090  1.0000
  H   H2649     1.0  0.77527  0.20776  0.96888  1.0000
  H   H2650     1.0  0.77731  0.02119  0.75838  1.0000
  H   H2651     1.0  0.96290  0.22551  0.81855  1.0000
  H   H2652     1.0  0.95854  0.22500  0.76564  1.0000
  Fe  Fe335     1.0  0.98040  0.21084  0.85061  1.0000
  H   H2653     1.0  0.84895  0.46228  0.91239  1.0000
  C   C1668     1.0  0.81563  0.20910  0.96061  1.0000
  C   C1669     1.0  0.89950  0.28325  0.92581  1.0000
  H   H2654     1.0  0.81278  0.19336  0.96653  1.0000
  N   N168      1.0  0.86095  0.40905  0.71717  1.0000
  C   C1670     1.0  0.85405  0.40302  0.70030  1.0000
  C   C1671     1.0  0.84435  0.40981  0.73457  1.0000
  C   C1672     1.0  0.87838  0.39418  0.72320  1.0000
  H   H2655     1.0  0.84922  0.38790  0.70464  1.0000
  H   H2656     1.0  0.83942  0.39479  0.73996  1.0000
  H   H2657     1.0  0.80604  0.24951  0.95309  1.0000
  H   H2658     1.0  0.84908  0.41439  0.74753  1.0000
  H   H2659     1.0  0.88367  0.39800  0.73624  1.0000
  C   C1673     1.0  0.96768  0.42190  0.75964  1.0000
  H   H2660     1.0  0.79442  0.19507  0.93862  1.0000
  C   C1674     1.0  0.79823  0.21053  0.93272  1.0000
  H   H2661     1.0  0.90042  0.47958  0.87028  1.0000
  H   H2662     1.0  0.95132  0.26818  0.79393  1.0000
  H   H2663     1.0  0.95486  0.21244  0.80202  1.0000
  H   H2664     1.0  0.78632  0.21903  0.92388  1.0000
  Fe  Fe336     1.0  0.89685  0.42543  0.65451  1.0000
  H   H2665     1.0  0.95122  0.46997  0.73818  1.0000
  H   H2666     1.0  0.79304  0.25077  0.93230  1.0000
  H   H2667     1.0  0.96669  0.24899  0.75560  1.0000
  H   H2668     1.0  0.76790  0.23251  0.95545  1.0000
  C   C1675     1.0  0.80471  0.24133  0.94091  1.0000
  H   H2669     1.0  0.74541  0.01418  0.73653  1.0000
  H   H2670     1.0  0.98111  0.41378  0.76644  1.0000
  C   C1676     1.0  0.75092  0.00205  0.74855  1.0000
  C   C1677     1.0  0.98848  0.22859  0.78422  1.0000
  H   H2671     1.0  0.98819  0.46219  0.73169  1.0000
  H   H2672     1.0  0.93666  0.45264  0.75530  1.0000
  C   C1678     1.0  0.95067  0.45365  0.74395  1.0000
  Fe  Fe337     1.0  0.98400  0.07354  0.74540  1.0000
  C   C1679     1.0  0.97335  0.47516  0.83193  1.0000
  Fe  Fe338     1.0  0.98660  0.11316  0.75919  1.0000
  H   H2673     1.0  0.74839  0.00334  0.97173  1.0000
  S   S674      1.0  0.75638  0.14419  0.98299  1.0000
  Fe  Fe339     1.0  0.84614  0.99122  0.75273  1.0000
  H   H2674     1.0  0.81417  0.48653  0.86940  1.0000
  H   H2675     1.0  0.96663  0.41435  0.74688  1.0000
  H   H2676     1.0  0.82395  0.45844  0.65348  1.0000
  H   H2677     1.0  0.98778  0.44408  0.68868  1.0000
  H   H2678     1.0  0.97070  0.46934  0.76604  1.0000
  S   S675      1.0  0.99172  0.24058  0.84143  1.0000
  H   H2679     1.0  0.85707  0.53827  0.27625  1.0000
  H   H2680     1.0  0.95555  0.57076  0.24677  1.0000
  H   H2681     1.0  0.83197  0.58981  0.98676  1.0000
  H   H2682     1.0  0.76538  0.90914  0.13225  1.0000
  H   H2683     1.0  0.92529  0.92930  0.27488  1.0000
  H   H2684     1.0  0.78231  0.49504  0.03662  1.0000
  S   S676      1.0  0.79130  0.82156  0.00807  1.0000
  S   S677      1.0  0.86153  0.68479  0.03965  1.0000
  H   H2685     1.0  0.84415  0.60132  0.01398  1.0000
  Fe  Fe340     1.0  0.88942  0.69711  0.02309  1.0000
  S   S678      1.0  0.91886  0.69480  0.03453  1.0000
  Fe  Fe341     1.0  0.95230  0.69934  0.13216  1.0000
  S   S679      1.0  0.97365  0.67360  0.12040  1.0000
  S   S680      1.0  0.92216  0.71148  0.12199  1.0000
  Fe  Fe342     1.0  0.97894  0.70371  0.16188  1.0000
  H   H2686     1.0  0.92353  0.59306  0.22176  1.0000
  H   H2687     1.0  0.86051  0.49191  0.04580  1.0000
  S   S681      1.0  0.81365  0.72692  0.03565  1.0000
  Fe  Fe343     1.0  0.97688  0.66150  0.15258  1.0000
  H   H2688     1.0  0.83190  0.53931  0.30758  1.0000
  C   C1680     1.0  0.79185  0.98554  0.20772  1.0000
  S   S682      1.0  0.95353  0.68588  0.16465  1.0000
  Fe  Fe344     1.0  0.83936  0.95989  0.25489  1.0000
  S   S683      1.0  0.87130  0.96607  0.24711  1.0000
  C   C1681     1.0  0.95569  0.67801  0.99395  1.0000
  Fe  Fe345     1.0  0.84707  0.93278  0.29490  1.0000
  S   S684      1.0  0.87938  0.93708  0.29036  1.0000
  Fe  Fe346     1.0  0.86813  0.96971  0.27943  1.0000
  Fe  Fe347     1.0  0.88026  0.93294  0.25844  1.0000
  S   S685      1.0  0.90872  0.91741  0.24112  1.0000
  S   S686      1.0  0.83560  0.96582  0.28684  1.0000
  S   S687      1.0  0.84849  0.92621  0.26342  1.0000
  H   H2689     1.0  0.76406  0.93458  0.11876  1.0000
  Fe  Fe348     1.0  0.74250  0.97013  0.11100  1.0000
  S   S688      1.0  0.96067  0.84114  0.28646  1.0000
  Fe  Fe349     1.0  0.90995  0.54879  0.16003  1.0000
  S   S689      1.0  0.88646  0.53014  0.17779  1.0000
  S   S690      1.0  0.90565  0.58314  0.15767  1.0000
  Fe  Fe350     1.0  0.93884  0.51154  0.14897  1.0000
  H   H2690     1.0  0.90741  0.97158  0.26256  1.0000
  Fe  Fe351     1.0  0.89381  0.51188  0.15212  1.0000
  H   H2691     1.0  0.78444  0.89591  0.10206  1.0000
  Fe  Fe352     1.0  0.91253  0.50930  0.19004  1.0000
  H   H2692     1.0  0.88174  0.52462  0.26948  1.0000
  S   S691      1.0  0.91509  0.53256  0.13332  1.0000
  S   S692      1.0  0.93521  0.52912  0.17429  1.0000
  S   S693      1.0  0.84433  0.69708  0.99629  1.0000
  H   H2693     1.0  0.87246  0.51903  0.23792  1.0000
  S   S694      1.0  0.92130  0.55878  0.27684  1.0000
  H   H2694     1.0  0.83680  0.50101  0.29503  1.0000
  H   H2695     1.0  0.98215  0.84517  0.31791  1.0000
  H   H2696     1.0  0.76628  0.65943  0.03792  1.0000
  C   C1682     1.0  0.84873  0.63049  0.99662  1.0000
  C   C1683     1.0  0.91681  0.51295  0.23757  1.0000
  C   C1684     1.0  0.91215  0.53374  0.23096  1.0000
  C   C1685     1.0  0.91328  0.54753  0.24336  1.0000
  C   C1686     1.0  0.91944  0.54074  0.26226  1.0000
  C   C1687     1.0  0.92412  0.51992  0.26893  1.0000
  C   C1688     1.0  0.92273  0.50605  0.25662  1.0000
  H   H2697     1.0  0.90727  0.53921  0.21644  1.0000
  H   H2698     1.0  0.90899  0.56354  0.23842  1.0000
  H   H2699     1.0  0.92891  0.51454  0.28349  1.0000
  H   H2700     1.0  0.82912  0.79562  0.01032  1.0000
  C   C1689     1.0  0.92301  0.89628  0.25394  1.0000
  C   C1690     1.0  0.91616  0.88797  0.27389  1.0000
  C   C1691     1.0  0.92790  0.87110  0.28373  1.0000
  C   C1692     1.0  0.94655  0.86250  0.27372  1.0000
  C   C1693     1.0  0.95354  0.87103  0.25389  1.0000
  C   C1694     1.0  0.94177  0.88785  0.24402  1.0000
  H   H2701     1.0  0.90165  0.89427  0.28162  1.0000
  H   H2702     1.0  0.92235  0.86453  0.29905  1.0000
  H   H2703     1.0  0.96786  0.86450  0.24603  1.0000
  H   H2704     1.0  0.94711  0.89419  0.22856  1.0000
  C   C1695     1.0  0.93119  0.94115  0.28019  1.0000
  C   C1696     1.0  0.83688  0.50747  0.27873  1.0000
  S   S695      1.0  0.97387  0.72224  0.18783  1.0000
  H   H2705     1.0  0.93827  0.59309  0.25197  1.0000
  H   H2706     1.0  0.96424  0.74520  0.22050  1.0000
  C   C1697     1.0  0.95784  0.61595  0.15977  1.0000
  C   C1698     1.0  0.96173  0.59546  0.15748  1.0000
  C   C1699     1.0  0.94592  0.58524  0.15675  1.0000
  C   C1700     1.0  0.92600  0.59536  0.15853  1.0000
  C   C1701     1.0  0.92212  0.61587  0.16080  1.0000
  C   C1702     1.0  0.93796  0.62616  0.16132  1.0000
  H   H2707     1.0  0.97706  0.58741  0.15632  1.0000
  H   H2708     1.0  0.94916  0.56951  0.15479  1.0000
  H   H2709     1.0  0.90674  0.62378  0.16235  1.0000
  H   H2710     1.0  0.93474  0.64184  0.16343  1.0000
  C   C1703     1.0  0.91922  0.70091  0.05839  1.0000
  C   C1704     1.0  0.90145  0.70622  0.07160  1.0000
  C   C1705     1.0  0.90244  0.70999  0.09093  1.0000
  C   C1706     1.0  0.92117  0.70824  0.09718  1.0000
  C   C1707     1.0  0.93889  0.70313  0.08386  1.0000
  C   C1708     1.0  0.93791  0.69953  0.06454  1.0000
  H   H2711     1.0  0.88696  0.70735  0.06697  1.0000
  H   H2712     1.0  0.88866  0.71397  0.10114  1.0000
  H   H2713     1.0  0.95342  0.70203  0.08838  1.0000
  H   H2714     1.0  0.95173  0.69553  0.05438  1.0000
  C   C1709     1.0  0.79708  0.79558  0.01768  1.0000
  C   C1710     1.0  0.81739  0.78641  0.01611  1.0000
  C   C1711     1.0  0.82260  0.76542  0.02189  1.0000
  C   C1712     1.0  0.80751  0.75344  0.02938  1.0000
  C   C1713     1.0  0.78720  0.76267  0.03153  1.0000
  C   C1714     1.0  0.78198  0.78369  0.02564  1.0000
  H   H2715     1.0  0.95709  0.96639  0.27947  1.0000
  H   H2716     1.0  0.83828  0.75852  0.02070  1.0000
  H   H2717     1.0  0.77544  0.75352  0.03749  1.0000
  H   H2718     1.0  0.76628  0.79063  0.02691  1.0000
  C   C1715     1.0  0.79135  0.96143  0.18587  1.0000
  C   C1716     1.0  0.80609  0.94790  0.19564  1.0000
  C   C1717     1.0  0.81368  0.95315  0.21137  1.0000
  C   C1718     1.0  0.80658  0.97201  0.21749  1.0000
  C   C1719     1.0  0.94444  0.97262  0.27086  1.0000
  H   H2719     1.0  0.97264  0.50582  0.31364  1.0000
  H   H2720     1.0  0.82500  0.94259  0.21876  1.0000
  S   S696      1.0  0.78229  0.95411  0.16615  1.0000
  H   H2721     1.0  0.81899  0.65001  0.04821  1.0000
  C   C1720     1.0  0.92086  0.96571  0.25211  1.0000
  C   C1721     1.0  0.80369  0.50028  0.00930  1.0000
  H   H2722     1.0  0.81165  0.93327  0.19104  1.0000
  N   N169      1.0  0.79376  0.91733  0.11636  1.0000
  C   C1722     1.0  0.80600  0.90181  0.12925  1.0000
  S   S697      1.0  0.85596  0.63876  0.01672  1.0000
  S   S698      1.0  0.79136  0.52487  0.00200  1.0000
  C   C1723     1.0  0.80338  0.93570  0.11030  1.0000
  H   H2723     1.0  0.82151  0.89752  0.12108  1.0000
  H   H2724     1.0  0.79903  0.88782  0.13424  1.0000
  H   H2725     1.0  0.91632  0.95448  0.24479  1.0000
  Fe  Fe353     1.0  0.86307  0.67053  0.01219  1.0000
  H   H2726     1.0  0.80390  0.94261  0.12371  1.0000
  H   H2727     1.0  0.80013  0.69746  0.01564  1.0000
  H   H2728     1.0  0.78312  0.92103  0.08801  1.0000
  H   H2729     1.0  0.79489  0.94742  0.09993  1.0000
  H   H2730     1.0  0.81910  0.93232  0.10227  1.0000
  H   H2731     1.0  0.82537  0.67311  0.03337  1.0000
  N   N170      1.0  0.92939  0.75971  0.15576  1.0000
  C   C1724     1.0  0.91277  0.77429  0.16465  1.0000
  C   C1725     1.0  0.94897  0.76501  0.15728  1.0000
  C   C1726     1.0  0.92802  0.76037  0.13428  1.0000
  C   C1727     1.0  0.92777  0.73912  0.16692  1.0000
  C   C1728     1.0  0.82120  0.49212  0.99733  1.0000
  H   H2732     1.0  0.89780  0.77066  0.16380  1.0000
  H   H2733     1.0  0.94983  0.93471  0.24329  1.0000
  H   H2734     1.0  0.95058  0.76440  0.17333  1.0000
  H   H2735     1.0  0.96188  0.75420  0.15090  1.0000
  H   H2736     1.0  0.95083  0.78044  0.14904  1.0000
  H   H2737     1.0  0.96009  0.67848  0.00870  1.0000
  H   H2738     1.0  0.94030  0.74950  0.12710  1.0000
  H   H2739     1.0  0.92912  0.77568  0.12532  1.0000
  H   H2740     1.0  0.94023  0.72791  0.16069  1.0000
  H   H2741     1.0  0.91340  0.73434  0.16583  1.0000
  H   H2742     1.0  0.92882  0.73792  0.18319  1.0000
  N   N171      1.0  0.95455  0.59509  0.22156  1.0000
  H   H2743     1.0  0.97614  0.59274  0.19439  1.0000
  H   H2744     1.0  0.98219  0.76814  0.23216  1.0000
  H   H2745     1.0  0.93911  0.59349  0.19749  1.0000
  C   C1729     1.0  0.95332  0.58761  0.24348  1.0000
  H   H2746     1.0  0.91338  0.77410  0.18086  1.0000
  H   H2747     1.0  0.78471  0.64197  0.05078  1.0000
  H   H2748     1.0  0.92477  0.97845  0.23999  1.0000
  H   H2749     1.0  0.93899  0.67883  0.99668  1.0000
  Fe  Fe354     1.0  0.92242  0.54930  0.31027  1.0000
  C   C1730     1.0  0.95117  0.61747  0.21794  1.0000
  H   H2750     1.0  0.88588  0.48976  0.26168  1.0000
  S   S699      1.0  0.97100  0.50343  0.13437  1.0000
  H   H2751     1.0  0.93184  0.98029  0.28116  1.0000
  H   H2752     1.0  0.95171  0.62361  0.20156  1.0000
  S   S700      1.0  0.89245  0.68041  0.99702  1.0000
  H   H2753     1.0  0.94126  0.57100  0.21591  1.0000
  N   N172      1.0  0.92344  0.63981  0.10076  1.0000
  C   C1731     1.0  0.92394  0.64853  0.07913  1.0000
  C   C1732     1.0  0.94274  0.62638  0.10354  1.0000
  C   C1733     1.0  0.90664  0.62804  0.10761  1.0000
  C   C1734     1.0  0.92046  0.65635  0.11273  1.0000
  H   H2754     1.0  0.93660  0.65731  0.07342  1.0000
  H   H2755     1.0  0.90977  0.65909  0.07648  1.0000
  H   H2756     1.0  0.92586  0.63657  0.06960  1.0000
  H   H2757     1.0  0.94281  0.61939  0.11965  1.0000
  H   H2758     1.0  0.94557  0.61378  0.09463  1.0000
  H   H2759     1.0  0.95574  0.63483  0.09883  1.0000
  H   H2760     1.0  0.89183  0.63772  0.10581  1.0000
  H   H2761     1.0  0.90586  0.62111  0.12385  1.0000
  H   H2762     1.0  0.90841  0.61539  0.09893  1.0000
  H   H2763     1.0  0.91937  0.65047  0.12917  1.0000
  H   H2764     1.0  0.90640  0.66722  0.11047  1.0000
  H   H2765     1.0  0.93322  0.66510  0.10845  1.0000
  H   H2766     1.0  0.96253  0.66307  0.98942  1.0000
  H   H2767     1.0  0.95970  0.95810  0.23586  1.0000
  C   C1735     1.0  0.77940  0.65833  0.04571  1.0000
  S   S701      1.0  0.75806  0.86967  0.02611  1.0000
  H   H2768     1.0  0.86700  0.51698  0.29350  1.0000
  C   C1736     1.0  0.98762  0.73847  0.19548  1.0000
  Fe  Fe355     1.0  0.76019  0.83898  0.01746  1.0000
  C   C1737     1.0  0.97896  0.74794  0.21245  1.0000
  H   H2769     1.0  0.94377  0.93339  0.28843  1.0000
  H   H2770     1.0  0.91358  0.75609  0.13263  1.0000
  C   C1738     1.0  0.85704  0.51761  0.24645  1.0000
  N   N173      1.0  0.85757  0.50925  0.26802  1.0000
  S   S702      1.0  0.81563  0.97939  0.23717  1.0000
  H   H2771     1.0  0.80743  0.90746  0.14312  1.0000
  C   C1739     1.0  0.81278  0.66615  0.04321  1.0000
  S   S703      1.0  0.86864  0.50457  0.13803  1.0000
  H   H2772     1.0  0.92630  0.48998  0.26185  1.0000
  H   H2773     1.0  0.77401  0.92802  0.14199  1.0000
  H   H2774     1.0  0.80862  0.64166  0.01848  1.0000
  H   H2775     1.0  0.77516  0.69184  0.01774  1.0000
  C   C1740     1.0  0.77339  0.92245  0.12786  1.0000
  H   H2776     1.0  0.99000  0.69352  0.98876  1.0000
  H   H2777     1.0  0.83639  0.49620  0.12122  1.0000
  H   H2778     1.0  0.91889  0.94802  0.29129  1.0000
  H   H2779     1.0  0.91353  0.79002  0.15660  1.0000
  C   C1741     1.0  0.78427  0.98030  0.19198  1.0000
  H   H2780     1.0  0.96290  0.62351  0.22319  1.0000
  H   H2781     1.0  0.80721  0.90521  0.08910  1.0000
  C   C1742     1.0  0.84323  0.61119  0.99963  1.0000
  H   H2782     1.0  0.95730  0.71516  0.99994  1.0000
  S   S704      1.0  0.97600  0.71860  0.12986  1.0000
  H   H2783     1.0  0.80835  0.67389  0.05672  1.0000
  Fe  Fe356     1.0  0.75859  0.97403  0.14864  1.0000
  H   H2784     1.0  0.96774  0.93994  0.25686  1.0000
  N   N174      1.0  0.79571  0.66806  0.03226  1.0000
  N   N175      1.0  0.93783  0.95660  0.26309  1.0000
  H   H2785     1.0  0.82690  0.52246  0.27813  1.0000
  H   H2786     1.0  0.96490  0.59269  0.24988  1.0000
  C   C1743     1.0  0.80260  0.65800  0.01423  1.0000
  Fe  Fe357     1.0  0.99114  0.82784  0.27064  1.0000
  H   H2787     1.0  0.93615  0.62374  0.22589  1.0000
  C   C1744     1.0  0.97471  0.58741  0.21097  1.0000
  C   C1745     1.0  0.79212  0.90948  0.09810  1.0000
  Fe  Fe358     1.0  0.84464  0.71228  0.02250  1.0000
  S   S705      1.0  0.87243  0.72604  0.00818  1.0000
  S   S706      1.0  0.97773  0.62767  0.16288  1.0000
  C   C1746     1.0  0.93893  0.58783  0.21388  1.0000
  C   C1747     1.0  0.78817  0.68972  0.02589  1.0000
  C   C1748     1.0  0.95459  0.94695  0.24916  1.0000
  H   H2788     1.0  0.77392  0.66556  0.05948  1.0000
  C   C1749     1.0  0.74261  0.92399  0.06569  1.0000
  H   H2789     1.0  0.84771  0.53291  0.24456  1.0000
  H   H2790     1.0  0.78331  0.69792  0.03908  1.0000
  S   S707      1.0  0.74580  0.95504  0.08373  1.0000
  S   S708      1.0  0.76898  0.98258  0.11533  1.0000
  S   S709      1.0  0.91400  0.49549  0.22276  1.0000
  C   C1750     1.0  0.86620  0.52286  0.27724  1.0000
  S   S710      1.0  0.91830  0.48966  0.16588  1.0000
  H   H2791     1.0  0.97770  0.57057  0.21333  1.0000
  C   C1751     1.0  0.98914  0.76097  0.21915  1.0000
  H   H2792     1.0  0.94949  0.98461  0.25836  1.0000
  H   H2793     1.0  0.81500  0.66491  0.00382  1.0000
  H   H2794     1.0  0.82974  0.49748  0.27214  1.0000
  H   H2795     1.0  0.93609  0.71636  0.98775  1.0000
  H   H2796     1.0  0.97894  0.81034  0.31399  1.0000
  H   H2797     1.0  0.74719  0.93371  0.05169  1.0000
  H   H2798     1.0  0.79020  0.65903  0.00551  1.0000
  H   H2799     1.0  0.98688  0.59272  0.21626  1.0000
  H   H2800     1.0  0.85067  0.50771  0.23897  1.0000
  Fe  Fe359     1.0  0.77672  0.59795  0.49475  1.0000
  S   S711      1.0  0.80714  0.60605  0.49531  1.0000
  S   S712      1.0  0.77135  0.56595  0.50571  1.0000
  H   H2801     1.0  0.85209  0.94196  0.33565  1.0000
  H   H2802     1.0  0.78287  0.53819  0.54303  1.0000
  C   C1752     1.0  0.88299  0.85398  0.63589  1.0000
  H   H2803     1.0  0.80293  0.97297  0.53738  1.0000
  Fe  Fe360     1.0  0.83508  0.86979  0.47127  1.0000
  S   S713      1.0  0.80193  0.87408  0.48325  1.0000
  S   S714      1.0  0.85802  0.84395  0.48329  1.0000
  Fe  Fe361     1.0  0.83039  0.90425  0.43597  1.0000
  S   S715      1.0  0.79685  0.91185  0.44513  1.0000
  S   S716      1.0  0.84813  0.92173  0.40917  1.0000
  Fe  Fe362     1.0  0.80360  0.90730  0.47666  1.0000
  S   S717      1.0  0.78541  0.92709  0.49889  1.0000
  Fe  Fe363     1.0  0.79767  0.87823  0.45089  1.0000
  S   S718      1.0  0.77463  0.86249  0.44347  1.0000
  S   S719      1.0  0.83728  0.90276  0.46719  1.0000
  S   S720      1.0  0.83070  0.87092  0.43924  1.0000
  H   H2804     1.0  0.97633  0.59054  0.46110  1.0000
  Fe  Fe364     1.0  0.93140  0.80702  0.61477  1.0000
  S   S721      1.0  0.90223  0.80482  0.60554  1.0000
  H   H2805     1.0  0.77690  0.87370  0.37631  1.0000
  Fe  Fe365     1.0  0.95592  0.78969  0.57795  1.0000
  S   S722      1.0  0.92870  0.78698  0.56534  1.0000
  H   H2806     1.0  0.98100  0.79011  0.33495  1.0000
  Fe  Fe366     1.0  0.91620  0.81761  0.57433  1.0000
  S   S723      1.0  0.89821  0.84586  0.55909  1.0000
  Fe  Fe367     1.0  0.91716  0.77451  0.59756  1.0000
  S   S724      1.0  0.90349  0.74591  0.60892  1.0000
  S   S725      1.0  0.94471  0.82146  0.58396  1.0000
  S   S726      1.0  0.94512  0.77549  0.60969  1.0000
  Fe  Fe368     1.0  0.87170  0.62158  0.56973  1.0000
  S   S727      1.0  0.88085  0.63979  0.58969  1.0000
  S   S728      1.0  0.83861  0.61901  0.57269  1.0000
  Fe  Fe369     1.0  0.91473  0.61100  0.54894  1.0000
  S   S729      1.0  0.92750  0.62845  0.56668  1.0000
  S   S730      1.0  0.93575  0.59374  0.52642  1.0000
  Fe  Fe370     1.0  0.90696  0.61433  0.59310  1.0000
  S   S731      1.0  0.91689  0.60038  0.62311  1.0000
  Fe  Fe371     1.0  0.90068  0.65229  0.56162  1.0000
  S   S732      1.0  0.90386  0.68505  0.54950  1.0000
  S   S733      1.0  0.89606  0.59502  0.57569  1.0000
  S   S734      1.0  0.88957  0.63598  0.54134  1.0000
  H   H2807     1.0  0.78117  0.52801  0.56943  1.0000
  Fe  Fe372     1.0  0.93820  0.51934  0.34449  1.0000
  Fe  Fe373     1.0  0.89542  0.54171  0.35072  1.0000
  H   H2808     1.0  0.81509  0.55921  0.58050  1.0000
  S   S735      1.0  0.86386  0.53723  0.36680  1.0000
  Fe  Fe374     1.0  0.93186  0.56410  0.34681  1.0000
  S   S736      1.0  0.94463  0.58995  0.35447  1.0000
  H   H2809     1.0  0.82585  0.54707  0.53754  1.0000
  S   S737      1.0  0.92112  0.53752  0.36826  1.0000
  C   C1753     1.0  0.96342  0.58924  0.36945  1.0000
  C   C1754     1.0  0.95502  0.73562  0.57150  1.0000
  C   C1755     1.0  0.97219  0.60665  0.36788  1.0000
  H   H2810     1.0  0.83922  0.97151  0.64894  1.0000
  H   H2811     1.0  0.96717  0.62023  0.35782  1.0000
  C   C1756     1.0  0.95260  0.60945  0.51222  1.0000
  H   H2812     1.0  0.96072  0.69018  0.60243  1.0000
  S   S738      1.0  0.91185  0.52124  0.32874  1.0000
  H   H2813     1.0  0.94807  0.61855  0.47079  1.0000
  S   S739      1.0  0.92785  0.82059  0.64335  1.0000
  C   C1757     1.0  0.94769  0.63044  0.51127  1.0000
  C   C1758     1.0  0.82195  0.97290  0.50836  1.0000
  C   C1759     1.0  0.98465  0.82743  0.64745  1.0000
  H   H2814     1.0  0.93374  0.63698  0.51975  1.0000
  H   H2815     1.0  0.76939  0.91912  0.38406  1.0000
  C   C1760     1.0  0.83234  0.53306  0.32329  1.0000
  H   H2816     1.0  0.93673  0.53936  0.58969  1.0000
  C   C1761     1.0  0.88208  0.88846  0.61855  1.0000
  H   H2817     1.0  0.96389  0.80197  0.53552  1.0000
  C   C1762     1.0  0.97849  0.63482  0.48755  1.0000
  C   C1763     1.0  0.98473  0.49574  0.32026  1.0000
  C   C1764     1.0  0.90247  0.72953  0.59223  1.0000
  C   C1765     1.0  0.89928  0.70961  0.60015  1.0000
  C   C1766     1.0  0.89977  0.69576  0.58720  1.0000
  C   C1767     1.0  0.90317  0.70188  0.56626  1.0000
  C   C1768     1.0  0.90589  0.72191  0.55835  1.0000
  C   C1769     1.0  0.90556  0.73571  0.57129  1.0000
  H   H2818     1.0  0.89681  0.70477  0.61636  1.0000
  H   H2819     1.0  0.89762  0.68034  0.59344  1.0000
  H   H2820     1.0  0.90834  0.72676  0.54214  1.0000
  H   H2821     1.0  0.90770  0.75111  0.56506  1.0000
  H   H2822     1.0  0.75572  0.93480  0.47110  1.0000
  C   C1770     1.0  0.97116  0.57463  0.63943  1.0000
  C   C1771     1.0  0.95071  0.58334  0.64004  1.0000
  C   C1772     1.0  0.94286  0.59099  0.62206  1.0000
  C   C1773     1.0  0.95556  0.59001  0.60349  1.0000
  H   H2823     1.0  0.80716  0.50458  0.36294  1.0000
  C   C1774     1.0  0.96832  0.82247  0.64070  1.0000
  H   H2824     1.0  0.91126  0.54587  0.60220  1.0000
  H   H2825     1.0  0.94964  0.59544  0.58955  1.0000
  C   C1775     1.0  0.94437  0.60473  0.42667  1.0000
  C   C1776     1.0  0.86813  0.84433  0.50508  1.0000
  C   C1777     1.0  0.88204  0.82770  0.51202  1.0000
  C   C1778     1.0  0.89111  0.82783  0.52878  1.0000
  C   C1779     1.0  0.88651  0.84475  0.53855  1.0000
  C   C1780     1.0  0.87262  0.86142  0.53160  1.0000
  C   C1781     1.0  0.86331  0.86115  0.51502  1.0000
  H   H2826     1.0  0.88582  0.81463  0.50440  1.0000
  H   H2827     1.0  0.90181  0.81494  0.53400  1.0000
  H   H2828     1.0  0.86896  0.87454  0.53912  1.0000
  H   H2829     1.0  0.85252  0.87400  0.50988  1.0000
  H   H2830     1.0  0.74828  0.92538  0.45141  1.0000
  H   H2831     1.0  0.89361  0.85586  0.64562  1.0000
  C   C1782     1.0  0.90699  0.86183  0.60579  1.0000
  C   C1783     1.0  0.96845  0.62324  0.43342  1.0000
  C   C1784     1.0  0.92742  0.54500  0.60335  1.0000
  H   H2832     1.0  0.95502  0.59940  0.41358  1.0000
  H   H2833     1.0  0.88427  0.89864  0.60372  1.0000
  H   H2834     1.0  0.98553  0.73647  0.59021  1.0000
  C   C1785     1.0  0.92869  0.51123  0.62271  1.0000
  H   H2835     1.0  0.76940  0.90388  0.42284  1.0000
  C   C1786     1.0  0.82647  0.96464  0.49046  1.0000
  C   C1787     1.0  0.81524  0.95060  0.48751  1.0000
  C   C1788     1.0  0.79951  0.94467  0.50250  1.0000
  H   H2836     1.0  0.97461  0.58486  0.50212  1.0000
  H   H2837     1.0  0.81866  0.94453  0.47352  1.0000
  C   C1789     1.0  0.83821  0.91525  0.34631  1.0000
  C   C1790     1.0  0.84753  0.93102  0.34865  1.0000
  C   C1791     1.0  0.85069  0.93280  0.36796  1.0000
  C   C1792     1.0  0.84430  0.91902  0.38504  1.0000
  C   C1793     1.0  0.83517  0.90317  0.38263  1.0000
  C   C1794     1.0  0.83243  0.90114  0.36329  1.0000
  C   C1795     1.0  0.94044  0.61499  0.45927  1.0000
  H   H2838     1.0  0.85782  0.94506  0.36971  1.0000
  H   H2839     1.0  0.83045  0.89231  0.39563  1.0000
  H   H2840     1.0  0.82581  0.88856  0.36150  1.0000
  H   H2841     1.0  0.96490  0.74675  0.56316  1.0000
  C   C1796     1.0  0.95417  0.53113  0.62292  1.0000
  N   N176      1.0  0.95523  0.60790  0.44223  1.0000
  C   C1797     1.0  0.84726  0.53004  0.35353  1.0000
  C   C1798     1.0  0.83271  0.51826  0.36423  1.0000
  C   C1799     1.0  0.81809  0.51382  0.35452  1.0000
  H   H2842     1.0  0.76075  0.90003  0.49084  1.0000
  H   H2843     1.0  0.83285  0.51236  0.38008  1.0000
  C   C1800     1.0  0.75424  0.87805  0.43336  1.0000
  H   H2844     1.0  0.77337  0.57303  0.55025  1.0000
  H   H2845     1.0  0.97604  0.70229  0.55764  1.0000
  C   C1801     1.0  0.98823  0.83858  0.33219  1.0000
  C   C1802     1.0  0.81524  0.61021  0.51693  1.0000
  C   C1803     1.0  0.80184  0.61297  0.53481  1.0000
  C   C1804     1.0  0.80914  0.61576  0.55185  1.0000
  C   C1805     1.0  0.82981  0.61580  0.55107  1.0000
  C   C1806     1.0  0.84312  0.61317  0.53315  1.0000
  C   C1807     1.0  0.83583  0.61046  0.51615  1.0000
  H   H2846     1.0  0.78591  0.61305  0.53545  1.0000
  H   H2847     1.0  0.79876  0.61795  0.56565  1.0000
  H   H2848     1.0  0.85907  0.61304  0.53239  1.0000
  H   H2849     1.0  0.84626  0.60834  0.50235  1.0000
  C   C1808     1.0  0.76074  0.53591  0.44177  1.0000
  C   C1809     1.0  0.82912  0.98557  0.65071  1.0000
  C   C1810     1.0  0.97843  0.79603  0.52758  1.0000
  H   H2850     1.0  0.87403  0.87296  0.58803  1.0000
  H   H2851     1.0  0.95117  0.83068  0.33313  1.0000
  N   N177      1.0  0.76967  0.90352  0.35944  1.0000
  H   H2852     1.0  0.80560  0.56494  0.52803  1.0000
  S   S740      1.0  0.95055  0.54555  0.32391  1.0000
  C   C1811     1.0  0.98562  0.57169  0.39343  1.0000
  H   H2853     1.0  0.80406  0.52177  0.55242  1.0000
  C   C1812     1.0  0.98590  0.80485  0.32788  1.0000
  H   H2854     1.0  0.93023  0.62903  0.45414  1.0000
  H   H2855     1.0  0.98205  0.49058  0.62396  1.0000
  H   H2856     1.0  0.85804  0.54671  0.32461  1.0000
  H   H2857     1.0  0.90376  0.54123  0.63971  1.0000
  S   S741      1.0  0.95746  0.49018  0.35526  1.0000
  H   H2858     1.0  0.75546  0.93218  0.34515  1.0000
  H   H2859     1.0  0.95656  0.65935  0.49801  1.0000
  H   H2860     1.0  0.94493  0.69872  0.58324  1.0000
  C   C1813     1.0  0.80615  0.96704  0.52335  1.0000
  H   H2861     1.0  0.76734  0.50727  0.40452  1.0000
  C   C1814     1.0  0.78355  0.89890  0.34084  1.0000
  H   H2862     1.0  0.96405  0.52475  0.60994  1.0000
  N   N178      1.0  0.88599  0.86699  0.61590  1.0000
  C   C1815     1.0  0.78000  0.91307  0.37136  1.0000
  H   H2863     1.0  0.95327  0.83532  0.35760  1.0000
  H   H2864     1.0  0.79758  0.88861  0.34440  1.0000
  H   H2865     1.0  0.91256  0.51112  0.62219  1.0000
  S   S742      1.0  0.98766  0.77745  0.56471  1.0000
  C   C1816     1.0  0.84713  0.53730  0.33293  1.0000
  H   H2866     1.0  0.97896  0.58285  0.43701  1.0000
  H   H2867     1.0  0.95768  0.54646  0.62231  1.0000
  S   S743      1.0  0.76893  0.59915  0.46398  1.0000
  C   C1817     1.0  0.74783  0.89709  0.48476  1.0000
  H   H2868     1.0  0.75597  0.87689  0.36297  1.0000
  C   C1818     1.0  0.98770  0.60656  0.37887  1.0000
  H   H2869     1.0  0.93491  0.61897  0.42066  1.0000
  Fe  Fe375     1.0  0.76148  0.56802  0.47572  1.0000
  H   H2870     1.0  0.98567  0.58071  0.58840  1.0000
  H   H2871     1.0  0.90982  0.87105  0.59049  1.0000
  C   C1819     1.0  0.77035  0.52256  0.42831  1.0000
  N   N179      1.0  0.98033  0.81973  0.34192  1.0000
  S   S744      1.0  0.77510  0.54314  0.45717  1.0000
  C   C1820     1.0  0.96986  0.57191  0.38274  1.0000
  S   S745      1.0  0.90437  0.57020  0.33134  1.0000
  H   H2872     1.0  0.99175  0.53104  0.37115  1.0000
  C   C1821     1.0  0.97068  0.60111  0.50118  1.0000
  C   C1822     1.0  0.81779  0.52122  0.33398  1.0000
  H   H2873     1.0  0.82251  0.53389  0.57489  1.0000
  C   C1823     1.0  0.98367  0.61381  0.48891  1.0000
  S   S746      1.0  0.74552  0.61211  0.50739  1.0000
  C   C1824     1.0  0.87197  0.86361  0.60335  1.0000
  C   C1825     1.0  0.97599  0.58152  0.60286  1.0000
  H   H2874     1.0  0.80681  0.59772  0.39613  1.0000
  H   H2875     1.0  0.87459  0.84754  0.60099  1.0000
  C   C1826     1.0  0.96771  0.58864  0.44955  1.0000
  C   C1827     1.0  0.96061  0.64310  0.49893  1.0000
  H   H2876     1.0  0.85594  0.86738  0.61042  1.0000
  N   N180      1.0  0.80428  0.56696  0.39537  1.0000
  C   C1828     1.0  0.80987  0.56900  0.37314  1.0000
  C   C1829     1.0  0.81271  0.58200  0.40280  1.0000
  C   C1830     1.0  0.81255  0.54641  0.40470  1.0000
  C   C1831     1.0  0.78206  0.57036  0.40091  1.0000
  H   H2877     1.0  0.82656  0.56682  0.36845  1.0000
  H   H2878     1.0  0.80365  0.58421  0.36552  1.0000
  H   H2879     1.0  0.94788  0.73092  0.56021  1.0000
  H   H2880     1.0  0.80878  0.58075  0.41957  1.0000
  H   H2881     1.0  0.82949  0.57977  0.39890  1.0000
  H   H2882     1.0  0.95160  0.81025  0.35409  1.0000
  H   H2883     1.0  0.80865  0.54431  0.42150  1.0000
  H   H2884     1.0  0.82931  0.54329  0.40074  1.0000
  H   H2885     1.0  0.80650  0.53467  0.39945  1.0000
  H   H2886     1.0  0.77735  0.56944  0.41756  1.0000
  H   H2887     1.0  0.77522  0.55885  0.39612  1.0000
  H   H2888     1.0  0.77523  0.58555  0.39378  1.0000
  N   N181      1.0  0.96644  0.71808  0.58304  1.0000
  H   H2889     1.0  0.86635  0.89291  0.62613  1.0000
  C   C1832     1.0  0.79493  0.95293  0.52042  1.0000
  H   H2890     1.0  0.94055  0.71111  0.60493  1.0000
  H   H2891     1.0  0.79209  0.90205  0.37808  1.0000
  H   H2892     1.0  0.94280  0.74370  0.58172  1.0000
  H   H2893     1.0  0.89246  0.89147  0.62795  1.0000
  H   H2894     1.0  0.93431  0.59318  0.43281  1.0000
  H   H2895     1.0  0.88586  0.83765  0.63439  1.0000
  H   H2896     1.0  0.96374  0.73254  0.60894  1.0000
  H   H2897     1.0  0.97172  0.81082  0.49825  1.0000
  H   H2898     1.0  0.80415  0.55751  0.36710  1.0000
  H   H2899     1.0  0.98518  0.71892  0.46428  1.0000
  C   C1833     1.0  0.98289  0.80107  0.50649  1.0000
  C   C1834     1.0  0.75965  0.51724  0.41507  1.0000
  C   C1835     1.0  0.75151  0.91755  0.35396  1.0000
  H   H2900     1.0  0.97085  0.81563  0.62721  1.0000
  N   N182      1.0  0.84167  0.69069  0.55413  1.0000
  C   C1836     1.0  0.82366  0.70642  0.55244  1.0000
  C   C1837     1.0  0.83559  0.67044  0.55854  1.0000
  C   C1838     1.0  0.85152  0.69334  0.57069  1.0000
  C   C1839     1.0  0.85594  0.69251  0.53487  1.0000
  H   H2901     1.0  0.82782  0.72187  0.54906  1.0000
  H   H2902     1.0  0.81261  0.70546  0.56675  1.0000
  H   H2903     1.0  0.81581  0.70481  0.54014  1.0000
  H   H2904     1.0  0.84891  0.65832  0.55987  1.0000
  H   H2905     1.0  0.82498  0.66825  0.57305  1.0000
  H   H2906     1.0  0.82821  0.66768  0.54638  1.0000
  H   H2907     1.0  0.86494  0.68150  0.57260  1.0000
  H   H2908     1.0  0.84116  0.69230  0.58544  1.0000
  H   H2909     1.0  0.85691  0.70821  0.56766  1.0000
  H   H2910     1.0  0.86924  0.68025  0.53533  1.0000
  H   H2911     1.0  0.86187  0.70711  0.53159  1.0000
  H   H2912     1.0  0.84878  0.69141  0.52190  1.0000
  H   H2913     1.0  0.91808  0.86397  0.61487  1.0000
  S   S747      1.0  0.79979  0.51586  0.32104  1.0000
  N   N183      1.0  0.79893  0.55195  0.55949  1.0000
  C   C1840     1.0  0.78168  0.56823  0.56333  1.0000
  C   C1841     1.0  0.80937  0.54612  0.57728  1.0000
  H   H2914     1.0  0.77070  0.56321  0.57679  1.0000
  H   H2915     1.0  0.78674  0.58183  0.56617  1.0000
  H   H2916     1.0  0.81993  0.57191  0.54420  1.0000
  H   H2917     1.0  0.95830  0.57670  0.45655  1.0000
  H   H2918     1.0  0.79906  0.54046  0.59110  1.0000
  H   H2919     1.0  0.93094  0.60334  0.46709  1.0000
  N   N184      1.0  0.89950  0.87847  0.44913  1.0000
  C   C1842     1.0  0.88988  0.88842  0.46677  1.0000
  C   C1843     1.0  0.91450  0.89041  0.43627  1.0000
  C   C1844     1.0  0.88396  0.87727  0.43727  1.0000
  C   C1845     1.0  0.90960  0.85783  0.45621  1.0000
  H   H2920     1.0  0.87809  0.88008  0.47644  1.0000
  H   H2921     1.0  0.88240  0.90417  0.46204  1.0000
  H   H2922     1.0  0.90099  0.88903  0.47649  1.0000
  H   H2923     1.0  0.92214  0.88325  0.42288  1.0000
  H   H2924     1.0  0.90719  0.90598  0.43053  1.0000
  H   H2925     1.0  0.92633  0.89184  0.44480  1.0000
  H   H2926     1.0  0.89062  0.87023  0.42360  1.0000
  H   H2927     1.0  0.87563  0.89254  0.43213  1.0000
  H   H2928     1.0  0.87264  0.86802  0.44639  1.0000
  H   H2929     1.0  0.91687  0.84974  0.44335  1.0000
  H   H2930     1.0  0.89863  0.84850  0.46603  1.0000
  H   H2931     1.0  0.92136  0.85811  0.46532  1.0000
  H   H2932     1.0  0.78714  0.92586  0.36188  1.0000
  H   H2933     1.0  0.78615  0.51637  0.42807  1.0000
  C   C1846     1.0  0.92016  0.54035  0.63980  1.0000
  H   H2934     1.0  0.93254  0.50097  0.63671  1.0000
  S   S748      1.0  0.75026  0.50479  0.61546  1.0000
  C   C1847     1.0  0.81318  0.55925  0.54155  1.0000
  C   C1848     1.0  0.79146  0.53421  0.55591  1.0000
  C   C1849     1.0  0.97555  0.72513  0.59781  1.0000
  H   H2935     1.0  0.91034  0.84574  0.60371  1.0000
  H   H2936     1.0  0.96269  0.55868  0.38477  1.0000
  H   H2937     1.0  0.95967  0.63799  0.42762  1.0000
  H   H2938     1.0  0.92271  0.55599  0.63980  1.0000
  Fe  Fe376     1.0  0.77334  0.50029  0.33807  1.0000
  N   N185      1.0  0.93259  0.53192  0.62218  1.0000
  C   C1850     1.0  0.75552  0.89806  0.42431  1.0000
  H   H2939     1.0  0.75415  0.89089  0.47053  1.0000
  H   H2940     1.0  0.86735  0.85745  0.64407  1.0000
  H   H2941     1.0  0.97682  0.62602  0.44483  1.0000
  H   H2942     1.0  0.75294  0.88749  0.38559  1.0000
  H   H2943     1.0  0.98407  0.85026  0.34225  1.0000
  H   H2944     1.0  0.78313  0.94797  0.53227  1.0000
  H   H2945     1.0  0.93795  0.50432  0.60972  1.0000
  H   H2946     1.0  0.95858  0.52171  0.63710  1.0000
  C   C1851     1.0  0.95811  0.82418  0.34698  1.0000
  C   C1852     1.0  0.98250  0.70779  0.56895  1.0000
  H   H2947     1.0  0.92995  0.56079  0.60267  1.0000
  C   C1853     1.0  0.76363  0.88457  0.37158  1.0000
  H   H2948     1.0  0.97991  0.61828  0.42062  1.0000
  C   C1854     1.0  0.98380  0.57367  0.62079  1.0000
  H   H2949     1.0  0.77643  0.89155  0.33148  1.0000
  H   H2950     1.0  0.78838  0.91286  0.33122  1.0000
  H   H2951     1.0  0.83865  0.96915  0.47880  1.0000
  H   H2952     1.0  0.98580  0.52153  0.35070  1.0000
  H   H2953     1.0  0.98554  0.82216  0.37140  1.0000
  C   C1855     1.0  0.95261  0.70386  0.59387  1.0000
  H   H2954     1.0  0.99041  0.69286  0.47564  1.0000
  H   H2955     1.0  0.74749  0.96082  0.53076  1.0000
  H   H2956     1.0  0.98351  0.79707  0.36830  1.0000
  S   S749      1.0  0.83280  0.91317  0.32261  1.0000
  H   H2957     1.0  0.97771  0.54759  0.35299  1.0000
  H   H2958     1.0  0.98472  0.71238  0.60649  1.0000
  C   C1856     1.0  0.98916  0.81128  0.36050  1.0000
  H   H2959     1.0  0.74669  0.50244  0.57399  1.0000
  H   H2960     1.0  0.74355  0.91101  0.34463  1.0000
  S   S750      1.0  0.82327  0.98604  0.61219  1.0000
  H   H2961     1.0  0.76512  0.98551  0.50583  1.0000
  H   H2962     1.0  0.76407  0.98500  0.54258  1.0000
  H   H2963     1.0  0.99075  0.55805  0.40335  1.0000
  H   H2964     1.0  0.99148  0.69447  0.57713  1.0000
  C   C1857     1.0  0.99036  0.53478  0.35483  1.0000
  C   C1858     1.0  0.94878  0.82645  0.65139  1.0000
  C   C1859     1.0  0.74258  0.93097  0.46603  1.0000
  C   C1860     1.0  0.74229  0.52297  0.59541  1.0000
  H   H2965     1.0  0.90215  0.59869  0.93303  1.0000
  H   H2966     1.0  0.85646  0.60616  0.90886  1.0000
  H   H2967     1.0  0.80959  0.79143  0.95199  1.0000
  H   H2968     1.0  0.99184  0.51257  0.78926  1.0000
  H   H2969     1.0  0.84465  0.49396  0.92668  1.0000
  H   H2970     1.0  0.87091  0.57282  0.89846  1.0000
  H   H2971     1.0  0.75647  0.97841  0.92639  1.0000
  S   S751      1.0  0.96481  0.74875  0.92875  1.0000
  H   H2972     1.0  0.91087  0.90848  0.78509  1.0000
  N   N186      1.0  0.80787  0.51385  0.88246  1.0000
  S   S752      1.0  0.87969  0.72040  0.95036  1.0000
  C   C1861     1.0  0.74899  0.54844  0.91775  1.0000
  H   H2973     1.0  0.85237  0.78448  0.92825  1.0000
  C   C1862     1.0  0.97584  0.50942  0.84794  1.0000
  C   C1863     1.0  0.87263  0.57688  0.93621  1.0000
  H   H2974     1.0  0.95775  0.72734  0.97409  1.0000
  S   S753      1.0  0.97566  0.85271  0.72974  1.0000
  S   S754      1.0  0.84204  0.97805  0.72645  1.0000
  C   C1864     1.0  0.86992  0.50490  0.90644  1.0000
  H   H2975     1.0  0.93208  0.75516  0.96091  1.0000
  H   H2976     1.0  0.88405  0.94017  0.74463  1.0000
  C   C1865     1.0  0.77979  0.98071  0.76107  1.0000
  H   H2977     1.0  0.82558  0.53758  0.87003  1.0000
  H   H2978     1.0  0.77441  0.98549  0.77614  1.0000
  S   S755      1.0  0.89342  0.95324  0.70148  1.0000
  Fe  Fe377     1.0  0.81787  0.57884  0.94882  1.0000
  S   S756      1.0  0.82168  0.56837  0.91896  1.0000
  S   S757      1.0  0.82590  0.61009  0.94614  1.0000
  Fe  Fe378     1.0  0.80438  0.53969  0.97123  1.0000
  S   S758      1.0  0.80794  0.52569  0.94323  1.0000
  H   H2979     1.0  0.95957  0.52647  0.77665  1.0000
  Fe  Fe379     1.0  0.83671  0.53885  0.93412  1.0000
  S   S759      1.0  0.86663  0.52796  0.91566  1.0000
  Fe  Fe380     1.0  0.79267  0.55632  0.93043  1.0000
  S   S760      1.0  0.76997  0.56106  0.90924  1.0000
  S   S761      1.0  0.83467  0.54994  0.96354  1.0000
  S   S762      1.0  0.78722  0.56963  0.95891  1.0000
  H   H2980     1.0  0.85734  0.57540  0.93410  1.0000
  C   C1866     1.0  0.74978  0.96489  0.96665  1.0000
  C   C1867     1.0  0.88583  0.57509  0.90114  1.0000
  H   H2981     1.0  0.80878  0.54126  0.89313  1.0000
  C   C1868     1.0  0.84746  0.64316  0.97805  1.0000
  C   C1869     1.0  0.90350  0.58957  0.92080  1.0000
  H   H2982     1.0  0.89384  0.58243  0.88663  1.0000
  C   C1870     1.0  0.82268  0.79133  0.95948  1.0000
  H   H2983     1.0  0.89452  0.55969  0.90510  1.0000
  H   H2984     1.0  0.74278  0.95142  0.96668  1.0000
  H   H2985     1.0  0.74351  0.98873  0.74916  1.0000
  H   H2986     1.0  0.97909  0.77179  0.69882  1.0000
  H   H2987     1.0  0.79657  0.97695  0.75921  1.0000
  H   H2988     1.0  0.87942  0.61593  0.89767  1.0000
  H   H2989     1.0  0.97810  0.77620  0.75253  1.0000
  H   H2990     1.0  0.96341  0.53111  0.81063  1.0000
  C   C1871     1.0  0.94869  0.92160  0.73012  1.0000
  C   C1872     1.0  0.93962  0.94118  0.73344  1.0000
  C   C1873     1.0  0.92308  0.95124  0.72414  1.0000
  C   C1874     1.0  0.91538  0.94169  0.71163  1.0000
  C   C1875     1.0  0.92472  0.92228  0.70793  1.0000
  C   C1876     1.0  0.94139  0.91223  0.71714  1.0000
  H   H2991     1.0  0.94536  0.94853  0.74332  1.0000
  H   H2992     1.0  0.91635  0.96639  0.72662  1.0000
  H   H2993     1.0  0.91886  0.91487  0.69818  1.0000
  H   H2994     1.0  0.94834  0.89713  0.71452  1.0000
  S   S763      1.0  0.98774  0.80852  0.77065  1.0000
  C   C1877     1.0  0.94572  0.83534  0.66889  1.0000
  C   C1878     1.0  0.96558  0.54085  0.77036  1.0000
  H   H2995     1.0  0.86845  0.92130  0.75562  1.0000
  H   H2996     1.0  0.86256  0.78656  0.96051  1.0000
  C   C1879     1.0  0.96206  0.84033  0.67562  1.0000
  H   H2997     1.0  0.93829  0.69658  0.96105  1.0000
  H   H2998     1.0  0.91213  0.59732  0.90689  1.0000
  C   C1880     1.0  0.98421  0.69314  0.97472  1.0000
  H   H2999     1.0  0.95951  0.84757  0.68886  1.0000
  H   H3000     1.0  0.89621  0.51125  0.88467  1.0000
  C   C1881     1.0  0.90294  0.72914  0.94372  1.0000
  C   C1882     1.0  0.91550  0.72556  0.92555  1.0000
  C   C1883     1.0  0.93447  0.73186  0.92057  1.0000
  C   C1884     1.0  0.94047  0.74251  0.93335  1.0000
  C   C1885     1.0  0.92751  0.74682  0.95106  1.0000
  C   C1886     1.0  0.90905  0.73963  0.95655  1.0000
  H   H3001     1.0  0.91085  0.71739  0.91561  1.0000
  H   H3002     1.0  0.94446  0.72843  0.90689  1.0000
  H   H3003     1.0  0.93062  0.83858  0.67716  1.0000
  H   H3004     1.0  0.74748  0.88545  0.95932  1.0000
  Fe  Fe381     1.0  0.87480  0.97979  0.71520  1.0000
  H   H3005     1.0  0.82941  0.80516  0.95251  1.0000
  C   C1887     1.0  0.84048  0.63665  0.96271  1.0000
  C   C1888     1.0  0.83480  0.61744  0.96577  1.0000
  H   H3006     1.0  0.89669  0.89872  0.77058  1.0000
  N   N187      1.0  0.97989  0.54423  0.78257  1.0000
  H   H3007     1.0  0.94094  0.58403  0.65446  1.0000
  H   H3008     1.0  0.83937  0.64661  0.94843  1.0000
  H   H3009     1.0  0.86090  0.94666  0.76100  1.0000
  C   C1889     1.0  0.79960  0.50355  0.90260  1.0000
  H   H3010     1.0  0.81517  0.75377  0.96066  1.0000
  H   H3011     1.0  0.94604  0.50632  0.86436  1.0000
  C   C1890     1.0  0.79892  0.97257  0.81118  1.0000
  C   C1891     1.0  0.87166  0.60743  0.91163  1.0000
  H   H3012     1.0  0.81654  0.79280  0.97555  1.0000
  N   N188      1.0  0.88344  0.58726  0.91742  1.0000
  C   C1892     1.0  0.96747  0.78402  0.70465  1.0000
  H   H3013     1.0  0.88064  0.56132  0.94082  1.0000
  H   H3014     1.0  0.86906  0.61677  0.92389  1.0000
  H   H3015     1.0  0.87057  0.58546  0.94898  1.0000
  H   H3016     1.0  0.83144  0.52312  0.89362  1.0000
  S   S764      1.0  0.83361  0.97487  0.78337  1.0000
  H   H3017     1.0  0.91252  0.91705  0.75844  1.0000
  H   H3018     1.0  0.76593  0.96150  0.95977  1.0000
  H   H3019     1.0  0.91268  0.57460  0.92531  1.0000
  H   H3020     1.0  0.83256  0.77054  0.92823  1.0000
  C   C1893     1.0  0.79111  0.52331  0.87122  1.0000
  H   H3021     1.0  0.74919  0.96626  0.98273  1.0000
  H   H3022     1.0  0.79125  0.49147  0.90139  1.0000
  S   S765      1.0  0.98511  0.72878  0.87504  1.0000
  S   S766      1.0  0.96805  0.90885  0.74361  1.0000
  C   C1894     1.0  0.82817  0.75482  0.96774  1.0000
  C   C1895     1.0  0.85485  0.77339  0.96770  1.0000
  C   C1896     1.0  0.95673  0.80596  0.72986  1.0000
  Fe  Fe382     1.0  0.98733  0.73190  0.90666  1.0000
  H   H3023     1.0  0.95250  0.55337  0.76992  1.0000
  H   H3024     1.0  0.78244  0.51184  0.86913  1.0000
  N   N189      1.0  0.88487  0.92910  0.77616  1.0000
  C   C1897     1.0  0.89258  0.94698  0.77904  1.0000
  C   C1898     1.0  0.87081  0.92239  0.79450  1.0000
  C   C1899     1.0  0.90194  0.91260  0.77247  1.0000
  C   C1900     1.0  0.87408  0.93451  0.75861  1.0000
  H   H3025     1.0  0.90324  0.95247  0.76548  1.0000
  H   H3026     1.0  0.90082  0.94347  0.79214  1.0000
  H   H3027     1.0  0.88004  0.95973  0.78181  1.0000
  H   H3028     1.0  0.87844  0.91814  0.80804  1.0000
  H   H3029     1.0  0.85783  0.93464  0.79768  1.0000
  H   H3030     1.0  0.86449  0.90906  0.79281  1.0000
  C   C1901     1.0  0.88584  0.50060  0.89072  1.0000
  H   H3031     1.0  0.86630  0.75948  0.96676  1.0000
  H   H3032     1.0  0.78886  0.51441  0.91142  1.0000
  H   H3033     1.0  0.89955  0.74237  0.97064  1.0000
  C   C1902     1.0  0.74786  0.53445  0.93563  1.0000
  N   N190      1.0  0.83766  0.77272  0.95779  1.0000
  H   H3034     1.0  0.80532  0.95689  0.81545  1.0000
  H   H3035     1.0  0.77119  0.97039  0.83248  1.0000
  Fe  Fe383     1.0  0.98683  0.88014  0.73429  1.0000
  H   H3036     1.0  0.97510  0.57664  0.77400  1.0000
  N   N191      1.0  0.97264  0.78985  0.72254  1.0000
  H   H3037     1.0  0.99163  0.67885  0.96903  1.0000
  S   S767      1.0  0.97735  0.53096  0.85776  1.0000
  C   C1903     1.0  0.81890  0.52963  0.88489  1.0000
  H   H3038     1.0  0.85648  0.75743  0.93441  1.0000
  Fe  Fe384     1.0  0.87350  0.70833  0.98345  1.0000
  H   H3039     1.0  0.83491  0.98557  0.68065  1.0000
  H   H3040     1.0  0.96052  0.70589  0.94695  1.0000
  H   H3041     1.0  0.92375  0.53099  0.65429  1.0000
  C   C1904     1.0  0.96952  0.54528  0.80354  1.0000
  C   C1905     1.0  0.95851  0.50022  0.85371  1.0000
  C   C1906     1.0  0.84505  0.77127  0.93621  1.0000
  H   H3042     1.0  0.98111  0.62937  0.87716  1.0000
  H   H3043     1.0  0.95268  0.77855  0.70822  1.0000
  H   H3044     1.0  0.83913  0.74054  0.96675  1.0000
  H   H3045     1.0  0.97299  0.53997  0.75444  1.0000
  H   H3046     1.0  0.97996  0.54749  0.81327  1.0000
  H   H3047     1.0  0.95986  0.76597  0.74350  1.0000
  H   H3048     1.0  0.94180  0.80081  0.73433  1.0000
  H   H3049     1.0  0.84992  0.77451  0.98399  1.0000
  H   H3050     1.0  0.85173  0.65802  0.97552  1.0000
  H   H3051     1.0  0.79672  0.53142  0.85602  1.0000
  H   H3052     1.0  0.82728  0.50097  0.98335  1.0000
  H   H3053     1.0  0.97602  0.77758  0.80327  1.0000
  H   H3054     1.0  0.75987  0.53142  0.94458  1.0000
  C   C1907     1.0  0.80983  0.98508  0.79590  1.0000
  H   H3055     1.0  0.78026  0.53456  0.87943  1.0000
  C   C1908     1.0  0.98159  0.83636  0.66492  1.0000
  H   H3056     1.0  0.95669  0.55804  0.80418  1.0000
  H   H3057     1.0  0.82818  0.50613  0.85579  1.0000
  H   H3058     1.0  0.74901  0.89057  0.92200  1.0000
  C   C1909     1.0  0.77959  0.98017  0.82085  1.0000
  H   H3059     1.0  0.96087  0.67927  0.95406  1.0000
  C   C1910     1.0  0.95507  0.69407  0.95932  1.0000
  C   C1911     1.0  0.98747  0.56343  0.77368  1.0000
  H   H3060     1.0  0.95516  0.81963  0.71804  1.0000
  H   H3061     1.0  0.96646  0.79707  0.69204  1.0000
  H   H3062     1.0  0.79638  0.98535  0.72171  1.0000
  C   C1912     1.0  0.99086  0.77992  0.80464  1.0000
  H   H3063     1.0  0.97710  0.56864  0.65333  1.0000
  C   C1913     1.0  0.97428  0.77212  0.73880  1.0000
  S   S768      1.0  0.98639  0.66892  0.88115  1.0000
  N   N192      1.0  0.96197  0.69486  0.97833  1.0000
  C   C1914     1.0  0.83632  0.60464  0.98424  1.0000
  C   C1915     1.0  0.99183  0.50153  0.83409  1.0000
  H   H3064     1.0  0.77383  0.96654  0.76154  1.0000
  H   H3065     1.0  0.81179  0.49637  0.91161  1.0000
  H   H3066     1.0  0.96022  0.81078  0.74332  1.0000
  H   H3067     1.0  0.98634  0.75975  0.73396  1.0000
  H   H3068     1.0  0.82248  0.75538  0.98407  1.0000
  C   C1916     1.0  0.82182  0.49894  0.87116  1.0000
  H   H3069     1.0  0.98930  0.70588  0.96314  1.0000
  H   H3070     1.0  0.77309  0.97570  0.72488  1.0000
  H   H3071     1.0  0.83483  0.49178  0.87903  1.0000
  C   C1917     1.0  0.85669  0.49099  0.91429  1.0000
  C   C1918     1.0  0.77965  0.98935  0.72509  1.0000
  H   H3072     1.0  0.99130  0.81120  0.70519  1.0000
  C   C1919     1.0  0.99214  0.79739  0.71689  1.0000
  C   C1920     1.0  0.95289  0.71430  0.98531  1.0000
