data_image0
_chemical_formula_structural       FeS2FeS2FeSFeS3FeS2FeS2FeSFeS3FeS2FeS2FeSFeS3FeS2FeS2FeSFeS3FeS2FeS2FeSFeS3FeS2FeS2FeSFeS3FeS2FeS2FeSFeS3FeS2FeS2FeSFeS3FeS2FeS2FeSFeS3FeS2FeS2FeSFeS3FeS2FeS2FeSFeS3FeS2FeS2FeSFeS3FeS2FeS2FeSFeS3FeS2FeS2FeSFeS3FeS2FeS2FeSFeS3FeS2FeS2FeSFeS3FeS2FeS2FeSFeS3FeS2FeS2FeSFeS3FeS2FeS2FeSFeS3FeS2FeS2FeSFeS3FeS2FeS2FeSFeS3FeS2FeS2FeSFeS3FeS2FeS2FeSFeS3FeS2FeS2FeSFeS3C6H4C6H4C6H4C6H4C6H4C6H4C6H4C6H4C6H4C6H4C6H4C6H4C6H4C6H4C6H4C6H4C6H4C6H4C6H4C6H4C6H4C6H4C6H4C6H4C6H4C6H4C6H4C6H4C6H4C6H4C6H4C6H4C6H4C6H4C6H4C6H4C6H4C6H4C6H4C6H4C6H4C6H4C6H4C6H4C6H4C6H4C6H4C6H4NC4H12NC4H12NC4H12NC4H12NC4H12NC4H12NC4H12NC4H12NC4H12NC4H12NC4H12NC4H12NC4H12NC4H12NC4H12NC4H12NC4H12NC4H12NC4H12NC4H12NC4H12NC4H12NC4H12NC4H12NC4H12NC4H12NC4H12NC4H12NC4H12NC4H12NC4H12NC4H12NC4H12NC4H12NC4H12NC4H12NC4H12NC4H12NC4H12NC4H12NC4H12NC4H12NC4H12NC4H12NC4H12NC4H12NC4H12NC4H12
_chemical_formula_sum              "Fe96 S192 C480 H768 N48"
_cell_length_a       32.10460195944736
_cell_length_b       32.17014109917485
_cell_length_c       67.775917320441
_cell_angle_alpha    88.04522620478748
_cell_angle_beta     90.56246507370062
_cell_angle_gamma    89.18069247575198

_space_group_name_H-M_alt    "P 1"
_space_group_IT_number       1

loop_
  _space_group_symop_operation_xyz
  'x, y, z'

loop_
  _atom_site_type_symbol
  _atom_site_label
  _atom_site_symmetry_multiplicity
  _atom_site_fract_x
  _atom_site_fract_y
  _atom_site_fract_z
  _atom_site_occupancy
  Fe  Fe1       1.0  0.2893070095086179  0.6668805249451034  0.8845372718766004  1.0000
  S   S1        1.0  0.28052190892651924  0.7208478465796565  0.9042447329634719  1.0000
  S   S2        1.0  0.2783693352084598  0.6729179285062552  0.8518567194088374  1.0000
  Fe  Fe2       1.0  0.313801359928508  0.6079134945824625  0.9186099073910393  1.0000
  S   S3        1.0  0.3076451714135856  0.6568521672654202  0.94111393980116  1.0000
  S   S4        1.0  0.32921742628465733  0.542083423355345  0.9277884664717044  1.0000
  Fe  Fe3       1.0  0.24883788506426957  0.6748660439715009  0.9243002032941328  1.0000
  S   S5        1.0  0.18632514687527948  0.6876793761421635  0.9377429939189873  1.0000
  Fe  Fe4       1.0  0.34020663543441676  0.6973293689217219  0.9185452143795838  1.0000
  S   S6        1.0  0.3973406443714021  0.7362677162359829  0.9220405874031635  1.0000
  S   S7        1.0  0.2528591898869025  0.6226780299836879  0.9034805522586519  1.0000
  S   S8        1.0  0.3508987831280123  0.6463962022112345  0.8973518136573425  1.0000
  Fe  Fe5       1.0  0.4430439289389369  0.8254436955386448  0.7847620120091333  1.0000
  S   S9        1.0  0.4339341339524974  0.8416974180940856  0.7526744308894499  1.0000
  S   S10       1.0  0.5024018357837787  0.7969212576626857  0.7968710012304648  1.0000
  Fe  Fe6       1.0  0.3563719860225735  0.8513443657051056  0.7952869649873078  1.0000
  S   S11       1.0  0.33806278833811915  0.870196261949968  0.7643177067169461  1.0000
  S   S12       1.0  0.31686390300451894  0.8554001587009946  0.8220934841081521  1.0000
  Fe  Fe7       1.0  0.37180185957823436  0.8117908881984416  0.7560422964859932  1.0000
  S   S13       1.0  0.3451891724607908  0.7733405009611722  0.7319405042584456  1.0000
  Fe  Fe8       1.0  0.40118675475003973  0.8988901314191877  0.7629474163428286  1.0000
  S   S14       1.0  0.412834855518228  0.9583888614217624  0.7456250947781027  1.0000
  S   S15       1.0  0.3838239797624337  0.7897765081482389  0.7872948483067218  1.0000
  S   S16       1.0  0.4165257221557899  0.8857036664620574  0.7949126409543511  1.0000
  Fe  Fe9       1.0  0.5736341046484583  0.6489803765458307  0.9901373184430794  1.0000
  S   S17       1.0  0.6084355972070308  0.6457531480905292  0.9617288261304908  1.0000
  S   S18       1.0  0.5047745897061953  0.6608948522429023  0.9936631465662525  1.0000
  Fe  Fe10      1.0  0.6480954759941454  0.6219568347760948  0.015220737205970059  1.0000
  S   S19       1.0  0.689993500261334  0.616445202718435  0.9891137607553083  1.0000
  S   S20       1.0  0.6733564338424569  0.6016755952437357  0.045248525926502525  1.0000
  Fe  Fe11      1.0  0.6602843474832938  0.6761043215083236  0.9781012554305935  1.0000
  S   S21       1.0  0.6987712539402379  0.721964648997593  0.9605806211318516  1.0000
  Fe  Fe12      1.0  0.6360042632523729  0.5865207812626911  0.974546802109772  1.0000
  S   S22       1.0  0.647283156204251  0.5344622213646124  0.9539196843402273  1.0000
  S   S23       1.0  0.622977573121207  0.6851059789622893  0.0056808800553318495  1.0000
  S   S24       1.0  0.596454525722667  0.586214030102431  0.001558800192354104  1.0000
  Fe  Fe13      1.0  0.4366537513517333  0.5767025720049838  0.6899094671964695  1.0000
  S   S25       1.0  0.4532524019319653  0.512543536088251  0.7013156884966705  1.0000
  S   S26       1.0  0.4661136556434324  0.6277207019873253  0.7068776247500657  1.0000
  Fe  Fe14      1.0  0.38764974177495415  0.5438993639211549  0.6553086292979825  1.0000
  S   S27       1.0  0.3995640557025921  0.47690255815190985  0.6642055400615708  1.0000
  S   S28       1.0  0.3520010561203019  0.5600736373542964  0.6272593063941384  1.0000
  Fe  Fe15      1.0  0.3869217556501012  0.4975186306811988  0.6949345750120749  1.0000
  S   S29       1.0  0.35318777344554525  0.4638218310508124  0.7195037983145549  1.0000
  Fe  Fe16      1.0  0.46463142628690146  0.4980788859653884  0.66981433563798  1.0000
  S   S30       1.0  0.5218180241521525  0.4604093699656514  0.663138493847597  1.0000
  S   S31       1.0  0.36887685656890257  0.5630758311858667  0.6856375974902332  1.0000
  S   S32       1.0  0.45393259507701017  0.5639260714846003  0.6588295802643014  1.0000
  Fe  Fe17      1.0  0.19097532519941401  0.3405838725473338  0.9349503863439314  1.0000
  S   S33       1.0  0.2273807162361167  0.3393906529693504  0.9070025993449352  1.0000
  S   S34       1.0  0.21661665967690127  0.3463883804637445  0.9655907471141679  1.0000
  Fe  Fe18      1.0  0.10723053422327579  0.3428439091886643  0.9140476602597701  1.0000
  S   S35       1.0  0.13491810729286746  0.34153972952354555  0.8837509062334622  1.0000
  S   S36       1.0  0.04199787399015742  0.35835007536659136  0.9233477670379858  1.0000
  Fe  Fe19      1.0  0.1794006648591463  0.2939041975688579  0.8974885282360471  1.0000
  S   S37       1.0  0.20282112246517203  0.23809224195579357  0.8817751787977852  1.0000
  Fe  Fe20      1.0  0.1808792603405538  0.38671283161146136  0.8952500757935452  1.0000
  S   S38       1.0  0.19994903742547854  0.4435855101260909  0.8780361061709038  1.0000
  S   S39       1.0  0.1470279505365846  0.29047005536375264  0.9267800336633364  1.0000
  S   S40       1.0  0.14937322955758917  0.3928218891986246  0.9240926307764726  1.0000
  Fe  Fe21      1.0  0.3517300508995815  0.16990323935400362  0.7768622395104288  1.0000
  S   S41       1.0  0.3756430058611329  0.1838170999102886  0.8070935165272621  1.0000
  S   S42       1.0  0.3105394291385683  0.11420860797154939  0.7745385009333674  1.0000
  Fe  Fe22      1.0  0.396125123951636  0.24305386670460868  0.7572300458843534  1.0000
  S   S43       1.0  0.42438239977381365  0.262865569926902  0.7856228251006394  1.0000
  S   S44       1.0  0.4120268708398941  0.27520882866438867  0.7283583293271403  1.0000
  Fe  Fe23      1.0  0.4360140685438724  0.194761550910412  0.7918151965188259  1.0000
  S   S45       1.0  0.49652974309060716  0.16641688906325028  0.8023446799423996  1.0000
  Fe  Fe24      1.0  0.3612301622418323  0.2502885056548214  0.7982552293051496  1.0000
  S   S46       1.0  0.33078195590270576  0.29808948191313767  0.8169741006485219  1.0000
  S   S47       1.0  0.4135795344996068  0.17576771783311437  0.7622039994626391  1.0000
  S   S48       1.0  0.33168515350138217  0.2357102188295374  0.7691865411511962  1.0000
  Fe  Fe25      1.0  0.4882350904188571  0.38116099439629625  0.9665512686992727  1.0000
  S   S49       1.0  0.43754206163315335  0.3748143528659254  0.9887679667545604  1.0000
  S   S50       1.0  0.48765797016370077  0.427328225073378  0.9411379705858813  1.0000
  Fe  Fe26      1.0  0.538229778792341  0.3071482435716648  0.9832902696854375  1.0000
  S   S51       1.0  0.4925545900605374  0.2941838449954968  0.007537421339186112  1.0000
  S   S52       1.0  0.5962250574423669  0.2681127808847667  0.979871112618916  1.0000
  Fe  Fe27      1.0  0.44391848522472166  0.3063264416195753  0.9838266644635653  1.0000
  S   S53       1.0  0.39463475390079256  0.261473607105316  0.9751077100435062  1.0000
  Fe  Fe28      1.0  0.4904858659290185  0.36356812834321756  0.010530558239613796  1.0000
  S   S54       1.0  0.4963788557861537  0.3995878520174859  0.03836764724538533  1.0000
  S   S55       1.0  0.48989947755412117  0.31406798241987294  0.9595007655664233  1.0000
  S   S56       1.0  0.5409339064799265  0.375241130406904  0.9883588392303275  1.0000
  Fe  Fe29      1.0  0.8797484270657729  0.6911610706867309  0.8754498951947229  1.0000
  S   S57       1.0  0.9214767018746843  0.7176418713601556  0.8984942964878349  1.0000
  S   S58       1.0  0.8252740506746391  0.7262005989200875  0.8614798301500649  1.0000
  Fe  Fe30      1.0  0.9150948756114995  0.6033032358625567  0.882150450017427  1.0000
  S   S59       1.0  0.9591569182409785  0.6217828866267461  0.9060086517203707  1.0000
  S   S60       1.0  0.9093095497290767  0.5384205408990967  0.8714608345288533  1.0000
  Fe  Fe31      1.0  0.9051592075895506  0.6603965921741989  0.9164793783829668  1.0000
  S   S61       1.0  0.8850245794067954  0.66190761910332  0.9481751759941001  1.0000
  Fe  Fe32      1.0  0.9713910654974415  0.6768546488912518  0.885748978154692  1.0000
  S   S62       1.0  0.03610801352386517  0.695427330305571  0.8766329114522418  1.0000
  S   S63       1.0  0.8601949736284464  0.6366727128609578  0.8943594554859617  1.0000
  S   S64       1.0  0.9306453598749035  0.6555305087369465  0.8609487201476271  1.0000
  Fe  Fe33      1.0  0.7035202974809563  0.8955296278503763  0.7717128182055537  1.0000
  S   S65       1.0  0.696410023289716  0.8833454873664072  0.7395693754995857  1.0000
  S   S66       1.0  0.6494817523909957  0.9240152763372885  0.7873301867054358  1.0000
  Fe  Fe34      1.0  0.7944195021927142  0.8682130698333911  0.7731480583952292  1.0000
  S   S67       1.0  0.7954700343038775  0.854814086382376  0.740823617387756  1.0000
  S   S68       1.0  0.8529780826447871  0.8562278950184883  0.7912231773888019  1.0000
  Fe  Fe35      1.0  0.758260798349385  0.9143920581807227  0.7370018704504595  1.0000
  S   S69       1.0  0.7690566454117592  0.964112003226888  0.71352134071364  1.0000
  Fe  Fe36      1.0  0.7337346470946928  0.8250782496284402  0.7463481572719868  1.0000
  S   S70       1.0  0.7145205894388275  0.7614150003363602  0.7370605478372539  1.0000
  S   S71       1.0  0.7630572446425008  0.9306739648759058  0.7687652005118946  1.0000
  S   S72       1.0  0.7351273888044806  0.8342944937440396  0.7789793002439762  1.0000
  Fe  Fe37      1.0  0.6947113147809552  0.5723684848024411  0.6233569944888449  1.0000
  S   S73       1.0  0.7486722689076935  0.6118547805081499  0.6141099032153748  1.0000
  S   S74       1.0  0.6354068430246548  0.5656474006904298  0.6059329732360453  1.0000
  Fe  Fe38      1.0  0.7348267384400854  0.5433707955328071  0.6619330811110449  1.0000
  S   S75       1.0  0.7929170431358066  0.579719002371403  0.6563186981785062  1.0000
  S   S76       1.0  0.7266838477028125  0.5065338571401647  0.6904989926456562  1.0000
  Fe  Fe39      1.0  0.7496121818513412  0.6313172615830657  0.645753698070675  1.0000
  S   S77       1.0  0.7638967325497006  0.6977632582715487  0.6529825316777048  1.0000
  Fe  Fe40      1.0  0.7876024723409122  0.5575978668904744  0.6253697577393262  1.0000
  S   S78       1.0  0.8419033060088662  0.528725937743954  0.610008018072846  1.0000
  S   S79       1.0  0.6916703793403666  0.5968334168270099  0.6539108254022451  1.0000
  S   S80       1.0  0.7338290964350324  0.5163726448343446  0.6319893798026426  1.0000
  Fe  Fe41      1.0  0.7452662380947508  0.29251374393277213  0.8960919835365738  1.0000
  S   S81       1.0  0.7526820109149953  0.35860994629795984  0.8854805642736907  1.0000
  S   S82       1.0  0.6786604841026842  0.27232191504428155  0.8955225890390747  1.0000
  Fe  Fe42      1.0  0.8381386766911461  0.27788939119789935  0.9007737435312895  1.0000
  S   S83       1.0  0.852842177277963  0.34269591597963645  0.8904594345463265  1.0000
  S   S84       1.0  0.8940379282213223  0.23674165721886506  0.907332726150771  1.0000
  Fe  Fe43      1.0  0.8001453774328543  0.3614184850441986  0.9096391967680311  1.0000
  S   S85       1.0  0.8073176659780656  0.41821799135236076  0.9274976737092894  1.0000
  Fe  Fe44      1.0  0.8045611600179343  0.3336417450919697  0.8672941366436582  1.0000
  S   S86       1.0  0.8139363816836784  0.359626089844807  0.836584072024453  1.0000
  S   S87       1.0  0.7887916700495095  0.29719500456524744  0.922127319435717  1.0000
  S   S88       1.0  0.7933765264693343  0.2669362295488931  0.8758077266512125  1.0000
  Fe  Fe45      1.0  0.6737679734570897  0.2673189891494438  0.7547913949095378  1.0000
  S   S89       1.0  0.6563879734583289  0.24543431440235444  0.7249568413634302  1.0000
  S   S90       1.0  0.626946434353602  0.29873223481033423  0.7737570486242852  1.0000
  Fe  Fe46      1.0  0.76289165183798  0.23561715102130307  0.7520624025635485  1.0000
  S   S91       1.0  0.7532290111466583  0.2107267668001184  0.721762834505826  1.0000
  S   S92       1.0  0.8184875480369925  0.22300548708905854  0.771861402247841  1.0000
  Fe  Fe47      1.0  0.7180802243274808  0.2715264501491325  0.7157892416712308  1.0000
  S   S93       1.0  0.7197693920179298  0.3099555405655766  0.687164028664293  1.0000
  Fe  Fe48      1.0  0.6925125310551749  0.18733933509271314  0.7336875488594876  1.0000
  S   S94       1.0  0.6625937786025277  0.12432541743577376  0.7332483197426364  1.0000
  S   S95       1.0  0.7326091898104348  0.297809460425664  0.7452949833337107  1.0000
  S   S96       1.0  0.7051896906762812  0.20767910675565732  0.7643583418204621  1.0000
  Fe  Fe49      1.0  0.7320149594441799  0.2316998586234436  0.37245358430083914  1.0000
  S   S97       1.0  0.7997041170293501  0.2196464701054109  0.37879976894365514  1.0000
  S   S98       1.0  0.7037868179743741  0.24143042975325832  0.3422935804359885  1.0000
  Fe  Fe50      1.0  0.7095462510210948  0.22888731767362155  0.41571485161242583  1.0000
  S   S99       1.0  0.7753404791937631  0.21634893751928536  0.42578651559621145  1.0000
  S   S100      1.0  0.6594920803800641  0.23566639628725972  0.43820567466898597  1.0000
  Fe  Fe51      1.0  0.7911862538708957  0.26510960564440117  0.4027035648795013  1.0000
  S   S101      1.0  0.8365459981446031  0.3161056885522782  0.40775429201560337  1.0000
  Fe  Fe52      1.0  0.7768248664430537  0.17203057856380924  0.400942130850723  1.0000
  S   S102      1.0  0.8066222194268202  0.10837357528006503  0.40175506901453195  1.0000
  S   S103      1.0  0.7250297897593048  0.2811263073291743  0.39466094712327904  1.0000
  S   S104      1.0  0.709525519892028  0.18066320693631688  0.39262349243390177  1.0000
  Fe  Fe53      1.0  0.8249844891103407  0.2862012432840187  0.2561500235932372  1.0000
  S   S105      1.0  0.8469983233794266  0.2950398515575462  0.2250456754708726  1.0000
  S   S106      1.0  0.8277142345006289  0.22365210284678064  0.27167073657798907  1.0000
  Fe  Fe54      1.0  0.8182512807639577  0.3787707195575676  0.2625766028513459  1.0000
  S   S107      1.0  0.8402953337991436  0.39454421958195396  0.23203267350937593  1.0000
  S   S108      1.0  0.8060105179000523  0.4310400786256108  0.2828986556408275  1.0000
  Fe  Fe55      1.0  0.7969860210005975  0.3447192362470767  0.22284482611134077  1.0000
  S   S109      1.0  0.7576376149731432  0.3634420772650939  0.1962429064137714  1.0000
  Fe  Fe56      1.0  0.8875872787947522  0.34397096258931703  0.23768184914323645  1.0000
  S   S110      1.0  0.9545531780831137  0.3501501089184693  0.2285119063295557  1.0000
  S   S111      1.0  0.7715177206377378  0.332135809212998  0.2532172500731347  1.0000
  S   S112      1.0  0.8686004796042575  0.3317268169841754  0.2690129079629568  1.0000
  Fe  Fe57      1.0  0.4626072643894347  0.3583540944962378  0.1444542809494276  1.0000
  S   S113      1.0  0.5308383899652158  0.3710741733446301  0.14574828462119863  1.0000
  S   S114      1.0  0.44573678003322537  0.3150686417938539  0.12039075669121287  1.0000
  Fe  Fe58      1.0  0.4436655142507949  0.4129770880498283  0.1792356945163967  1.0000
  S   S115      1.0  0.5108508624843515  0.42933768041480597  0.18311921588299793  1.0000
  S   S116      1.0  0.4018571520135104  0.4464649704461743  0.20013679265784648  1.0000
  Fe  Fe59      1.0  0.5103157985685485  0.4364000553602771  0.1501041300231315  1.0000
  S   S117      1.0  0.5382036191091103  0.4886307248501036  0.1325444905430942  1.0000
  Fe  Fe60      1.0  0.5238785244569941  0.3618789168133971  0.17838149198528858  1.0000
  S   S118      1.0  0.5661239108755985  0.3194560429274844  0.196813458664874  1.0000
  S   S119      1.0  0.44228348957046637  0.42515376609022476  0.14641787859133273  1.0000
  S   S120      1.0  0.45649257403106364  0.3444870443420077  0.17706061804365614  1.0000
  Fe  Fe61      1.0  0.44316263207506235  0.255140245152732  0.4119769485064951  1.0000
  S   S121      1.0  0.46166725067973496  0.21177911012191783  0.437025874636068  1.0000
  S   S122      1.0  0.48969252301207966  0.30157023564876206  0.40101555785673076  1.0000
  Fe  Fe62      1.0  0.3574947205040383  0.21807075177088758  0.40837622153021674  1.0000
  S   S123      1.0  0.36843058876340756  0.1720964561931736  0.43371480487324954  1.0000
  S   S124      1.0  0.2976189126541701  0.21717945574642653  0.39090845892683584  1.0000
  Fe  Fe63      1.0  0.3980973206499264  0.22599089748665624  0.44842946687523927  1.0000
  S   S125      1.0  0.39775298236722106  0.24184884294799466  0.48036941229870744  1.0000
  Fe  Fe64      1.0  0.4308694582502012  0.16240458561301246  0.4199331608331076  1.0000
  S   S126      1.0  0.46301399979134183  0.10149009380473195  0.4139120997753439  1.0000
  S   S127      1.0  0.38135590333086977  0.2730235292406706  0.4243882592204022  1.0000
  S   S128      1.0  0.4180212898549059  0.20459175513065797  0.3935497479787138  1.0000
  Fe  Fe65      1.0  0.21797337456779778  0.3707850927880411  0.25828938092313936  1.0000
  S   S129      1.0  0.25435056716143756  0.41214313529954644  0.2776424313922385  1.0000
  S   S130      1.0  0.23883089691580164  0.3549352952893141  0.22782549292755302  1.0000
  Fe  Fe66      1.0  0.15224309776025433  0.3554379491791104  0.289335062607975  1.0000
  S   S131      1.0  0.18406181955005385  0.3943750727300335  0.311702649024301  1.0000
  S   S132      1.0  0.08876885521078025  0.3314901135034722  0.29686753254104636  1.0000
  Fe  Fe67      1.0  0.19262607555351993  0.4386362498604318  0.28606017788399096  1.0000
  S   S133      1.0  0.1768092265194815  0.5062343562196753  0.28799569524945484  1.0000
  Fe  Fe68      1.0  0.24292464778645162  0.36371519620351794  0.30152754946299076  1.0000
  S   S134      1.0  0.3011575006695542  0.34876782299182696  0.3193359706678608  1.0000
  S   S135      1.0  0.15696131224118992  0.40214419378896055  0.26426119184591157  1.0000
  S   S136      1.0  0.2104350315611252  0.32002113418251804  0.2815252881526045  1.0000
  Fe  Fe69      1.0  0.7714833278045311  0.49724536554797133  0.5041168865070749  1.0000
  S   S137      1.0  0.7624624191791533  0.5657157216633205  0.5076889643762974  1.0000
  S   S138      1.0  0.7956189717261304  0.45308021106741125  0.527949537217323  1.0000
  Fe  Fe70      1.0  0.7458955639749492  0.5009800077237405  0.46090896097450645  1.0000
  S   S139      1.0  0.7355743217792102  0.5699563132482597  0.4606079374174908  1.0000
  S   S140      1.0  0.7279035829544876  0.4690609124517001  0.4331737593544505  1.0000
  Fe  Fe71      1.0  0.7942744856311107  0.571317440727586  0.478490752830912  1.0000
  S   S141      1.0  0.8416950025136855  0.6199711147724614  0.4719115254462978  1.0000
  Fe  Fe72      1.0  0.7046620395749233  0.558079276884695  0.48953185836598745  1.0000
  S   S142      1.0  0.645807133347321  0.5938715029471889  0.4950082662308713  1.0000
  S   S143      1.0  0.8080825752467093  0.5032660125963997  0.47611407435966907  1.0000
  S   S144      1.0  0.7103117918074427  0.4884944387023641  0.4887938450335265  1.0000
  Fe  Fe73      1.0  0.7136324931369096  0.8942001967462769  0.4074040662054596  1.0000
  S   S145      1.0  0.7222405807898716  0.8626699719251397  0.3786835850467189  1.0000
  S   S146      1.0  0.6831723954757636  0.9575849660464133  0.4096343405840793  1.0000
  Fe  Fe74      1.0  0.7433833632735937  0.8179410921555017  0.4317063966875531  1.0000
  S   S147      1.0  0.7556075828152388  0.780057223273993  0.4051772682547215  1.0000
  S   S148      1.0  0.7424840041885784  0.7901809521952559  0.46249824204312134  1.0000
  Fe  Fe75      1.0  0.7824659371924687  0.8390065588171554  0.392315574529858  1.0000
  S   S149      1.0  0.8380265427307771  0.8414580260284734  0.37236815700885123  1.0000
  Fe  Fe76      1.0  0.6949729539965636  0.8067672610024866  0.3939454816585856  1.0000
  S   S150      1.0  0.6462431829912142  0.7648064996283501  0.3822682164805684  1.0000
  S   S151      1.0  0.776086270153019  0.8749554776111909  0.4201234474844617  1.0000
  S   S152      1.0  0.680394622857817  0.8401847811183389  0.4213370639459125  1.0000
  Fe  Fe77      1.0  0.9352699544970677  0.6244170794403636  0.2675225649410514  1.0000
  S   S153      1.0  0.9691706817278498  0.6768759607556135  0.25232050750179685  1.0000
  S   S154      1.0  0.9441254654485334  0.5591247582348708  0.25761331660571773  1.0000
  Fe  Fe78      1.0  0.9036404933106711  0.6776441026620421  0.30024793340621003  1.0000
  S   S155      1.0  0.9352790414359636  0.7344298925303545  0.28819617586657253  1.0000
  S   S156      1.0  0.86971107550844  0.6733946714668635  0.329175195400728  1.0000
  Fe  Fe79      1.0  0.9114386113868935  0.7141808671725849  0.25878717682029384  1.0000
  S   S157      1.0  0.8862350433698762  0.7662878599382484  0.23889399019096352  1.0000
  Fe  Fe80      1.0  0.9898827026477258  0.6923098231657805  0.28282009005804076  1.0000
  S   S158      1.0  0.05405973844509315  0.7085949237150293  0.29360535730698817  1.0000
  S   S159      1.0  0.875334049106627  0.6602553297317145  0.271298740878977  1.0000
  S   S160      1.0  0.9603252575516711  0.6370530213495752  0.29752497597163313  1.0000
  Fe  Fe81      1.0  0.6351159497447225  0.6783169294344471  0.14848713286341264  1.0000
  S   S161      1.0  0.700158618683878  0.6522364617750375  0.15001046268475454  1.0000
  S   S162      1.0  0.5978717402212045  0.6860756465643949  0.12017281743082944  1.0000
  Fe  Fe82      1.0  0.6330798428934546  0.6934514778986886  0.19260103835866166  1.0000
  S   S163      1.0  0.6978135949860581  0.6677467405038457  0.1979864823910343  1.0000
  S   S164      1.0  0.5973816146659934  0.7170296516669283  0.21838303224615133  1.0000
  Fe  Fe83      1.0  0.7135080305700893  0.7038234953525959  0.17022241635782467  1.0000
  S   S165      1.0  0.7692451618571796  0.7436570019269413  0.1647604556760995  1.0000
  Fe  Fe84      1.0  0.6783678768042432  0.6185833860599341  0.17732950972400616  1.0000
  S   S166      1.0  0.6892747226351233  0.5502506583048715  0.1817628572631282  1.0000
  S   S167      1.0  0.6502628879546497  0.7337049045687989  0.16639148313549595  1.0000
  S   S168      1.0  0.6120065382699557  0.6407930621618265  0.17449643733730066  1.0000
  Fe  Fe85      1.0  0.33363807387868333  0.7497020126252758  0.2684161559621066  1.0000
  S   S169      1.0  0.3165870015217888  0.7373523117363276  0.23705292168415174  1.0000
  S   S170      1.0  0.33948588397833596  0.8148736094416693  0.278716399667866  1.0000
  Fe  Fe86      1.0  0.33514501186785967  0.6584841259638236  0.2805775316397324  1.0000
  S   S171      1.0  0.31919518592727236  0.6386584672444293  0.2501483565050626  1.0000
  S   S172      1.0  0.3382700169241003  0.6088315905364661  0.30456340423383366  1.0000
  Fe  Fe87      1.0  0.3651554215290303  0.6865582606586678  0.24006504457479935  1.0000
  S   S173      1.0  0.4058786875130814  0.6733994931295342  0.21397451079511082  1.0000
  Fe  Fe88      1.0  0.27238019448690604  0.6908173383481254  0.2501175533280452  1.0000
  S   S174      1.0  0.2079096434842809  0.6821290486915248  0.23725899339263953  1.0000
  S   S175      1.0  0.38549342904737605  0.7020438674099962  0.27077879580818565  1.0000
  S   S176      1.0  0.2855651816208646  0.7077428922559752  0.28128722663426853  1.0000
  Fe  Fe89      1.0  0.38068903836526424  0.8864931592439479  0.4187812130485613  1.0000
  S   S177      1.0  0.3755053421891501  0.8956729193412655  0.38591718629075666  1.0000
  S   S178      1.0  0.36497966721641606  0.9393290173743776  0.4383984811780523  1.0000
  Fe  Fe90      1.0  0.4135545069173121  0.7975836531307579  0.41656180400324605  1.0000
  S   S179      1.0  0.41053328628179736  0.7992579494759741  0.3835068951577586  1.0000
  S   S180      1.0  0.4452502821218014  0.7409780145868545  0.43049475906350143  1.0000
  Fe  Fe91      1.0  0.43747548736205094  0.8626424509548202  0.3856045614418743  1.0000
  S   S181      1.0  0.49173790841575593  0.884723959473509  0.36766847445379447  1.0000
  Fe  Fe92      1.0  0.34907282990977123  0.8315040055487976  0.3870780633190418  1.0000
  S   S182      1.0  0.2945099946292784  0.8119228455244086  0.36890868795735193  1.0000
  S   S183      1.0  0.4450557113823493  0.8589619455032049  0.41843634081808756  1.0000
  S   S184      1.0  0.3492177714046045  0.8244149546530491  0.42015714620976874  1.0000
  Fe  Fe93      1.0  0.42675447030799757  0.5138964831098801  0.5243958513335238  1.0000
  S   S185      1.0  0.43499595369847505  0.4616888494869217  0.5037053288369439  1.0000
  S   S186      1.0  0.45955697150775976  0.5111214755313633  0.553795106444171  1.0000
  Fe  Fe94      1.0  0.37554600101046065  0.5661854935876962  0.49483833710371383  1.0000
  S   S187      1.0  0.3780231094718429  0.5183245726143684  0.47163040565113085  1.0000
  S   S188      1.0  0.34359085528260447  0.628324828856859  0.4905719475482453  1.0000
  Fe  Fe95      1.0  0.3674399277590658  0.47255520941124024  0.49670135562268214  1.0000
  S   S189      1.0  0.322127306234285  0.42069498703156716  0.49417726653590394  1.0000
  Fe  Fe96      1.0  0.44511480678220433  0.5116780167375059  0.48055316637151574  1.0000
  S   S190      1.0  0.49488648145241587  0.5016960543157305  0.4581880334006125  1.0000
  S   S191      1.0  0.3579687102070471  0.521155496869744  0.5191944367119278  1.0000
  S   S192      1.0  0.443719856061126  0.5630567915222464  0.502121262384148  1.0000
  C   C1        1.0  0.4155577997578488  0.7100165982841743  0.44670937838678176  1.0000
  C   C2        1.0  0.42968256588957504  0.6696213689891797  0.4517167676330133  1.0000
  C   C3        1.0  0.4069786818077119  0.6441889269327924  0.46475577321473804  1.0000
  C   C4        1.0  0.37047802743949376  0.6593218330481887  0.4732100799199596  1.0000
  C   C5        1.0  0.356333115237131  0.69980438440466  0.46829652218317525  1.0000
  C   C6        1.0  0.37871386404289203  0.725075579823821  0.45492803254441494  1.0000
  H   H1        1.0  0.4580250231905236  0.6577732029325407  0.4453039160535475  1.0000
  H   H2        1.0  0.4177159848250641  0.6127880055027123  0.468097062397677  1.0000
  H   H3        1.0  0.3280380677305832  0.711612065596082  0.4747552465183992  1.0000
  H   H4        1.0  0.36776178930990056  0.7563096069024927  0.45118941358874154  1.0000
  C   C7        1.0  0.32469052906475127  0.817945728185862  0.3034721568156102  1.0000
  C   C8        1.0  0.3496394037106981  0.8391105951284975  0.3167565645324507  1.0000
  C   C9        1.0  0.33964382203159316  0.8388457814198326  0.3368750786836178  1.0000
  C   C10       1.0  0.304282261348399  0.8179791135610884  0.3436204698231565  1.0000
  C   C11       1.0  0.2781731049707494  0.7987816152495155  0.3301657172537054  1.0000
  C   C12       1.0  0.2886218728943484  0.7983399646130265  0.3101693214776535  1.0000
  H   H5        1.0  0.3774678990585935  0.8545100610353805  0.31162121198475345  1.0000
  H   H6        1.0  0.35992299123118815  0.8538221030527704  0.34719652854610084  1.0000
  H   H7        1.0  0.2506068807553121  0.7829820725294442  0.3353387149195841  1.0000
  H   H8        1.0  0.2685904931568883  0.7829334891140569  0.30000071630687813  1.0000
  C   C13       1.0  0.5436721972056472  0.707154551207327  0.21692321041819573  1.0000
  C   C14       1.0  0.5249719456298038  0.69755975375764  0.1989503455695256  1.0000
  C   C15       1.0  0.48233906599892806  0.6885579696228086  0.19812394383029822  1.0000
  C   C16       1.0  0.4582645659998046  0.6886982965990982  0.21526727978321883  1.0000
  C   C17       1.0  0.47680596750224385  0.699059293352759  0.23316400028613732  1.0000
  C   C18       1.0  0.5193917136534973  0.7084703220532127  0.23396801079990878  1.0000
  H   H9        1.0  0.5431931806676321  0.6976640516917313  0.1856281805013582  1.0000
  H   H10       1.0  0.46794564620585777  0.6814287139657377  0.1841734874618387  1.0000
  H   H11       1.0  0.4585981417597578  0.6991912525201459  0.2464506184414062  1.0000
  H   H12       1.0  0.53363865385712  0.7160720884380323  0.2478903438567775  1.0000
  C   C19       1.0  0.16520633551864597  0.6855968315445453  0.2533660823833064  1.0000
  C   C20       1.0  0.124561885655026  0.6845976620563656  0.24565174604902168  1.0000
  C   C21       1.0  0.09010438236481777  0.6906972635266748  0.25793632168977026  1.0000
  C   C22       1.0  0.09617809996713578  0.6980879212945047  0.27797965338533653  1.0000
  C   C23       1.0  0.1367731298483592  0.6984002336794688  0.28572236773594417  1.0000
  C   C24       1.0  0.17108955699569287  0.6917065604488293  0.2735159123579248  1.0000
  H   H13       1.0  0.11964084329854137  0.6798643171679496  0.2300754632334364  1.0000
  H   H14       1.0  0.05895422939021677  0.6905899462601798  0.25178432561699965  1.0000
  H   H15       1.0  0.14171591322052124  0.7036437246879714  0.30125136254740414  1.0000
  H   H16       1.0  0.2019545249352946  0.6914276626884135  0.2798010833100624  1.0000
  C   C25       1.0  0.8575021286529108  0.7557964685202136  0.2174857913375496  1.0000
  C   C26       1.0  0.8537617065261811  0.7873052368208922  0.20280622082079888  1.0000
  C   C27       1.0  0.8278618283008821  0.7823612934362193  0.18636236535410505  1.0000
  C   C28       1.0  0.8045100487716313  0.7463219438155708  0.1846895420891246  1.0000
  C   C29       1.0  0.8083214858480794  0.7143943589255666  0.19925142397065412  1.0000
  C   C30       1.0  0.835325236746611  0.71890021203925  0.21556261294375906  1.0000
  H   H17       1.0  0.8708025801375724  0.8158526602550448  0.2042451545298379  1.0000
  H   H18       1.0  0.8251692033655115  0.8070482400894234  0.17515467582214705  1.0000
  H   H19       1.0  0.7907659352276464  0.6861880797646538  0.19789930409145856  1.0000
  H   H20       1.0  0.8380804683992653  0.6944613355851412  0.22688944001120442  1.0000
  C   C31       1.0  0.5333715582955978  0.848779647242349  0.3692160874866641  1.0000
  C   C32       1.0  0.528359353071502  0.8094775459170415  0.37832520758421523  1.0000
  C   C33       1.0  0.5628559265184658  0.7828035140454961  0.38150722060568504  1.0000
  C   C34       1.0  0.6025782902838643  0.795876750553399  0.37606797272465425  1.0000
  C   C35       1.0  0.6076097517404554  0.8349049282938353  0.3667452392432797  1.0000
  C   C36       1.0  0.5729134039006747  0.8609998680534451  0.36298282402893156  1.0000
  H   H21       1.0  0.4981663800541027  0.7999575618971982  0.38344900678605465  1.0000
  H   H22       1.0  0.5588605917851418  0.7527871241478333  0.3888920557708749  1.0000
  H   H23       1.0  0.6382196971419876  0.8450283576562861  0.36239691229152177  1.0000
  H   H24       1.0  0.5769261603863577  0.8912923848151585  0.35587949923859075  1.0000
  C   C37       1.0  0.8476469202817514  0.7947946349310836  0.36053643243589306  1.0000
  C   C38       1.0  0.85751101136349  0.7957262582739781  0.34044474330241564  1.0000
  C   C39       1.0  0.8643623455914273  0.7585293169513372  0.3306650638340787  1.0000
  C   C40       1.0  0.8621720315539873  0.7203864916107598  0.3410695212431956  1.0000
  C   C41       1.0  0.85292717486637  0.7194668742358534  0.3612277351427951  1.0000
  C   C42       1.0  0.8456078934892125  0.7566390856179982  0.37095840309709605  1.0000
  H   H25       1.0  0.859122448098302  0.8252582904174568  0.3323603405697298  1.0000
  H   H26       1.0  0.8707371839847344  0.7594625596582646  0.3150389462075657  1.0000
  H   H27       1.0  0.8513685702537979  0.689969034115757  0.36934751113868475  1.0000
  H   H28       1.0  0.8387272405648779  0.7558272485888762  0.38656393034831094  1.0000
  C   C43       1.0  0.6050135239699956  0.5722301327475845  0.48165202560624054  1.0000
  C   C44       1.0  0.611805750731005  0.53653334551952  0.47083855935302366  1.0000
  C   C45       1.0  0.5780565074902541  0.5159425102049685  0.46254331547228483  1.0000
  C   C46       1.0  0.537635959921892  0.5316427535868105  0.4647367882442362  1.0000
  C   C47       1.0  0.5314488773694981  0.5696655635166148  0.47375306041607157  1.0000
  C   C48       1.0  0.5650347764483814  0.5897456765068717  0.48244302414836165  1.0000
  H   H29       1.0  0.6428270159960588  0.5241423850863548  0.46916037286948786  1.0000
  H   H30       1.0  0.5831354081546604  0.48713161799625054  0.4550743816769772  1.0000
  H   H31       1.0  0.5007233689082455  0.5835879209927993  0.4740076837011011  1.0000
  H   H32       1.0  0.5598250523822257  0.6183090958100228  0.49008977278602484  1.0000
  C   C49       1.0  0.8156317162058534  0.6681448739874265  0.46967463485065053  1.0000
  C   C50       1.0  0.8267914110723239  0.697366854604463  0.45494901936363225  1.0000
  C   C51       1.0  0.804554003417282  0.7351671362716282  0.4526593280290679  1.0000
  C   C52       1.0  0.7721765069097698  0.7442622205313637  0.465560783270152  1.0000
  C   C53       1.0  0.7618609395696313  0.7154873595234954  0.48061019707269276  1.0000
  C   C54       1.0  0.7829016174224385  0.6770924763109045  0.4823852599330314  1.0000
  H   H33       1.0  0.8520476382165635  0.6904384395194357  0.4450731853226648  1.0000
  H   H34       1.0  0.8128452241901728  0.757481355046166  0.44111167942453683  1.0000
  H   H35       1.0  0.7370809458562422  0.7226194775982472  0.4907108425625863  1.0000
  H   H36       1.0  0.7741504449157179  0.6547233859566274  0.4937935273050824  1.0000
  C   C55       1.0  0.22020418068969394  0.5345012908463179  0.2953138963852283  1.0000
  C   C56       1.0  0.21943763579905123  0.5776897393354125  0.29252213798485077  1.0000
  C   C57       1.0  0.2554392727229841  0.6004332385380023  0.2959282571319057  1.0000
  C   C58       1.0  0.2922223388670936  0.5803478148293072  0.30247085248739203  1.0000
  C   C59       1.0  0.29248783423208424  0.5372660868146282  0.30615649259903194  1.0000
  C   C60       1.0  0.2565198752622016  0.5142689191339623  0.3024408706836371  1.0000
  H   H37       1.0  0.19130970597522537  0.593561653790978  0.28724116315482656  1.0000
  H   H38       1.0  0.2544420812098119  0.6335705274710624  0.2935223796986713  1.0000
  H   H39       1.0  0.32075361562205573  0.5215292546595497  0.31131730599218466  1.0000
  H   H40       1.0  0.2570270467124169  0.48093256362371867  0.3050208065997629  1.0000
  C   C61       1.0  0.43611304240715765  0.05660246908656097  0.42125017808579457  1.0000
  C   C62       1.0  0.4439648706163605  0.01954591962379304  0.41160663219526405  1.0000
  C   C63       1.0  0.4220918748266934  0.9834824166293731  0.4168457223100618  1.0000
  C   C64       1.0  0.39284877841649735  0.9841698471308915  0.43198479936625106  1.0000
  C   C65       1.0  0.3852399619258665  0.021174782116378577  0.4417524619837008  1.0000
  C   C66       1.0  0.40670080611172954  0.057467520656065085  0.4363133940298426  1.0000
  H   H41       1.0  0.46632113333473546  0.018892599255210252  0.39977189796561996  1.0000
  H   H42       1.0  0.42756737107007814  0.9551973623116888  0.4090607985891796  1.0000
  H   H43       1.0  0.3626705229516069  0.02173779824299915  0.453505582299331  1.0000
  H   H44       1.0  0.400935316984063  0.08584837894392283  0.4440019709479122  1.0000
  C   C67       1.0  0.37706506466115397  0.29171370233205823  0.48385915061145396  1.0000
  C   C68       1.0  0.3977049176371947  0.3186581952684584  0.496340098839574  1.0000
  C   C69       1.0  0.3818269039400486  0.3589079767326611  0.4990152308263043  1.0000
  C   C70       1.0  0.3444397855251685  0.37176792828808214  0.48976440880155414  1.0000
  C   C71       1.0  0.3236978112162761  0.34470752023968004  0.47738323106135705  1.0000
  C   C72       1.0  0.3403656906334824  0.3049835829615131  0.4741466643848037  1.0000
  H   H45       1.0  0.4261862875323395  0.30842166829596324  0.5037998339494345  1.0000
  H   H46       1.0  0.39800116349356396  0.37932771166344703  0.5086618412032482  1.0000
  H   H47       1.0  0.29469215499697515  0.35445527776009406  0.47024578033080067  1.0000
  H   H48       1.0  0.3242695154942506  0.284213341078371  0.46452334374379145  1.0000
  C   C73       1.0  0.29789687650545005  0.25410846210749755  0.3711396459994417  1.0000
  C   C74       1.0  0.26260424269797394  0.260021231927337  0.358933118444977  1.0000
  C   C75       1.0  0.26294996081666155  0.28933719281776743  0.34303508617761475  1.0000
  C   C76       1.0  0.29875126722460854  0.3125005228430193  0.3392810643796592  1.0000
  C   C77       1.0  0.3339873833895835  0.3064148221426092  0.35145161938293856  1.0000
  C   C78       1.0  0.33351532401694234  0.27747651041911625  0.36738940254628083  1.0000
  H   H49       1.0  0.23491463879681954  0.2421463427716082  0.36183412307813173  1.0000
  H   H50       1.0  0.23562876140469574  0.2939508673698427  0.33370056065440207  1.0000
  H   H51       1.0  0.3616922164112602  0.32433280426910155  0.3486319122093071  1.0000
  H   H52       1.0  0.36078045818755344  0.2733303400318859  0.37675841573428115  1.0000
  C   C79       1.0  0.5847169523777983  0.5017814127398916  0.14401487845963656  1.0000
  C   C80       1.0  0.6021864457825148  0.540238830389356  0.1394208256127175  1.0000
  C   C81       1.0  0.6362147318237834  0.5535621267419487  0.15032816564500406  1.0000
  C   C82       1.0  0.6526509468441252  0.5288458566734632  0.16595785798838575  1.0000
  C   C83       1.0  0.6365552569259996  0.489323608764888  0.16995092873820966  1.0000
  C   C84       1.0  0.6024336655833039  0.475782575042281  0.15892186787987683  1.0000
  H   H53       1.0  0.5883991810216024  0.5606727783937421  0.12807975466203422  1.0000
  H   H54       1.0  0.6488632832613237  0.5836720408815653  0.14695903136960936  1.0000
  H   H55       1.0  0.6492318455356801  0.4699249696232588  0.1819668557945706  1.0000
  H   H56       1.0  0.5891970020675208  0.44576571593396647  0.1622995558908174  1.0000
  C   C85       1.0  0.35543296822533144  0.4218405230324873  0.20669717146306624  1.0000
  C   C86       1.0  0.3438262454449459  0.38458859129006445  0.1982958695863178  1.0000
  C   C87       1.0  0.30730130642627357  0.36470241718038793  0.20449294512346572  1.0000
  C   C88       1.0  0.282583687534093  0.38185855142535885  0.2191691399674654  1.0000
  C   C89       1.0  0.29390546639191834  0.4194770184361633  0.22729170252995728  1.0000
  C   C90       1.0  0.33026517373619707  0.43942509424482945  0.22106810005490699  1.0000
  H   H57       1.0  0.3630100307464734  0.3710285470363076  0.18709091544095308  1.0000
  H   H58       1.0  0.298496644911325  0.33569103461096217  0.19809622901589116  1.0000
  H   H59       1.0  0.2745272139733271  0.4333340882591672  0.23825700032673605  1.0000
  H   H60       1.0  0.33925637708957884  0.46828399524555203  0.22753288135705232  1.0000
  C   C91       1.0  0.8459071614435807  0.4666323790677983  0.27807428369431075  1.0000
  C   C92       1.0  0.8413819732508812  0.5085209754260684  0.28274453566159186  1.0000
  C   C93       1.0  0.8717531827822095  0.5373233642203893  0.27678797518656517  1.0000
  C   C94       1.0  0.9062250220511181  0.5241855215466222  0.26597953027737026  1.0000
  C   C95       1.0  0.9111218179351377  0.4821461953815545  0.2618703923781076  1.0000
  C   C96       1.0  0.8814235945963304  0.45343482639024313  0.2681656258354764  1.0000
  H   H61       1.0  0.8141000493033256  0.5188848202940567  0.2905334369157909  1.0000
  H   H62       1.0  0.8681470148607465  0.5696867344369697  0.280263332111422  1.0000
  H   H63       1.0  0.9376897085389128  0.4716965874493239  0.2535809265043044  1.0000
  H   H64       1.0  0.8860035541828644  0.4210773192228874  0.2650471799724471  1.0000
  C   C97       1.0  0.9922454786155602  0.3509287487076393  0.24749302749451071  1.0000
  C   C98       1.0  0.9806891271453336  0.3539951678441112  0.2672357761918076  1.0000
  C   C99       1.0  0.010532758833832865  0.3481440881965385  0.2823519415834451  1.0000
  C   C100      1.0  0.05233849016062386  0.340807531226135  0.27774899356621585  1.0000
  C   C101      1.0  0.06438188370913442  0.3402256519313482  0.25799204179575436  1.0000
  C   C102      1.0  0.034318853829776064  0.3451093121658578  0.24288552389391324  1.0000
  H   H65       1.0  0.948749031480666  0.36030399502758537  0.27091254554980015  1.0000
  H   H66       1.0  0.0012588060915181833  0.3492631279333642  0.2976368862809252  1.0000
  H   H67       1.0  0.09663548746345353  0.3344311589124641  0.25434245422337004  1.0000
  H   H68       1.0  0.04354458911188375  0.34309942054501597  0.22762209995404886  1.0000
  C   C103      1.0  0.7043518752214025  0.3516484705577848  0.1969121530362825  1.0000
  C   C104      1.0  0.677021253747409  0.3712007144916347  0.1831237292701366  1.0000
  C   C105      1.0  0.6343915398417997  0.36199182622712806  0.18321614993572605  1.0000
  C   C106      1.0  0.6190294749505104  0.3328724333172564  0.19698044849942392  1.0000
  C   C107      1.0  0.6463394710374343  0.31330923260860294  0.2107653448211527  1.0000
  C   C108      1.0  0.6888963852946873  0.32290665929520734  0.21084060491153325  1.0000
  H   H69       1.0  0.6888546005735032  0.3934735744031926  0.17231125419445514  1.0000
  H   H70       1.0  0.6135815833016466  0.376976675191038  0.17246688187438267  1.0000
  H   H71       1.0  0.6345724048158116  0.2906639610095509  0.22140333719880342  1.0000
  H   H72       1.0  0.7098229304886612  0.307422961780507  0.22139724183391835  1.0000
  C   C109      1.0  0.6139803748826155  0.2582987566936555  0.427945822395807  1.0000
  C   C110      1.0  0.5800906212310578  0.2660512672654114  0.44016044250432196  1.0000
  C   C111      1.0  0.5421505091251323  0.28048421010540736  0.4319410430896429  1.0000
  C   C112      1.0  0.5382465938728936  0.2878591757450297  0.41153350662565874  1.0000
  C   C113      1.0  0.5727099049732832  0.2818352713329322  0.3994265098667789  1.0000
  C   C114      1.0  0.6104941335207811  0.2666870865753181  0.4076060793369019  1.0000
  H   H73       1.0  0.582635820936874  0.2594949091465291  0.4558968743280119  1.0000
  H   H74       1.0  0.515754771223396  0.285335331879748  0.4414045641013032  1.0000
  H   H75       1.0  0.5697323386704292  0.2874286168839428  0.383629469904651  1.0000
  H   H76       1.0  0.6364361572493225  0.2605377773916726  0.39804959503796455  1.0000
  C   C115      1.0  0.7728601804191557  0.06638831785597478  0.405460806187112  1.0000
  C   C116      1.0  0.7870649738124241  0.026032270730150797  0.4017743915530284  1.0000
  C   C117      1.0  0.7598080886504164  0.9923464733510099  0.40322235985664656  1.0000
  C   C118      1.0  0.7182666891197338  0.9989412531647603  0.4084221812106557  1.0000
  C   C119      1.0  0.7041420444222936  0.03922035579466554  0.4123389862608059  1.0000
  C   C120      1.0  0.7314634968943998  0.07286318489470278  0.4110090909545597  1.0000
  H   H77       1.0  0.8191297851093279  0.020826325128667774  0.39759777215292835  1.0000
  H   H78       1.0  0.7709343306594957  0.9613600984747751  0.40015634322538457  1.0000
  H   H79       1.0  0.672200147206556  0.0442437240076714  0.41660518338446695  1.0000
  H   H80       1.0  0.7206791098657822  0.103657719017239  0.4144640806736974  1.0000
  C   C121      1.0  0.8099072713074196  0.3620997799722788  0.41333715050508785  1.0000
  C   C122      1.0  0.8224987775925072  0.3850603927756086  0.42947570247895933  1.0000
  C   C123      1.0  0.7986320710924892  0.4194611650560124  0.4351818125624626  1.0000
  C   C124      1.0  0.7623887680063159  0.43103855752257775  0.4246243344455859  1.0000
  C   C125      1.0  0.7512167426655195  0.40945955895069425  0.407830105834681  1.0000
  C   C126      1.0  0.7748237035170622  0.3749555875983448  0.40224920939673275  1.0000
  H   H81       1.0  0.8498917376706182  0.3753781852029755  0.43796762359917696  1.0000
  H   H82       1.0  0.8076268504263655  0.4360983068933031  0.4480770342768135  1.0000
  H   H83       1.0  0.7234046829352485  0.4185791080547935  0.399526546623432  1.0000
  H   H84       1.0  0.765737271126296  0.3582209835344729  0.389411969408244  1.0000
  C   C127      1.0  0.737504578029237  0.2336001338615635  0.322589424613013  1.0000
  C   C128      1.0  0.7764836225853606  0.2143753348692306  0.3256293410420064  1.0000
  C   C129      1.0  0.803612662322292  0.20964484652200435  0.3097708880224454  1.0000
  C   C130      1.0  0.79203025361518  0.22494527737719855  0.29092360518902216  1.0000
  C   C131      1.0  0.7528044036873186  0.24354534317958493  0.28780195597912855  1.0000
  C   C132      1.0  0.7253602236998192  0.24742162529262937  0.3035886686060501  1.0000
  H   H85       1.0  0.7857082209633939  0.20288969980224084  0.340107263433295  1.0000
  H   H86       1.0  0.8340248665173676  0.19534020473446173  0.31220588626449763  1.0000
  H   H87       1.0  0.7434794705234702  0.2547505108865336  0.27317315502648865  1.0000
  H   H88       1.0  0.6950515719855245  0.2619822786756669  0.30112767312968963  1.0000
  C   C133      1.0  0.8182884688127171  0.32176143130925106  0.818646772255906  1.0000
  C   C134      1.0  0.829370116661124  0.28055225100436026  0.8238375118266845  1.0000
  C   C135      1.0  0.830799791227586  0.25040393753059903  0.8093250031057179  1.0000
  C   C136      1.0  0.8205920818160837  0.2613497085379255  0.7896672359334906  1.0000
  C   C137      1.0  0.8103257247606014  0.30269222579225163  0.7844750230544439  1.0000
  C   C138      1.0  0.8093961820611565  0.3328693187580901  0.7989067825161504  1.0000
  H   H89       1.0  0.8374106707239002  0.27198560060371646  0.8389537613552315  1.0000
  H   H90       1.0  0.8391573192102911  0.2185456133303378  0.813398816041293  1.0000
  H   H91       1.0  0.8037293753643835  0.31164208821888895  0.7692606833038101  1.0000
  H   H92       1.0  0.8012237697818713  0.3647744971540743  0.7947874026687934  1.0000
  C   C139      1.0  0.8277098303260653  0.5082433479654337  0.5872864219853396  1.0000
  C   C140      1.0  0.7939589563124404  0.5247784192804659  0.5761678881904234  1.0000
  C   C141      1.0  0.7841223016472625  0.5085207793030597  0.5577016706046515  1.0000
  C   C142      1.0  0.8072180852755401  0.4748796559790882  0.5507225132285711  1.0000
  C   C143      1.0  0.8405395015312375  0.4581874366486643  0.5619971628330525  1.0000
  C   C144      1.0  0.8511710279483601  0.4752302948832217  0.5800704292475322  1.0000
  H   H93       1.0  0.7757420658988629  0.5503378409445813  0.5816977474319062  1.0000
  H   H94       1.0  0.7581012291341491  0.521294722523911  0.5491237586584353  1.0000
  H   H95       1.0  0.8584726698684032  0.43224450468110964  0.5566194036210419  1.0000
  H   H96       1.0  0.8773507476523641  0.46246897837908424  0.5885570596332153  1.0000
  C   C145      1.0  0.7215478261672441  0.4521679599364669  0.6895751043657822  1.0000
  C   C146      1.0  0.7305901768463428  0.4275534112956025  0.7065497446281844  1.0000
  C   C147      1.0  0.7291537474493202  0.3840073897172858  0.7060491266862886  1.0000
  C   C148      1.0  0.7183515026294129  0.3646529840615116  0.6886037660262667  1.0000
  C   C149      1.0  0.7083435632803375  0.38935755179614073  0.6716916964716204  1.0000
  C   C150      1.0  0.7097794003218298  0.4330262650712422  0.6721893228160988  1.0000
  H   H97       1.0  0.7396878650154487  0.44213501365774355  0.7200594465735087  1.0000
  H   H98       1.0  0.7375824948738466  0.3655561075778656  0.7190599061875445  1.0000
  H   H99       1.0  0.6996084010939092  0.3746465788708779  0.6581658188798944  1.0000
  H   H100      1.0  0.7016153798106872  0.45175931874848896  0.6591611019355226  1.0000
  C   C151      1.0  0.7387448704624405  0.008621273729103818  0.7182255527434966  1.0000
  C   C152      1.0  0.748167536029297  0.047168392962139594  0.7091642747292625  1.0000
  C   C153      1.0  0.725174148815519  0.08312720090879654  0.713725731940793  1.0000
  C   C154      1.0  0.692368233303061  0.08040189369455954  0.7271332542237364  1.0000
  C   C155      1.0  0.6825369633335425  0.041730357278160664  0.7358522765820673  1.0000
  C   C156      1.0  0.7058884738100898  0.006050034479292199  0.7315848828454536  1.0000
  H   H101      1.0  0.7735220159300518  0.04932013087854159  0.6987949496591304  1.0000
  H   H102      1.0  0.7324476034876578  0.11282244151041014  0.7067010049123276  1.0000
  H   H103      1.0  0.6571276764726933  0.03939334464782296  0.7461886336858947  1.0000
  H   H104      1.0  0.6983846280110881  0.976596982277329  0.7387348190510867  1.0000
  C   C157      1.0  0.7304299658922542  0.7429856399625888  0.7141569665098363  1.0000
  C   C158      1.0  0.758434632865391  0.7651565721308108  0.7023442457206579  1.0000
  C   C159      1.0  0.7689115406146352  0.7507467662083079  0.6836518098547308  1.0000
  C   C160      1.0  0.7520963503183049  0.713711314822605  0.676904278080721  1.0000
  C   C161      1.0  0.7252259712527805  0.6908211004704375  0.689049561403786  1.0000
  C   C162      1.0  0.7142849177711943  0.7055522870316624  0.7076004862540874  1.0000
  H   H105      1.0  0.7717883387059306  0.7934126255323388  0.7075776105227153  1.0000
  H   H106      1.0  0.7902466418269557  0.7680985698909993  0.6743922472912877  1.0000
  H   H107      1.0  0.7122896334118924  0.6621961209404141  0.6839919828800373  1.0000
  H   H108      1.0  0.6928095542197292  0.6881631010747896  0.7167731164087296  1.0000
  C   C163      1.0  0.8788196834166937  0.5077129493523281  0.8872827540078545  1.0000
  C   C164      1.0  0.8529527458030788  0.4779135714035911  0.879292111651669  1.0000
  C   C165      1.0  0.8307455123375579  0.45084522621983886  0.8917076426694149  1.0000
  C   C166      1.0  0.8343697563659821  0.45332258311390705  0.9121940566183707  1.0000
  C   C167      1.0  0.8599916990428489  0.48334879535599184  0.9202664887460583  1.0000
  C   C168      1.0  0.8820700006237464  0.5107981033704384  0.90779250247116  1.0000
  H   H109      1.0  0.8499523815787219  0.4757616176003104  0.8634370148065978  1.0000
  H   H110      1.0  0.8107283256429215  0.42811496419172823  0.8853069295673301  1.0000
  H   H111      1.0  0.8635124972484529  0.48474567981325145  0.9361197229570707  1.0000
  H   H112      1.0  0.9025242833418003  0.5335060646179413  0.914012877416268  1.0000
  C   C169      1.0  0.8346945922649198  0.7642229311582982  0.8430284084412012  1.0000
  C   C170      1.0  0.8746513504116367  0.7708680370261553  0.8356375659876596  1.0000
  C   C171      1.0  0.8804181287606964  0.8001844024675395  0.820065413334043  1.0000
  C   C172      1.0  0.8463133118678712  0.8228335957754753  0.8119777644173816  1.0000
  C   C173      1.0  0.806783429742565  0.8171857617249636  0.8199703043461781  1.0000
  C   C174      1.0  0.8009396357924723  0.7877963680285447  0.8353696355890424  1.0000
  H   H113      1.0  0.9008930657712746  0.7528490612036345  0.8415912527115413  1.0000
  H   H114      1.0  0.9111505420509034  0.8046613353742701  0.8139929164574766  1.0000
  H   H115      1.0  0.7806822140824728  0.8356916746325757  0.8143894558574799  1.0000
  H   H116      1.0  0.7700559865706413  0.7830956185269371  0.8412304246319104  1.0000
  C   C175      1.0  0.4817010872510707  0.3749469627759581  0.06079517554469738  1.0000
  C   C176      1.0  0.4662115290899252  0.33444261761141725  0.06166818665010321  1.0000
  C   C177      1.0  0.4549424900085669  0.31598812575044444  0.07996631528580063  1.0000
  C   C178      1.0  0.45926878711445096  0.3379694986457999  0.09738036405402775  1.0000
  C   C179      1.0  0.47493440684467164  0.37830610869501125  0.09641387740793599  1.0000
  C   C180      1.0  0.48585821936041484  0.396733889072125  0.07820677031142886  1.0000
  H   H117      1.0  0.46259054461784227  0.31750183884160627  0.048282160310426425  1.0000
  H   H118      1.0  0.44266992913723113  0.2848417427219342  0.08059787393204462  1.0000
  H   H119      1.0  0.47826192372281184  0.39567762891770586  0.10966026678979372  1.0000
  H   H120      1.0  0.49720866370334754  0.4281296627997698  0.0776211898558854  1.0000
  C   C181      1.0  0.6191232146904019  0.27004949706513875  0.9564078584008007  1.0000
  C   C182      1.0  0.6596422375458958  0.2543065397280801  0.9541529533438887  1.0000
  C   C183      1.0  0.6783284446648056  0.2552322860993286  0.9354981894248287  1.0000
  C   C184      1.0  0.6560068338355787  0.27077086022603286  0.9189586088428373  1.0000
  C   C185      1.0  0.615376296698598  0.2861127494754064  0.9211658603172838  1.0000
  C   C186      1.0  0.597268692593444  0.28646043850209396  0.9399028210969145  1.0000
  H   H121      1.0  0.6767152580511874  0.24153863023961655  0.9668669762058896  1.0000
  H   H122      1.0  0.7096998726475596  0.2431756498922821  0.9338536847299092  1.0000
  H   H123      1.0  0.5981494816439304  0.29843956447229497  0.9084088169259539  1.0000
  H   H124      1.0  0.5663476938173259  0.2992385587549282  0.9414534302694529  1.0000
  C   C187      1.0  0.5342610044596098  0.20260222912636583  0.7956905151413366  1.0000
  C   C188      1.0  0.5676405546409917  0.19055172607268636  0.7840311546925423  1.0000
  C   C189      1.0  0.5957572587379594  0.22027115737630018  0.7770633823766856  1.0000
  C   C190      1.0  0.5913237394769674  0.26180137177565344  0.7822317481011526  1.0000
  C   C191      1.0  0.5581984526126775  0.27381511634419836  0.7940941545713528  1.0000
  C   C192      1.0  0.5294443577941947  0.24421905783520306  0.800702531346703  1.0000
  H   H125      1.0  0.5709733756303602  0.15860074385029083  0.7797765679711613  1.0000
  H   H126      1.0  0.6201128965392203  0.21098124231367837  0.7672762487545257  1.0000
  H   H127      1.0  0.5544460328398588  0.3059774722857025  0.7979994400804475  1.0000
  H   H128      1.0  0.5035183235367935  0.253547797569176  0.8097091636231819  1.0000
  C   C193      1.0  0.0025807862597015943  0.32184231408499864  0.9204449935089877  1.0000
  C   C194      1.0  0.9620859766610753  0.3326546824025656  0.925972914726174  1.0000
  C   C195      1.0  0.92903839269992  0.30591838639911817  0.9224436782945833  1.0000
  C   C196      1.0  0.9362951229086065  0.2680663528348831  0.9134606752349846  1.0000
  C   C197      1.0  0.977110208684193  0.25644035488205585  0.9085904025534338  1.0000
  C   C198      1.0  0.010322688138069804  0.2834586888387586  0.9119911128472113  1.0000
  H   H129      1.0  0.9559987289350964  0.3621490728151358  0.9326868843336538  1.0000
  H   H130      1.0  0.8977944869232722  0.3146305928059974  0.9266812428176288  1.0000
  H   H131      1.0  0.9827963346469397  0.22712120748774142  0.9016505562991419  1.0000
  H   H132      1.0  0.04159259435539697  0.2749629894738563  0.9076828747436269  1.0000
  C   C199      1.0  0.2652829627475315  0.3214576342447956  0.9687772257458832  1.0000
  C   C200      1.0  0.2932396315583578  0.33514753879932574  0.9830798071719596  1.0000
  C   C201      1.0  0.33316310693118156  0.3169814756918779  0.9850285633016155  1.0000
  C   C202      1.0  0.3447192362320856  0.2842819269153409  0.9730558312864318  1.0000
  C   C203      1.0  0.3163615486607354  0.26988568556979076  0.9590962232219072  1.0000
  C   C204      1.0  0.27684531512572236  0.288782862650129  0.9567846485742397  1.0000
  H   H133      1.0  0.2843322864359435  0.36034568810318174  0.9924179497639841  1.0000
  H   H134      1.0  0.3547259120907668  0.32786258907279864  0.9960109106678844  1.0000
  H   H135      1.0  0.32512452735149167  0.24448765431900552  0.9498558013102257  1.0000
  H   H136      1.0  0.2553032013608978  0.2779577928573828  0.9457672653910354  1.0000
  C   C205      1.0  0.2399083221402754  0.2545875232198779  0.8644533687840222  1.0000
  C   C206      1.0  0.2680964598285323  0.22598874046488648  0.8566653753301802  1.0000
  C   C207      1.0  0.29698917790256757  0.23913515945144034  0.8423767604511717  1.0000
  C   C208      1.0  0.2975297615904668  0.2808757422416074  0.8358490938191955  1.0000
  C   C209      1.0  0.26990617020077007  0.3095019241123071  0.843963829139616  1.0000
  C   C210      1.0  0.2411071747534185  0.2964008030723323  0.8581827887756994  1.0000
  H   H137      1.0  0.26769353259364687  0.19376915645403467  0.8617743849658406  1.0000
  H   H138      1.0  0.3187568288242385  0.2170647877213277  0.8364468926316799  1.0000
  H   H139      1.0  0.27023175492134505  0.34182767651061075  0.8389737132808766  1.0000
  H   H140      1.0  0.21933647489173685  0.31867295286135744  0.8640014763467022  1.0000
  C   C211      1.0  0.3806221118380122  0.5445660647815609  0.6067787419997248  1.0000
  C   C212      1.0  0.4190451674406928  0.5241131409844321  0.6094778239477426  1.0000
  C   C213      1.0  0.4431127234128758  0.5138905613384119  0.5931437615284109  1.0000
  C   C214      1.0  0.4283673247213168  0.5232325337312117  0.5740064321206667  1.0000
  C   C215      1.0  0.3892368865461421  0.542393659741769  0.5712422575241549  1.0000
  C   C216      1.0  0.36547647667773486  0.5532984006066136  0.5876114779069304  1.0000
  H   H141      1.0  0.43028537825440405  0.5162682254574066  0.6242069203049465  1.0000
  H   H142      1.0  0.47316715750255395  0.49867797615324366  0.5954142030825341  1.0000
  H   H143      1.0  0.37771709788659186  0.5498235052196804  0.5565719982006866  1.0000
  H   H144      1.0  0.33558034943597986  0.5688562350208186  0.5855008421564442  1.0000
  C   C217      1.0  0.551868453288893  0.48501136384556726  0.6448388408911746  1.0000
  C   C218      1.0  0.5343509240655951  0.5156392182007603  0.6320325176053393  1.0000
  C   C219      1.0  0.5597872669596051  0.5394443004867229  0.6194621860596332  1.0000
  C   C220      1.0  0.6028959580754257  0.5326695842789827  0.6197669055919686  1.0000
  C   C221      1.0  0.6200543625500077  0.5005699443777539  0.6318364374749994  1.0000
  C   C222      1.0  0.5945928335739711  0.47651197735976664  0.6442120336840716  1.0000
  H   H145      1.0  0.501260589739847  0.5212564597412401  0.6319196247715816  1.0000
  H   H146      1.0  0.5461619027645656  0.5640154590292175  0.6100904200319549  1.0000
  H   H147      1.0  0.6529260330004886  0.4940652678020851  0.6317025448894498  1.0000
  H   H148      1.0  0.6082893912736183  0.4523380046752953  0.6538213613974052  1.0000
  C   C223      1.0  0.36929318381149145  0.4113345496541811  0.7220715770916712  1.0000
  C   C224      1.0  0.3599627888611593  0.38789403140838397  0.7392505770865785  1.0000
  C   C225      1.0  0.3730614314350503  0.34603593007555306  0.7413699221005947  1.0000
  C   C226      1.0  0.3947935567680961  0.32735240473000415  0.7261293038618029  1.0000
  C   C227      1.0  0.40360852705570366  0.3507071807205859  0.7088938018998403  1.0000
  C   C228      1.0  0.39145260848411867  0.39268862223447193  0.7069953256494711  1.0000
  H   H149      1.0  0.34282229567634986  0.402110419955935  0.7509797806531543  1.0000
  H   H150      1.0  0.36610725371142944  0.32822543091353107  0.7547344820620545  1.0000
  H   H151      1.0  0.41944962132323016  0.33630470842942894  0.696843827716026  1.0000
  H   H152      1.0  0.39855265973324644  0.41033302254277293  0.6936648543670654  1.0000
  C   C229      1.0  0.6504833432399936  0.6239126705039102  0.06589795909659046  1.0000
  C   C230      1.0  0.6181471118610826  0.6533551495260848  0.06383276734050991  1.0000
  C   C231      1.0  0.6014627846478963  0.6715960577473726  0.08063060686105455  1.0000
  C   C232      1.0  0.6170350646468704  0.660484880357326  0.09950941661336939  1.0000
  C   C233      1.0  0.6486074538118499  0.630228144268978  0.10154963916514145  1.0000
  C   C234      1.0  0.6653480433058334  0.6120623551344033  0.08479416448870314  1.0000
  H   H153      1.0  0.6062435170534793  0.6624281835930984  0.04930843602144419  1.0000
  H   H154      1.0  0.5768579096953728  0.6948532351156441  0.07895690246206288  1.0000
  H   H155      1.0  0.6601016254368413  0.6206616452398483  0.1160129509822838  1.0000
  H   H156      1.0  0.6900230777271065  0.5888886141715889  0.08648009704412107  1.0000
  C   C235      1.0  0.6010073636226895  0.5077644466378887  0.9502728316777322  1.0000
  C   C236      1.0  0.5772509871489102  0.4948428191211832  0.9664520959164432  1.0000
  C   C237      1.0  0.5418507857956867  0.4707374201337079  0.9635825077325627  1.0000
  C   C238      1.0  0.5299405628189994  0.46003758799035704  0.9445306237225866  1.0000
  C   C239      1.0  0.552842014981583  0.4742439671948333  0.9282818208904194  1.0000
  C   C240      1.0  0.5887028411424046  0.49770784491769715  0.9311750621632864  1.0000
  H   H157      1.0  0.5867603702218852  0.5024517307720524  0.9812404182156088  1.0000
  H   H158      1.0  0.5236496601377489  0.4606190858821282  0.9761536218785519  1.0000
  H   H159      1.0  0.5435875580208743  0.46607212230681566  0.9135282687614741  1.0000
  H   H160      1.0  0.6068952623362421  0.5080138108458767  0.9186204405260577  1.0000
  C   C241      1.0  0.8335173850345263  0.6794197303695306  0.9516127968932412  1.0000
  C   C242      1.0  0.809371029187252  0.6948265898280378  0.9356214874372496  1.0000
  C   C243      1.0  0.7680049126289811  0.7077945997677376  0.9385079811988413  1.0000
  C   C244      1.0  0.7503391301714283  0.7047392035877565  0.9572981936940098  1.0000
  C   C245      1.0  0.7742104737900538  0.6886787298975992  0.973240722814788  1.0000
  C   C246      1.0  0.8158537440637761  0.6763709260875013  0.970422206664638  1.0000
  H   H161      1.0  0.8225380435164982  0.6965429287329713  0.9210230797296399  1.0000
  H   H162      1.0  0.749177773051735  0.7191644594646777  0.9261183722811767  1.0000
  H   H163      1.0  0.7607851014577207  0.6864362600497039  0.9878162502203266  1.0000
  H   H164      1.0  0.8343232068218273  0.6642368936995389  0.9828222309340429  1.0000
  C   C247      1.0  0.5431822371854131  0.8323162198153956  0.7943046534152823  1.0000
  C   C248      1.0  0.5832399116464133  0.8178936151808203  0.7899501288624123  1.0000
  C   C249      1.0  0.6158649058960072  0.8460665221271402  0.7874997545760624  1.0000
  C   C250      1.0  0.6087873441467098  0.8885555483203424  0.7900299525147575  1.0000
  C   C251      1.0  0.5688682684236095  0.9029042517061814  0.7947376906124315  1.0000
  C   C252      1.0  0.5359644295065261  0.8748738988318892  0.7966168302920498  1.0000
  H   H165      1.0  0.5888810177365904  0.785036706880435  0.7880630233774254  1.0000
  H   H166      1.0  0.6464758695212642  0.8347819141326671  0.7837809807482097  1.0000
  H   H167      1.0  0.563388988059707  0.9356928910649384  0.7968035154608156  1.0000
  H   H168      1.0  0.505276625086227  0.8861573370864172  0.800216035370762  1.0000
  C   C253      1.0  0.38387893099483994  0.0011809399415594335  0.7537399018099467  1.0000
  C   C254      1.0  0.3534654428757527  0.9962235196448107  0.7682406260045427  1.0000
  C   C255      1.0  0.3305620397068286  0.03093608255226621  0.7744118744788681  1.0000
  C   C256      1.0  0.33865921870592985  0.07073622875755863  0.7664167316553209  1.0000
  C   C257      1.0  0.36909923034087105  0.07553541691214614  0.7519162935541733  1.0000
  C   C258      1.0  0.39148534440558197  0.04082159946105013  0.7455166401723523  1.0000
  H   H169      1.0  0.34746313417418984  0.9657017497702367  0.7746918016232115  1.0000
  H   H170      1.0  0.3070191661785455  0.027014020865457893  0.7856092151341982  1.0000
  H   H171      1.0  0.3745374469581745  0.10586631154382546  0.7452007902728492  1.0000
  H   H172      1.0  0.41456914668661327  0.04472477364424532  0.7341126734655581  1.0000
  C   C259      1.0  0.37861853805347406  0.7325656841868791  0.7252392479980837  1.0000
  C   C260      1.0  0.41816455987390183  0.7276340961739409  0.73390506036486  1.0000
  C   C261      1.0  0.44493899677282506  0.6955414780994766  0.728062533497581  1.0000
  C   C262      1.0  0.4321473676345674  0.6680062869464488  0.7136984953526498  1.0000
  C   C263      1.0  0.3923712312428412  0.6725803302751915  0.7052129039750266  1.0000
  C   C264      1.0  0.36570080253772247  0.7049090737224178  0.7109350091555775  1.0000
  H   H173      1.0  0.42831277097974374  0.7486469163000042  0.7450467931546765  1.0000
  H   H174      1.0  0.4756303756323656  0.6920721241733235  0.7347216358855889  1.0000
  H   H175      1.0  0.38245994731286753  0.6517889108852982  0.6939520477697739  1.0000
  H   H176      1.0  0.33514682275732804  0.7086611711320431  0.7041719028807254  1.0000
  C   C265      1.0  0.2959303378152957  0.5125829712221139  0.9135612280262422  1.0000
  C   C266      1.0  0.27515185340418924  0.4788943907219692  0.9222362725428773  1.0000
  C   C267      1.0  0.24667272407855836  0.4566733591836663  0.9110932656991723  1.0000
  C   C268      1.0  0.23855780828187992  0.4685519469886107  0.8913553093504055  1.0000
  C   C269      1.0  0.25970857776907985  0.5019799973596171  0.8826321613109441  1.0000
  C   C270      1.0  0.2883775617618748  0.5240483668284043  0.8937515264748369  1.0000
  H   H177      1.0  0.28021642338695  0.4707236151030868  0.937707167045699  1.0000
  H   H178      1.0  0.2302691386753252  0.4310567101706607  0.9179644880052518  1.0000
  H   H179      1.0  0.25347832530526904  0.5112140980561789  0.8673648518236066  1.0000
  H   H180      1.0  0.30446767223039184  0.5501422564761587  0.8869973985073806  1.0000
  C   C271      1.0  0.14425846287661698  0.6876045068497221  0.9209276557917562  1.0000
  C   C272      1.0  0.10337537363189957  0.6924451922858291  0.9276863783587973  1.0000
  C   C273      1.0  0.06957383198134415  0.6934547965332649  0.9142988136554011  1.0000
  C   C274      1.0  0.07673221635402583  0.6900154971115509  0.8940973232390956  1.0000
  C   C275      1.0  0.11748035495302744  0.6841048449942317  0.8874272648528078  1.0000
  C   C276      1.0  0.15117588454094166  0.6828682662475746  0.9007860062459069  1.0000
  H   H181      1.0  0.0978612619690275  0.6959341862298628  0.9432786386407422  1.0000
  H   H182      1.0  0.038151263642348  0.6980085071766742  0.9195413049721509  1.0000
  H   H183      1.0  0.12288286364944478  0.6805965860315877  0.8718402904955608  1.0000
  H   H184      1.0  0.18252237131527718  0.679120085793445  0.8954183054484014  1.0000
  C   C277      1.0  0.42780206222790834  0.7184605099411736  0.9423786003361994  1.0000
  C   C278      1.0  0.40869261335670876  0.7049943085955481  0.9598421042086583  1.0000
  C   C279      1.0  0.43294997481364467  0.6893567965717912  0.9758063601769467  1.0000
  C   C280      1.0  0.476329461253856  0.6857285575097104  0.9741931802247502  1.0000
  C   C281      1.0  0.49559390140742243  0.6995644933199239  0.9567885854736884  1.0000
  C   C282      1.0  0.4713506447096426  0.7164198122636638  0.940976411406646  1.0000
  H   H185      1.0  0.37519146007100945  0.7071316362492304  0.9611479298658676  1.0000
  H   H186      1.0  0.41792852752679654  0.6792747706975804  0.9893349360839202  1.0000
  H   H187      1.0  0.5290703431707693  0.6972651416782848  0.9554995939428262  1.0000
  H   H188      1.0  0.4862784795004059  0.7269948907423343  0.9275184372193329  1.0000
  C   C283      1.0  0.29189353660621686  0.7225802448966739  0.8430168863700968  1.0000
  C   C284      1.0  0.30976793367174654  0.750652776344083  0.8557800177902947  1.0000
  C   C285      1.0  0.316009817004098  0.7918921767938095  0.8495021959311371  1.0000
  C   C286      1.0  0.30657497641144904  0.8045398005751697  0.8300448886138462  1.0000
  C   C287      1.0  0.2907275190646402  0.7760237219134455  0.8168839682959572  1.0000
  C   C288      1.0  0.2827623323336905  0.7351238175650504  0.8234682207636114  1.0000
  H   H189      1.0  0.31921182221475614  0.7405815671035366  0.8704435733535616  1.0000
  H   H190      1.0  0.3291381260276841  0.8137115946908119  0.8595702909689235  1.0000
  H   H191      1.0  0.2839434848798569  0.7857109137272279  0.8017244069141589  1.0000
  H   H192      1.0  0.2692748869490561  0.71336084745877  0.8134797589650252  1.0000
  N   N1        1.0  0.7383234387573281  0.7255547455248463  0.10102732646710355  1.0000
  C   C289      1.0  0.7705904188335306  0.7578697954519215  0.10089714176898079  1.0000
  C   C290      1.0  0.7568611231447304  0.6855651498325426  0.1083765395345917  1.0000
  C   C291      1.0  0.7217014260535541  0.7208423014502151  0.08080437499542326  1.0000
  C   C292      1.0  0.7041300419513103  0.7379195064082098  0.11413861391611935  1.0000
  H   H193      1.0  0.7836374893428926  0.761888268994775  0.11603406889213685  1.0000
  H   H194      1.0  0.7576545203816211  0.7885570358838475  0.09556529667828362  1.0000
  H   H195      1.0  0.7969510525029448  0.749636256302009  0.09115262987026229  1.0000
  H   H196      1.0  0.7334819309590744  0.6603215013921541  0.10848445103536108  1.0000
  H   H197      1.0  0.7830702991442535  0.6754638784820509  0.09895610046086434  1.0000
  H   H198      1.0  0.7691926539530043  0.6878830530492142  0.12374128557079755  1.0000
  H   H199      1.0  0.6967961858938254  0.6971093795611496  0.08054583553337147  1.0000
  H   H200      1.0  0.7463939404551194  0.7107132665039066  0.07052147376594609  1.0000
  H   H201      1.0  0.7077298012846803  0.750465238069607  0.07468638445277165  1.0000
  H   H202      1.0  0.6797471588245093  0.7138231176300947  0.1149631808380509  1.0000
  H   H203      1.0  0.6886186868818072  0.7674088247179274  0.10882361584538724  1.0000
  H   H204      1.0  0.7155691209476294  0.742423124947944  0.12946556963739875  1.0000
  N   N2        1.0  0.6563737563504444  0.6870066980305923  0.4452476726708972  1.0000
  C   C293      1.0  0.6989251377453943  0.6875583354169579  0.4370997554237091  1.0000
  C   C294      1.0  0.6298640997755323  0.7179394300467584  0.43419877464119905  1.0000
  C   C295      1.0  0.6580937117864895  0.6974912220536229  0.46630235137146037  1.0000
  C   C296      1.0  0.638688974734308  0.6451042269137824  0.4434361998302393  1.0000
  H   H205      1.0  0.6990565058862254  0.6789275750338625  0.4213540894351262  1.0000
  H   H206      1.0  0.7202484236582348  0.66558350493978  0.44548526533535787  1.0000
  H   H207      1.0  0.7126470159833865  0.7190626716937347  0.4378452943698898  1.0000
  H   H208      1.0  0.6424729662774332  0.7498951267533199  0.43522798400149154  1.0000
  H   H209      1.0  0.6279540469349058  0.7110548101571457  0.4182225901308072  1.0000
  H   H210      1.0  0.5974794853119372  0.7184828881814669  0.4399336962597275  1.0000
  H   H211      1.0  0.6266328342787976  0.6969039224376444  0.47304083566176053  1.0000
  H   H212      1.0  0.6711878922323187  0.7290203351696981  0.4682305932772667  1.0000
  H   H213      1.0  0.6780917146368056  0.6748334342995778  0.475026023675636  1.0000
  H   H214      1.0  0.6578261536162249  0.6211147561900163  0.4517324886718605  1.0000
  H   H215      1.0  0.6370151317234551  0.6359282196112929  0.4277756454829465  1.0000
  H   H216      1.0  0.6066154185750526  0.6435709323002569  0.44951642788536517  1.0000
  N   N3        1.0  0.04207812321736504  0.48275964630744506  0.284736584111321  1.0000
  C   C297      1.0  0.07297240502965785  0.45500593081129553  0.2950183233832083  1.0000
  C   C298      1.0  0.0352144022222578  0.4687140790539198  0.2644271643316239  1.0000
  C   C299      1.0  0.05770781446482376  0.5258111515527945  0.2839143102910429  1.0000
  C   C300      1.0  0.002371773312768166  0.48154089040438863  0.2955701302034409  1.0000
  H   H217      1.0  0.07935361443830602  0.4648720861861887  0.3103186882656964  1.0000
  H   H218      1.0  0.1032452823497858  0.45515403125264464  0.28724392006346156  1.0000
  H   H219      1.0  0.06228137014747559  0.42223406705346006  0.2959306240718849  1.0000
  H   H220      1.0  0.022837712321287063  0.43655612189870413  0.26442390577457964  1.0000
  H   H221      1.0  0.012440584258099241  0.48943517331623543  0.25618668542399237  1.0000
  H   H222      1.0  0.0647079432869726  0.4685954230856013  0.255936974873206  1.0000
  H   H223      1.0  0.08774534927707123  0.5278077188875974  0.2758761401678571  1.0000
  H   H224      1.0  0.06342220798268206  0.5374661526831167  0.2989589657931139  1.0000
  H   H225      1.0  0.035030270408050734  0.5476041568983302  0.2762389180183213  1.0000
  H   H226      1.0  0.978873325981947  0.5033009851691803  0.2886121192478702  1.0000
  H   H227      1.0  0.006643493666154354  0.4907710223406806  0.31111901243947987  1.0000
  H   H228      1.0  0.9888621755419575  0.44983860442767837  0.29577173386834166  1.0000
  N   N4        1.0  0.7375376227152372  0.4771393142741231  0.22654211485425058  1.0000
  C   C301      1.0  0.7012286002012659  0.5057188234066547  0.22739951557266813  1.0000
  C   C302      1.0  0.7714821245400204  0.49261024697984673  0.23910890460916362  1.0000
  C   C303      1.0  0.7519984876256717  0.4749956881486521  0.20594317794601236  1.0000
  C   C304      1.0  0.725294390571149  0.43523707614203977  0.23372042092137077  1.0000
  H   H229      1.0  0.6755719893536964  0.49588627279332964  0.21748026528037923  1.0000
  H   H230      1.0  0.7095925302950025  0.5379213898789957  0.2225492072483044  1.0000
  H   H231      1.0  0.688778609727447  0.5070277491534653  0.24261668129990968  1.0000
  H   H232      1.0  0.7812640824739187  0.5242848662270682  0.23411599260262062  1.0000
  H   H233      1.0  0.761965211854821  0.4940360025390556  0.2548204166958716  1.0000
  H   H234      1.0  0.7995791426739423  0.47212004240944516  0.23875323015619035  1.0000
  H   H235      1.0  0.7792290523366435  0.4534221153535914  0.2047497359103846  1.0000
  H   H236      1.0  0.7613293784725154  0.5060738149449399  0.19992599603043743  1.0000
  H   H237      1.0  0.7271463308933277  0.46345976346632295  0.1960146193113241  1.0000
  H   H238      1.0  0.7154665406880708  0.4351353924690208  0.24941406829020418  1.0000
  H   H239      1.0  0.7515372256548241  0.4126791355807943  0.2326801499836993  1.0000
  H   H240      1.0  0.6992671664700164  0.42305990315301784  0.22468648392701504  1.0000
  N   N5        1.0  0.9643854644658645  0.22254524618904903  0.2527249730169948  1.0000
  C   C305      1.0  0.9468662069154659  0.254327510373999  0.2655976924584216  1.0000
  C   C306      1.0  0.9756427056004723  0.18489177455387668  0.26480772431362404  1.0000
  C   C307      1.0  0.0019127205539464232  0.23904729989902895  0.2428815331282364  1.0000
  C   C308      1.0  0.932897546755921  0.21223633778571868  0.23765919444252323  1.0000
  H   H241      1.0  0.937486517893582  0.28265592892930813  0.25676800001769257  1.0000
  H   H242      1.0  0.969909184179432  0.263826889433244  0.27691583890209714  1.0000
  H   H243      1.0  0.9186300303301326  0.24299904956545754  0.2734170557560705  1.0000
  H   H244      1.0  0.9478794354986959  0.17192229420495678  0.27245450314357245  1.0000
  H   H245      1.0  0.9889768432004028  0.1601231728727193  0.2555868802470734  1.0000
  H   H246      1.0  0.999242103685724  0.19192083067838767  0.2763472784962253  1.0000
  H   H247      1.0  0.9940756652693216  0.2667035228708485  0.2331274070332675  1.0000
  H   H248      1.0  0.01687502844779387  0.2155119061300308  0.23350435921517967  1.0000
  H   H249      1.0  0.025563909079571623  0.24915874136729257  0.25381015638903387  1.0000
  H   H250      1.0  0.9035119953542524  0.2011838056349041  0.24460242951414396  1.0000
  H   H251      1.0  0.9445037550908856  0.18764409196237983  0.22787580031616628  1.0000
  H   H252      1.0  0.9245508490295546  0.24002765312234656  0.22807365179250147  1.0000
  N   N6        1.0  0.3636807665449779  0.3863791959511556  0.922208120805036  1.0000
  C   C309      1.0  0.3805631378720595  0.4259254580615558  0.9290908312737602  1.0000
  C   C310      1.0  0.3497162651291026  0.3917979901111732  0.9014040652104182  1.0000
  C   C311      1.0  0.3280259204179414  0.3739482257306051  0.9345641998229044  1.0000
  C   C312      1.0  0.3964711988163165  0.35367008620819657  0.923885790228419  1.0000
  H   H253      1.0  0.3920768528663276  0.4226837369601321  0.944629534514869  1.0000
  H   H254      1.0  0.3566464263586308  0.45122033675867956  0.928435933670159  1.0000
  H   H255      1.0  0.40714638872511455  0.43651437343389754  0.9198705497347006  1.0000
  H   H256      1.0  0.3360060341255184  0.3627344423640595  0.8958460975403576  1.0000
  H   H257      1.0  0.325386161354903  0.4167324809118771  0.8996288938760013  1.0000
  H   H258      1.0  0.37596900281311685  0.4005207561599657  0.8915685757371831  1.0000
  H   H259      1.0  0.31511882376546585  0.34380266810164556  0.929991868668626  1.0000
  H   H260      1.0  0.30216447921480605  0.397234148945465  0.9335099892988952  1.0000
  H   H261      1.0  0.33726147045317467  0.3703878728114302  0.9503931674818336  1.0000
  H   H262      1.0  0.3851316979131949  0.32351617969848834  0.918472589961115  1.0000
  H   H263      1.0  0.40671363945809974  0.34817445029682687  0.9395294847448346  1.0000
  H   H264      1.0  0.42453961239113275  0.3625231811187168  0.9152644746200961  1.0000
  N   N7        1.0  0.3693689942249691  0.34486790233739645  0.26854252797783784  1.0000
  C   C313      1.0  0.39312789919842867  0.32200858854741615  0.2843575312483712  1.0000
  C   C314      1.0  0.3633783895677193  0.38862118708124577  0.2740296148424664  1.0000
  C   C315      1.0  0.3283705055949825  0.32529727741488657  0.26597984527464585  1.0000
  C   C316      1.0  0.3925050110688249  0.3435896475565193  0.2498092330428962  1.0000
  H   H265      1.0  0.3980054389489296  0.2887967309099688  0.2808055754894457  1.0000
  H   H266      1.0  0.37631238612473206  0.3225912012750491  0.2986818533865962  1.0000
  H   H267      1.0  0.42422258668215385  0.33592439975778715  0.28675752841584506  1.0000
  H   H268      1.0  0.3453113861686346  0.4067419599327728  0.26250243115144006  1.0000
  H   H269      1.0  0.3461052460865159  0.3907839495977255  0.28814417107417584  1.0000
  H   H270      1.0  0.3936682258069329  0.40438735837450385  0.27601902201326284  1.0000
  H   H271      1.0  0.30919109992639066  0.3422240396458078  0.2545016127226029  1.0000
  H   H272      1.0  0.31023344475974557  0.3251081850542498  0.27987557099096744  1.0000
  H   H273      1.0  0.3315730667545  0.2925099122319328  0.2614619147709855  1.0000
  H   H274      1.0  0.39773910920098715  0.31108821728303704  0.2451869480699423  1.0000
  H   H275      1.0  0.4234409579302134  0.3585314529106213  0.25104765394065254  1.0000
  H   H276      1.0  0.37507346400145697  0.3603480928968411  0.237610409900633  1.0000
  N   N8        1.0  0.595112073380338  0.5354604668300118  0.548303930614661  1.0000
  C   C317      1.0  0.5598848950961748  0.5537475653140126  0.536613118166907  1.0000
  C   C318      1.0  0.5790172299252848  0.5140551513232048  0.566261045060464  1.0000
  C   C319      1.0  0.6236229335417174  0.5687890482932498  0.5540105594427482  1.0000
  C   C320      1.0  0.6179470270084181  0.5053409079547792  0.5362813275984563  1.0000
  H   H277      1.0  0.5411138140656145  0.5755379785264645  0.5454545301319746  1.0000
  H   H278      1.0  0.5384459168194187  0.529293566851871  0.5315160142624076  1.0000
  H   H279      1.0  0.5710420630377533  0.5712169576631588  0.5232872395771022  1.0000
  H   H280      1.0  0.5617824014873698  0.5360500659446452  0.5756642931325902  1.0000
  H   H281      1.0  0.5570353921122713  0.4889452122199331  0.5625551604297906  1.0000
  H   H282      1.0  0.6047403409905673  0.5000858887795289  0.5755659647322042  1.0000
  H   H283      1.0  0.6506686549628516  0.5560020368487579  0.5628118475408553  1.0000
  H   H284      1.0  0.6076784671408005  0.5918113579033341  0.563364362357022  1.0000
  H   H285      1.0  0.6361592193876635  0.5858221036482896  0.5408126602001391  1.0000
  H   H286      1.0  0.6449863927195213  0.49118830749407555  0.5446031335748567  1.0000
  H   H287      1.0  0.6302141492173852  0.5206325260853483  0.522562181766522  1.0000
  H   H288      1.0  0.597422308203294  0.4796992594385601  0.5317362200007658  1.0000
  N   N9        1.0  0.4466085577755677  0.7743754896381106  0.8524749311078519  1.0000
  C   C321      1.0  0.4799433419897834  0.8040590222226119  0.85679545762728  1.0000
  C   C322      1.0  0.4177993138436365  0.7934216481301463  0.837512754550893  1.0000
  C   C323      1.0  0.4235008604065567  0.7639982366714759  0.870729350746733  1.0000
  C   C324      1.0  0.46525260071204744  0.7360372198893556  0.8447107575816769  1.0000
  H   H289      1.0  0.502281376109802  0.7908625786552408  0.8680872975899299  1.0000
  H   H290      1.0  0.4668671463060718  0.8335334644250892  0.8624591866238682  1.0000
  H   H291      1.0  0.49802792172020044  0.8122236993328951  0.8432507516992627  1.0000
  H   H292      1.0  0.40201836122386914  0.8218090126837044  0.842951256184283  1.0000
  H   H293      1.0  0.434584723246588  0.8029200204624559  0.823857709426525  1.0000
  H   H294      1.0  0.3932329335245002  0.7713316635662798  0.8331925339064483  1.0000
  H   H295      1.0  0.39849440330801533  0.7412005992985483  0.868021693930432  1.0000
  H   H296      1.0  0.4084107315253668  0.7920302878557877  0.8768937165269991  1.0000
  H   H297      1.0  0.44431683085156887  0.7500408445452086  0.8825025798525614  1.0000
  H   H298      1.0  0.4408940586472668  0.713075873729789  0.8411566105152131  1.0000
  H   H299      1.0  0.48729888971716856  0.7208282687401293  0.8555755362429159  1.0000
  H   H300      1.0  0.482808951639036  0.7428134770646319  0.8308812598566123  1.0000
  N   N10       1.0  0.8304962157496948  0.42746912521504904  0.6501411298009316  1.0000
  C   C325      1.0  0.8262761584696681  0.39302063916579816  0.6649675918752642  1.0000
  C   C326      1.0  0.7987600610127061  0.423503949098841  0.6343842321557664  1.0000
  C   C327      1.0  0.8724525384381681  0.42591006884899985  0.6413858502289647  1.0000
  C   C328      1.0  0.8245263173446931  0.46760651453798574  0.6597894753334012  1.0000
  H   H301      1.0  0.8503037436840486  0.3944762578765628  0.6768575917327897  1.0000
  H   H302      1.0  0.8291397125082418  0.36211037576991945  0.6581700081997812  1.0000
  H   H303      1.0  0.7954104209526159  0.3941878110862429  0.6722606963226201  1.0000
  H   H304      1.0  0.8010083673725891  0.44916628470715353  0.6229891736738005  1.0000
  H   H305      1.0  0.8023599910633318  0.39362628666028326  0.6267389051175372  1.0000
  H   H306      1.0  0.7666878128375145  0.42455864018569195  0.6404203925160982  1.0000
  H   H307      1.0  0.8763774913931275  0.45156495943302766  0.6300925709087796  1.0000
  H   H308      1.0  0.8780945098042193  0.3960330598583928  0.6339792816817693  1.0000
  H   H309      1.0  0.8972265302898679  0.42924385158375544  0.6527979064566846  1.0000
  H   H310      1.0  0.8284554141078035  0.49429512263270137  0.6491405032238865  1.0000
  H   H311      1.0  0.8472301762942525  0.47134339847661993  0.6720806822260984  1.0000
  H   H312      1.0  0.7928117661145793  0.4704645920444028  0.6660906774039789  1.0000
  N   N11       1.0  0.36637825406509045  0.6957605464171622  0.3482645418879829  1.0000
  C   C329      1.0  0.3251892380848862  0.6938501940530187  0.33842269758917515  1.0000
  C   C330      1.0  0.39134145098004275  0.658453531557632  0.34363520300930533  1.0000
  C   C331      1.0  0.36070486307096516  0.6974838294134447  0.3698596515039769  1.0000
  C   C332      1.0  0.38821270477542763  0.7333877435848054  0.34108564381160045  1.0000
  H   H313      1.0  0.3281874182713601  0.6942666073378604  0.3220711147741982  1.0000
  H   H314      1.0  0.3049339798922032  0.7206433790489961  0.3422669884931186  1.0000
  H   H315      1.0  0.30859442079024313  0.6648342924597411  0.34275466042563935  1.0000
  H   H316      1.0  0.3969836156826852  0.6570217864891803  0.3274716470354858  1.0000
  H   H317      1.0  0.42217812264723764  0.6581662889779658  0.3512688891986504  1.0000
  H   H318      1.0  0.3750400781649364  0.6293331910242874  0.34810838915302694  1.0000
  H   H319      1.0  0.39110284163670256  0.6994608106488448  0.3778192267313886  1.0000
  H   H320      1.0  0.3444282868458133  0.6695139653171259  0.37581396581846127  1.0000
  H   H321      1.0  0.3417448271863973  0.7253240183633857  0.3737674728395841  1.0000
  H   H322      1.0  0.37102217055992337  0.7620029458158036  0.3450778077676385  1.0000
  H   H323      1.0  0.3912811773469752  0.734331884736007  0.32471555419166426  1.0000
  H   H324      1.0  0.4199888224607166  0.7352093722812927  0.34767897796839653  1.0000
  N   N12       1.0  0.7135015856206438  0.8784148371342357  0.6766995012029371  1.0000
  C   C333      1.0  0.6939644509587176  0.9176203117748678  0.6830366381943788  1.0000
  C   C334      1.0  0.7143238881790819  0.8782429905247306  0.6548999483038724  1.0000
  C   C335      1.0  0.6892667841979221  0.8426023128209702  0.6842820348585179  1.0000
  C   C336      1.0  0.7566027198220006  0.8752306740974153  0.6845266862038447  1.0000
  H   H325      1.0  0.6615209956878639  0.9214792730612472  0.6773011388532559  1.0000
  H   H326      1.0  0.7119641939876282  0.9452470958686877  0.6779016403550759  1.0000
  H   H327      1.0  0.6927892654241041  0.9187734951240282  0.6994068602923512  1.0000
  H   H328      1.0  0.7290420818994068  0.8490785761892178  0.6496453828034717  1.0000
  H   H329      1.0  0.6823122398194097  0.8805020571260233  0.6484618567728703  1.0000
  H   H330      1.0  0.7324186020316888  0.9048435344563606  0.6487038721328782  1.0000
  H   H331      1.0  0.7018755447699052  0.812657307734131  0.6789092475567434  1.0000
  H   H332      1.0  0.6560487220370703  0.8450342465225673  0.6795108629000755  1.0000
  H   H333      1.0  0.6899241377857804  0.8401875245793478  0.7007209799125219  1.0000
  H   H334      1.0  0.7727474981430978  0.8465457048668265  0.6796998206159658  1.0000
  H   H335      1.0  0.7571103079739817  0.8746197687281464  0.7009425485454004  1.0000
  H   H336      1.0  0.7754672906567616  0.9023880511570543  0.6795793998788228  1.0000
  N   N13       1.0  0.48606008589574967  0.5637508691734231  0.18113972335400408  1.0000
  C   C337      1.0  0.4594508037316605  0.5353122605890951  0.17008953757488648  1.0000
  C   C338      1.0  0.5223005020713837  0.5404562891593309  0.18969841515985714  1.0000
  C   C339      1.0  0.46165310046434943  0.581904477015562  0.19719131593935474  1.0000
  C   C340      1.0  0.5008724768640952  0.5972318006495883  0.167590605306051  1.0000
  H   H337      1.0  0.43140183798864  0.5517268082615359  0.16375137844301374  1.0000
  H   H338      1.0  0.44840287426922565  0.5091959074355025  0.1797648882131482  1.0000
  H   H339      1.0  0.47657248391054513  0.5214402533352296  0.1576808536464458  1.0000
  H   H340      1.0  0.5436566819036612  0.56129351863175  0.19764848436895502  1.0000
  H   H341      1.0  0.5123542110409112  0.5155156239305736  0.20034581109865526  1.0000
  H   H342      1.0  0.5407686414494094  0.5254559018941152  0.1780267854863141  1.0000
  H   H343      1.0  0.43503197037865776  0.6012990247509574  0.1912848274135892  1.0000
  H   H344      1.0  0.48110440241130725  0.6022011306162045  0.2064125734863083  1.0000
  H   H345      1.0  0.4485090169427089  0.5573273159063468  0.20718256324242457  1.0000
  H   H346      1.0  0.4744135532736454  0.6153415199369907  0.16070056027537621  1.0000
  H   H347      1.0  0.5199072722716316  0.5844361274504574  0.1554637827185834  1.0000
  H   H348      1.0  0.520639886242873  0.6195179439836946  0.17550697493778986  1.0000
  N   N14       1.0  0.5378402310203433  0.3137828750464955  0.7247455128568147  1.0000
  C   C341      1.0  0.5441779876272805  0.2685834960759882  0.7284735376746299  1.0000
  C   C342      1.0  0.5128615717904265  0.32089062138738844  0.7064792735371369  1.0000
  C   C343      1.0  0.5786181067348366  0.33409576479285763  0.7224228550388867  1.0000
  C   C344      1.0  0.5155935096201648  0.3314241246122156  0.7416109859502344  1.0000
  H   H349      1.0  0.5636221028586503  0.2621471270124241  0.7419280070803783  1.0000
  H   H350      1.0  0.5600713752239403  0.2538871149879811  0.7159116615640728  1.0000
  H   H351      1.0  0.5139060384541028  0.25260657776267215  0.730766160406211  1.0000
  H   H352      1.0  0.5051175386573246  0.35449069313463943  0.7037861158737955  1.0000
  H   H353      1.0  0.5296675177470525  0.30985769207511765  0.6933193269064907  1.0000
  H   H354      1.0  0.4830102551413083  0.303858559038226  0.7073077037088398  1.0000
  H   H355      1.0  0.5748213022222204  0.36813637997524973  0.7193142603598927  1.0000
  H   H356      1.0  0.5966090997597991  0.3209971705830091  0.7100489138306912  1.0000
  H   H357      1.0  0.598160176103768  0.32983156709070227  0.7360109955088973  1.0000
  H   H358      1.0  0.48476423700559984  0.3165661453964705  0.7438221834841625  1.0000
  H   H359      1.0  0.5096859864892311  0.36540370199502975  0.7392926684385055  1.0000
  H   H360      1.0  0.5337449466110606  0.32652756081753515  0.7556213717366239  1.0000
  N   N15       1.0  0.35984096608085064  0.886732783367496  0.6978055359319599  1.0000
  C   C345      1.0  0.3418612767455604  0.8574630734947345  0.683807762047462  1.0000
  C   C346      1.0  0.33081934905336746  0.8921689990038487  0.7143267105272593  1.0000
  C   C347      1.0  0.36673501380007123  0.9275125102070184  0.6877470310632551  1.0000
  C   C348      1.0  0.4000063623279324  0.869707613949754  0.7055076010924406  1.0000
  H   H361      1.0  0.3629725164871399  0.8524120202216902  0.6711633994313498  1.0000
  H   H362      1.0  0.3113263606539033  0.8690680825515433  0.6777869272254917  1.0000
  H   H363      1.0  0.3365380488635916  0.8264337630005739  0.6911901526476042  1.0000
  H   H364      1.0  0.34365341950648376  0.9137060783542684  0.7253272244750723  1.0000
  H   H365      1.0  0.3002490680055615  0.9053109027894676  0.7091389891745488  1.0000
  H   H366      1.0  0.32466681741778664  0.8618937302077287  0.7221521363207715  1.0000
  H   H367      1.0  0.38020521350445075  0.950026996896355  0.6981617819913238  1.0000
  H   H368      1.0  0.337054942277549  0.9414178030096623  0.6817951462168654  1.0000
  H   H369      1.0  0.38871998192815715  0.924756530100878  0.6752550942713204  1.0000
  H   H370      1.0  0.4143463106761576  0.8908898045019268  0.7162437034714524  1.0000
  H   H371      1.0  0.4227957105722062  0.8652121976960252  0.6934909806427111  1.0000
  H   H372      1.0  0.3959258433116696  0.8388743184022665  0.7131867561463998  1.0000
  N   N16       1.0  0.5516412936575522  0.24578206866006586  0.1431666005578581  1.0000
  C   C349      1.0  0.5452305597423038  0.2632704714438731  0.1228672576720693  1.0000
  C   C350      1.0  0.5882261217661031  0.26518333853613857  0.15235629882489135  1.0000
  C   C351      1.0  0.5587637972465147  0.200382757498279  0.14248154300609336  1.0000
  C   C352      1.0  0.5142053062911417  0.254096096187366  0.1550035286236994  1.0000
  H   H373      1.0  0.572566604702311  0.2572755800697936  0.11337186432276987  1.0000
  H   H374      1.0  0.539899891349605  0.2975239461988442  0.12277126804219217  1.0000
  H   H375      1.0  0.5172102488448944  0.2500621104517207  0.11569262826621274  1.0000
  H   H376      1.0  0.5936108344005603  0.253112588905847  0.16779430523037572  1.0000
  H   H377      1.0  0.6171541075771326  0.25960600045494375  0.14388787295193162  1.0000
  H   H378      1.0  0.5839548139822438  0.2994253450991581  0.15324183874844655  1.0000
  H   H379      1.0  0.5634820046394999  0.18625184755529153  0.15758352928991745  1.0000
  H   H380      1.0  0.5868513261161766  0.19291499846206142  0.1337010309546219  1.0000
  H   H381      1.0  0.5317081188230898  0.18484518556942175  0.13562098168355144  1.0000
  H   H382      1.0  0.5181309315044742  0.24235618899995026  0.17056833832428178  1.0000
  H   H383      1.0  0.48590691680273923  0.23991281738455075  0.14857711479455232  1.0000
  H   H384      1.0  0.5075677873659601  0.2879141726430792  0.15550800083831595  1.0000
  N   N17       1.0  0.7147482667513846  0.7958483605599823  0.22589870123937617  1.0000
  C   C353      1.0  0.7107473633752853  0.8407091636977051  0.22962641492082037  1.0000
  C   C354      1.0  0.713823724811823  0.7897249125136948  0.20439014329008584  1.0000
  C   C355      1.0  0.6797951720584501  0.7734024828559111  0.2351941370566853  1.0000
  C   C356      1.0  0.754588228982346  0.7795022389604379  0.2343248152765203  1.0000
  H   H385      1.0  0.7111754304303276  0.8464626081928517  0.24572686017230955  1.0000
  H   H386      1.0  0.6810307969389484  0.8539723584038909  0.22335354098964708  1.0000
  H   H387      1.0  0.7368017129154513  0.8584268265133935  0.2228076164219028  1.0000
  H   H388      1.0  0.7178356215144407  0.756332438241136  0.20105115970656748  1.0000
  H   H389      1.0  0.6837170553125466  0.8005362756771589  0.19756976183189762  1.0000
  H   H390      1.0  0.7393684304728849  0.8066805131729691  0.1967491940393882  1.0000
  H   H391      1.0  0.6814424208665559  0.7395031290508823  0.23232518211548614  1.0000
  H   H392      1.0  0.6491506363728807  0.7851068826648286  0.22926800545819562  1.0000
  H   H393      1.0  0.6795558403880912  0.776758189341234  0.2514604993399382  1.0000
  H   H394      1.0  0.7585499922613796  0.7456699334840348  0.23177215362191614  1.0000
  H   H395      1.0  0.7566725958344718  0.783677019536687  0.2505222633557374  1.0000
  H   H396      1.0  0.7816899460941268  0.7955292051369502  0.2275302920881836  1.0000
  N   N18       1.0  0.2204411723345958  0.19142640916831294  0.7998140637263836  1.0000
  C   C357      1.0  0.22762198981159085  0.2361097873456698  0.8027879496461253  1.0000
  C   C358      1.0  0.1788490115896202  0.18028580974323205  0.8073135970263443  1.0000
  C   C359      1.0  0.25259296110738305  0.16620393304589703  0.8106533824548497  1.0000
  C   C360      1.0  0.22271555900018816  0.1829746151962186  0.7785420561867451  1.0000
  H   H397      1.0  0.2596587983017184  0.24527384485074383  0.798389522441145  1.0000
  H   H398      1.0  0.22398313346700002  0.24396515116946285  0.8185531201861413  1.0000
  H   H399      1.0  0.20532505855495756  0.256217788455926  0.794018727493174  1.0000
  H   H400      1.0  0.15379404343314818  0.1987781257747256  0.7994900764643665  1.0000
  H   H401      1.0  0.17249162008357358  0.14673610125669442  0.805364487592901  1.0000
  H   H402      1.0  0.17628688594828038  0.1862993703907063  0.8233755512435086  1.0000
  H   H403      1.0  0.2844394916973891  0.174937695172159  0.8059005217220253  1.0000
  H   H404      1.0  0.2494074330739805  0.13242662906419025  0.8079685350896407  1.0000
  H   H405      1.0  0.250813949273959  0.17030733203608495  0.8268323071988019  1.0000
  H   H406      1.0  0.19895126202477817  0.20131280727822398  0.7697903624065119  1.0000
  H   H407      1.0  0.21811227807022943  0.14939102708834498  0.7757968091004692  1.0000
  H   H408      1.0  0.2538195143515682  0.19087997116880107  0.7725034290203991  1.0000
  N   N19       1.0  0.9947913033002054  0.7347619556549134  0.3514931195177701  1.0000
  C   C361      1.0  0.9628812396414405  0.7670748130381377  0.35519944369077544  1.0000
  C   C362      1.0  0.9749077909695255  0.6989180974673792  0.34233467052575156  1.0000
  C   C363      1.0  0.014800296674938098  0.7208913982021798  0.37036323653753206  1.0000
  C   C364      1.0  0.026564725061113185  0.7521063306456026  0.33802200838578295  1.0000
  H   H409      1.0  0.9765092945399292  0.7943430431791251  0.3624465347382302  1.0000
  H   H410      1.0  0.9378201208350285  0.7548272645861006  0.36493593252106343  1.0000
  H   H411      1.0  0.9477750316143531  0.7787283193315822  0.34118410222429024  1.0000
  H   H412      1.0  0.9982445149282217  0.6745652900383814  0.3385733548982547  1.0000
  H   H413      1.0  0.9513527763874161  0.6842599761509404  0.3522096622357795  1.0000
  H   H414      1.0  0.9583759258661915  0.7085457244254375  0.32841054148610976  1.0000
  H   H415      1.0  0.030424578419736333  0.7470972983796491  0.37762001584211163  1.0000
  H   H416      1.0  0.03883256853130401  0.6962541676865033  0.36805556900708675  1.0000
  H   H417      1.0  0.9915480361550486  0.7078561870962418  0.380890171081467  1.0000
  H   H418      1.0  0.04174446339645543  0.7797501730937654  0.34419267383838925  1.0000
  H   H419      1.0  0.012670633883191892  0.7617652958502459  0.3234051296664416  1.0000
  H   H420      1.0  0.05150999192140837  0.7287306682332522  0.33510370364680314  1.0000
  N   N20       1.0  0.20379542352522464  0.8141446178439191  0.24513910622530705  1.0000
  C   C365      1.0  0.1601444685341512  0.801124293663438  0.24253632803829203  1.0000
  C   C366      1.0  0.22721759846167555  0.80654212113141  0.2269009845848783  1.0000
  C   C367      1.0  0.223166665664696  0.7898279928077685  0.2617391906479999  1.0000
  C   C368      1.0  0.20493938588656474  0.8588343630055802  0.24945909077632858  1.0000
  H   H421      1.0  0.1419621040341568  0.8044414642535859  0.2563220715594206  1.0000
  H   H422      1.0  0.15856181760628094  0.7678546201606732  0.23859308642348884  1.0000
  H   H423      1.0  0.1440183463628945  0.8196971361405249  0.2305284255414516  1.0000
  H   H424      1.0  0.260386302562437  0.8158331409537067  0.22840649348089723  1.0000
  H   H425      1.0  0.22722416634455458  0.7729003255286777  0.2233827238549598  1.0000
  H   H426      1.0  0.21346719596238595  0.8241974992958072  0.2139690602803261  1.0000
  H   H427      1.0  0.25612431263109425  0.7989089402441129  0.2641567698160056  1.0000
  H   H428      1.0  0.2232560650764336  0.7561132909572914  0.25882861063326984  1.0000
  H   H429      1.0  0.20619904677758769  0.794149169659882  0.2757822022267422  1.0000
  H   H430      1.0  0.23758719978684825  0.8692291568794916  0.2517614496906135  1.0000
  H   H431      1.0  0.18748189860629685  0.8654844245695517  0.26314289484834164  1.0000
  H   H432      1.0  0.19100895523142306  0.8783588810854176  0.23716325754586895  1.0000
  N   N21       1.0  0.49349934260013034  0.18026672262691026  0.9601797064810682  1.0000
  C   C369      1.0  0.49611529079682826  0.13436068374870333  0.9614088836398967  1.0000
  C   C370      1.0  0.45810542069024335  0.19366721780701143  0.9472292899938515  1.0000
  C   C371      1.0  0.5326351511434244  0.1969792453367118  0.9520197549005623  1.0000
  C   C372      1.0  0.48711210839749475  0.19623029855929006  0.9801247071974871  1.0000
  H   H433      1.0  0.5010212567781691  0.12125848603478505  0.9466016145247901  1.0000
  H   H434      1.0  0.46700429356051815  0.12084845498713868  0.9675204299187428  1.0000
  H   H435      1.0  0.5224627284764192  0.12335066545953387  0.9711429447488028  1.0000
  H   H436      1.0  0.4555109209827317  0.22821887311316438  0.9458826578489522  1.0000
  H   H437      1.0  0.4614144027952675  0.18181359968138944  0.9320860065069004  1.0000
  H   H438      1.0  0.427881887943284  0.1826152367517852  0.9532591844299562  1.0000
  H   H439      1.0  0.5315111521672526  0.23152527678552207  0.9508827428816868  1.0000
  H   H440      1.0  0.5388283707802491  0.18558004111449958  0.9369987635904707  1.0000
  H   H441      1.0  0.5600005935235043  0.18828780128541903  0.9616196949944961  1.0000
  H   H442      1.0  0.48438287580647943  0.23065109968354036  0.9795636648014027  1.0000
  H   H443      1.0  0.5135659026939694  0.1876741375250146  0.990283496618148  1.0000
  H   H444      1.0  0.45780803479167914  0.18445697474133077  0.9868201125575613  1.0000
  N   N22       1.0  0.3136641378507055  0.08755984978667541  0.3918088139426874  1.0000
  C   C373      1.0  0.3524282489932577  0.1095343110564948  0.38672039696976795  1.0000
  C   C374      1.0  0.2999469457531005  0.09942430493575061  0.4116268239033702  1.0000
  C   C375      1.0  0.32143099047359447  0.042130232321877514  0.39179665601997526  1.0000
  C   C376      1.0  0.2808841884418731  0.09934496235621149  0.37711288176970753  1.0000
  H   H445      1.0  0.36439749684076395  0.10056619296797353  0.37209873201059607  1.0000
  H   H446      1.0  0.37745808099449696  0.10254977884463479  0.3978285492453918  1.0000
  H   H447      1.0  0.3473931095803522  0.14384435104854876  0.38609632238246255  1.0000
  H   H448      1.0  0.32392774222525356  0.09099194889469597  0.4231090459129156  1.0000
  H   H449      1.0  0.29393068747417994  0.13360108885171829  0.412151324652085  1.0000
  H   H450      1.0  0.2706925936993459  0.08354295263207678  0.41594450954000517  1.0000
  H   H451      1.0  0.34637763841819663  0.03246384766505139  0.4025812857806599  1.0000
  H   H452      1.0  0.3315707177316967  0.031903705460324616  0.37705231045539095  1.0000
  H   H453      1.0  0.29308320046375963  0.0244213928392103  0.3959094324081736  1.0000
  H   H454      1.0  0.2511306357903133  0.08337626065437509  0.3804585594381436  1.0000
  H   H455      1.0  0.29031428262917897  0.09127682950050198  0.3619438520822881  1.0000
  H   H456      1.0  0.27431645485236905  0.13353399125200371  0.37689984444358077  1.0000
  N   N23       1.0  0.6924971650924197  0.3526776040279808  0.4627048368066657  1.0000
  C   C377      1.0  0.6587748007348252  0.3806268035660355  0.46925378638819315  1.0000
  C   C378      1.0  0.7332344780843539  0.36957294583957523  0.46852624769116946  1.0000
  C   C379      1.0  0.6902488016028974  0.3497377841987209  0.44099752163050226  1.0000
  C   C380      1.0  0.6876852703374098  0.31083068795634083  0.4720093113454131  1.0000
  H   H457      1.0  0.6275837531249866  0.36891466101318393  0.4650080849337336  1.0000
  H   H458      1.0  0.6617223298685591  0.41249305235450484  0.46240520620436465  1.0000
  H   H459      1.0  0.6595311304771323  0.38371545273549196  0.48555474890973305  1.0000
  H   H460      1.0  0.759595065598544  0.3507874319170371  0.46275955256250023  1.0000
  H   H461      1.0  0.7368002821499935  0.4020263265472589  0.46271707683626356  1.0000
  H   H462      1.0  0.7368864388567942  0.37033442131296895  0.484858600428224  1.0000
  H   H463      1.0  0.7166239796837105  0.3308630754000874  0.43531846669146296  1.0000
  H   H464      1.0  0.6912652688974575  0.3810361948920964  0.4335478958967496  1.0000
  H   H465      1.0  0.6608972987987421  0.3348973374398978  0.4361885352759427  1.0000
  H   H466      1.0  0.690404573168314  0.311482291543341  0.4883679122550561  1.0000
  H   H467      1.0  0.7118113021342942  0.2886759109454642  0.4667245304527103  1.0000
  H   H468      1.0  0.6568004810080728  0.2976007887542257  0.46836297996875464  1.0000
  N   N24       1.0  0.6889748179323344  0.2787206010072972  0.8299407598524283  1.0000
  C   C381      1.0  0.6429754891216631  0.28109272102181615  0.8291303986345943  1.0000
  C   C382      1.0  0.7050808975718671  0.3145314340356138  0.840587027875376  1.0000
  C   C383      1.0  0.7055125077979998  0.27957044021914407  0.8096642003118502  1.0000
  C   C384      1.0  0.7024148234526614  0.23966635326890265  0.8404020940212361  1.0000
  H   H469      1.0  0.6294879221487888  0.2814737950019453  0.8442048433965602  1.0000
  H   H470      1.0  0.6297587281022354  0.2539950620073131  0.8215599905563116  1.0000
  H   H471      1.0  0.6318350437436272  0.30960887429015427  0.8207737557872271  1.0000
  H   H472      1.0  0.696360977023053  0.3445902664165473  0.8329196134121449  1.0000
  H   H473      1.0  0.6928713826515376  0.3151048247348215  0.8558982493453461  1.0000
  H   H474      1.0  0.7396406621944795  0.31324983215149943  0.8416813986966735  1.0000
  H   H475      1.0  0.6974423733145313  0.30934238211652393  0.8015540035107969  1.0000
  H   H476      1.0  0.6925411694888244  0.25403354168230174  0.8009474342298932  1.0000
  H   H477      1.0  0.7400098585412161  0.2762301774291906  0.8096900341201291  1.0000
  H   H478      1.0  0.6907907879614773  0.2382193485420578  0.855850852052577  1.0000
  H   H479      1.0  0.7370236655361276  0.2368727673027306  0.841174845211751  1.0000
  H   H480      1.0  0.690590784146051  0.2119760971685764  0.8328312382770956  1.0000
  N   N25       1.0  0.5902964597915422  0.5589867822755831  0.6940183236235985  1.0000
  C   C385      1.0  0.6168610071350735  0.5232215541917319  0.6887220490144179  1.0000
  C   C386      1.0  0.61676711775817  0.5938419444245207  0.6998163565660236  1.0000
  C   C387      1.0  0.5633808897644241  0.5464687739671757  0.7106896762673758  1.0000
  C   C388      1.0  0.5639651383568418  0.5722990994305015  0.6768749987334474  1.0000
  H   H481      1.0  0.6377944016213011  0.5127763071129645  0.7011684628888614  1.0000
  H   H482      1.0  0.6370278852546745  0.5310607871272103  0.6758938921794935  1.0000
  H   H483      1.0  0.5977745274367245  0.49610883048795074  0.6846851790125155  1.0000
  H   H484      1.0  0.5975718218506519  0.6209267924803613  0.7043769501444157  1.0000
  H   H485      1.0  0.6379877019864155  0.5844867640908072  0.7123331308721161  1.0000
  H   H486      1.0  0.6366592743322471  0.6047384989119062  0.6874035464153609  1.0000
  H   H487      1.0  0.5416972769834401  0.5722131239352627  0.7146089818618075  1.0000
  H   H488      1.0  0.5821506341805424  0.5373677524309607  0.7240706064327029  1.0000
  H   H489      1.0  0.5440319316317491  0.519345073020937  0.7069291697042216  1.0000
  H   H490      1.0  0.544020490842726  0.599772518789269  0.6802073739280391  1.0000
  H   H491      1.0  0.542761315015422  0.5470739024662795  0.672589461069346  1.0000
  H   H492      1.0  0.5830941241036515  0.5805267060701046  0.6637185917806604  1.0000
  N   N26       1.0  0.44789030618834863  0.5657770265505556  0.9563147883729399  1.0000
  C   C389      1.0  0.43240616789764846  0.59576413319395  0.9408343720540974  1.0000
  C   C390      1.0  0.49344350330212466  0.5700920807246558  0.9587152219021013  1.0000
  C   C391      1.0  0.438376140249892  0.5230432516466327  0.9505481522237343  1.0000
  C   C392      1.0  0.42721246981865413  0.5741212583218034  0.9751938285497569  1.0000
  H   H493      1.0  0.3980054756921735  0.5940744165345941  0.9389226596855951  1.0000
  H   H494      1.0  0.44671686167618463  0.5898606174634595  0.926300065956121  1.0000
  H   H495      1.0  0.4396152979659254  0.6282560651973882  0.9445756150843649  1.0000
  H   H496      1.0  0.5018718890435633  0.6026373354160629  0.9619061967984748  1.0000
  H   H497      1.0  0.5057134202097004  0.5501108518058024  0.9712247964386247  1.0000
  H   H498      1.0  0.5103556827724959  0.5613895491945383  0.9451698122306228  1.0000
  H   H499      1.0  0.4501208601756417  0.4995629081677825  0.9617769114662349  1.0000
  H   H500      1.0  0.45291036221714065  0.5156783424308288  0.9362158269908449  1.0000
  H   H501      1.0  0.404227073192519  0.5186451700838848  0.9489033890348267  1.0000
  H   H502      1.0  0.4369130046833729  0.5510116116287391  0.9870041623473963  1.0000
  H   H503      1.0  0.3926602411150588  0.5731178213366178  0.973656171786062  1.0000
  H   H504      1.0  0.4353534426076426  0.6052577360917273  0.9805332095608983  1.0000
  N   N27       1.0  0.5163276789798077  0.0536780672327065  0.7720567703125202  1.0000
  C   C393      1.0  0.5257768965786528  0.05927653494314684  0.7931822529857364  1.0000
  C   C394      1.0  0.4948202525881419  0.01377203368402568  0.7697153415583325  1.0000
  C   C395      1.0  0.5555979762861208  0.05342818966117419  0.7608128876770481  1.0000
  C   C396      1.0  0.48905495593849135  0.08825533821874337  0.7645627168227823  1.0000
  H   H505      1.0  0.4967528710844342  0.060873732929571156  0.8020216604533453  1.0000
  H   H506      1.0  0.5425773977011747  0.08882667438375622  0.7954336528998065  1.0000
  H   H507      1.0  0.5455880340073976  0.03331735899592014  0.7994806130603942  1.0000
  H   H508      1.0  0.514279760364905  0.9868503905125381  0.7752735599473652  1.0000
  H   H509      1.0  0.46484305156911876  0.012981871646853936  0.7778651827522677  1.0000
  H   H510      1.0  0.48725504794036795  0.008474699248343322  0.7539412362776572  1.0000
  H   H511      1.0  0.5496819693168824  0.04925729402184638  0.7447982470261075  1.0000
  H   H512      1.0  0.5769480588333842  0.027717136575316378  0.766142125179536  1.0000
  H   H513      1.0  0.5726258697318645  0.08317015726736854  0.7621948834667881  1.0000
  H   H514      1.0  0.5043163057940778  0.11889551703467531  0.7660203175691641  1.0000
  H   H515      1.0  0.459385863142229  0.0896609012324917  0.7729426572640293  1.0000
  H   H516      1.0  0.4807600076150149  0.08492179651045396  0.7487292499609488  1.0000
  N   N28       1.0  0.0887630369278776  0.31449812080218387  0.9805062339964349  1.0000
  C   C397      1.0  0.10027561034302157  0.354304528090101  0.9706699462631002  1.0000
  C   C398      1.0  0.0685577381296158  0.32285998779679875  0.9994883193415663  1.0000
  C   C399      1.0  0.1267599276980527  0.28870602975428267  0.9841654164607097  1.0000
  C   C400      1.0  0.05951756799477352  0.29235695378755966  0.9676802205575241  1.0000
  H   H517      1.0  0.07246831496484474  0.3745529040218988  0.9673841106267704  1.0000
  H   H518      1.0  0.11560099273371328  0.3488443665069176  0.9563986585512732  1.0000
  H   H519      1.0  0.12270900249045325  0.37182224164360766  0.9797460925122236  1.0000
  H   H520      1.0  0.05940978267294022  0.29347177295544624  0.007330001698271582  1.0000
  H   H521      1.0  0.08982429810404868  0.33963503454493205  0.009467476311139311  1.0000
  H   H522      1.0  0.03988298118578659  0.3424154294169941  0.9972151976811974  1.0000
  H   H523      1.0  0.14292727877130548  0.28193554884238325  0.9701563475921445  1.0000
  H   H524      1.0  0.11952167218963468  0.258406879584784  0.9916555888158998  1.0000
  H   H525      1.0  0.14981187835299423  0.3048966923636512  0.9934966576129957  1.0000
  H   H526      1.0  0.030682362421510453  0.31119663787456026  0.9644726774730834  1.0000
  H   H527      1.0  0.05009637033154224  0.26206307897543646  0.9745317824019105  1.0000
  H   H528      1.0  0.0735806551608924  0.28589435684587583  0.9531329507616673  1.0000
  N   N29       1.0  0.8847893918629369  0.5831447498507483  0.5289440348237123  1.0000
  C   C401      1.0  0.8994236056665558  0.5683628478360195  0.5487472750334864  1.0000
  C   C402      1.0  0.8732945929508079  0.5470631488297494  0.5172132215696654  1.0000
  C   C403      1.0  0.9182428369173761  0.6062959746005464  0.518773406841594  1.0000
  C   C404      1.0  0.84807188368516  0.61086140265321  0.5309917655184305  1.0000
  H   H529      1.0  0.9081126334898327  0.5947122635711941  0.5581114480269629  1.0000
  H   H530      1.0  0.9270354830661183  0.547239339538619  0.5478277270908684  1.0000
  H   H531      1.0  0.8747376145014009  0.5507276199242999  0.5566906425096506  1.0000
  H   H532      1.0  0.8473972607121227  0.5294182959261844  0.5241210060789856  1.0000
  H   H533      1.0  0.8629997717635575  0.5570053101272556  0.5020338546994716  1.0000
  H   H534      1.0  0.899933590124194  0.5249286423923828  0.5157329022228743  1.0000
  H   H535      1.0  0.9078090717931475  0.6179523694960162  0.50379871930349  1.0000
  H   H536      1.0  0.9463323581863984  0.5862683837287173  0.5167780687833657  1.0000
  H   H537      1.0  0.9277982397252353  0.6337744963217505  0.5271740467911338  1.0000
  H   H538      1.0  0.8360590207464134  0.6224114728389948  0.5162888416770797  1.0000
  H   H539      1.0  0.8557164922811488  0.6385947572613451  0.539632853110217  1.0000
  H   H540      1.0  0.8222620177310213  0.5944781455811489  0.5387243426203614  1.0000
  N   N30       1.0  0.33697815881275395  0.4165360664784202  0.5579312175208127  1.0000
  C   C405      1.0  0.32216291476436015  0.37564217529525135  0.5516883252116359  1.0000
  C   C406      1.0  0.3055866505298559  0.44899587232521665  0.5523133963142883  1.0000
  C   C407      1.0  0.3766345493565029  0.42596699320625914  0.548007587971236  1.0000
  C   C408      1.0  0.34365826573032143  0.4157053618391826  0.5795673090826344  1.0000
  H   H541      1.0  0.2921895645247953  0.36737171614111236  0.5588212782237898  1.0000
  H   H542      1.0  0.3452121866041725  0.3503771161947148  0.5554975748262858  1.0000
  H   H543      1.0  0.3169291803646751  0.3755437387602291  0.5353725934259245  1.0000
  H   H544      1.0  0.2751807502977465  0.44288137073082984  0.5595153602300658  1.0000
  H   H545      1.0  0.31586403595280516  0.48033322398717054  0.5566861964630584  1.0000
  H   H546      1.0  0.29985879645922026  0.4504207909427298  0.5360302321247423  1.0000
  H   H547      1.0  0.37238711237824423  0.4275113633890525  0.5317067305232963  1.0000
  H   H548      1.0  0.4010247029479425  0.4018944158400753  0.5516208613294131  1.0000
  H   H549      1.0  0.3890116663787832  0.456362134553859  0.5524839830273409  1.0000
  H   H550      1.0  0.36733119445127854  0.3916759346231749  0.5843117391330591  1.0000
  H   H551      1.0  0.3143621405288118  0.40877061161516354  0.5876075319627951  1.0000
  H   H552      1.0  0.3550115663596148  0.4462302328747087  0.5846476164413372  1.0000
  N   N31       1.0  0.40114285947340694  0.661814165627962  0.5418979884742331  1.0000
  C   C409      1.0  0.36200005079204195  0.6384471685774497  0.540390454102992  1.0000
  C   C410      1.0  0.4145366612066469  0.6755729549298278  0.5219266208165608  1.0000
  C   C411      1.0  0.4337904790646231  0.6346963448225615  0.5512996587183304  1.0000
  C   C412      1.0  0.3940695869453741  0.6985741231812076  0.5539933288640679  1.0000
  H   H553      1.0  0.3368979575020335  0.6575425985475694  0.5328749768396549  1.0000
  H   H554      1.0  0.3505133289598712  0.6281083228319078  0.5551764133094056  1.0000
  H   H555      1.0  0.3663300621175829  0.6102995064309661  0.5315157136054488  1.0000
  H   H556      1.0  0.42044917431643763  0.6486664296836874  0.5124112030144176  1.0000
  H   H557      1.0  0.3901226106769458  0.6952014346422017  0.5141833196822121  1.0000
  H   H558      1.0  0.443609578220421  0.6939059552907306  0.5224002505140909  1.0000
  H   H559      1.0  0.4639942312167554  0.6510159514331498  0.55239655853503  1.0000
  H   H560      1.0  0.4392487105027731  0.6061539019462928  0.5427705857733246  1.0000
  H   H561      1.0  0.4249285728706285  0.6242448146457076  0.5665164857648467  1.0000
  H   H562      1.0  0.42295286643489743  0.717002833627655  0.555460918706908  1.0000
  H   H563      1.0  0.38379914322383885  0.6893111453165434  0.5691539506797268  1.0000
  H   H564      1.0  0.3695273582319016  0.7195731581967276  0.5472656005546358  1.0000
  N   N32       1.0  0.13891947044701625  0.5522836239097715  0.9098789330027532  1.0000
  C   C413      1.0  0.09812826047210566  0.5736027060148506  0.9117939845431783  1.0000
  C   C414      1.0  0.1674875867901784  0.5653372981245371  0.9256870103169721  1.0000
  C   C415      1.0  0.156849058952782  0.5633703455800013  0.8904236856750846  1.0000
  C   C416      1.0  0.13329002481671703  0.5067868943239194  0.9115901576433009  1.0000
  H   H565      1.0  0.07592786120954642  0.5649193740174457  0.8999514643888752  1.0000
  H   H566      1.0  0.10134898832439698  0.6079477249600338  0.9107187576937085  1.0000
  H   H567      1.0  0.08358562521967139  0.5659829942672299  0.9262829964105355  1.0000
  H   H568      1.0  0.19883584820538625  0.5502991048765844  0.9244784477649224  1.0000
  H   H569      1.0  0.1720309026009943  0.5996142594747551  0.925016435005184  1.0000
  H   H570      1.0  0.15526441635729715  0.5571408646760901  0.9405972739008837  1.0000
  H   H571      1.0  0.1877055266652774  0.5479353436201962  0.888527187487628  1.0000
  H   H572      1.0  0.1614572754877175  0.5974929234325467  0.888587089134771  1.0000
  H   H573      1.0  0.1363954138803003  0.5536649017619029  0.8781045575831263  1.0000
  H   H574      1.0  0.1636330934159076  0.4898878008840799  0.9108027180445455  1.0000
  H   H575      1.0  0.11334961465482118  0.4954798551322215  0.8994187685877323  1.0000
  H   H576      1.0  0.11877065315667945  0.4972922309577552  0.9258506837434655  1.0000
  N   N33       1.0  0.7677034711056389  0.5643951348604965  0.9372996864153713  1.0000
  C   C417      1.0  0.8101811824064128  0.5746993083799182  0.9307909523966945  1.0000
  C   C418      1.0  0.7589188453788129  0.5207222655759501  0.9328734828266955  1.0000
  C   C419      1.0  0.7372085319598404  0.5922627676233672  0.9268009066394935  1.0000
  C   C420      1.0  0.7645413317753369  0.5698574719518643  0.9587792504294207  1.0000
  H   H577      1.0  0.8144353657764732  0.5686281781754773  0.9148661760224238  1.0000
  H   H578      1.0  0.8342804906014384  0.5563499645016927  0.9393128893962124  1.0000
  H   H579      1.0  0.8170448320529701  0.6079207971740359  0.9329285345669911  1.0000
  H   H580      1.0  0.780550656274238  0.49896169404586527  0.9411400506969262  1.0000
  H   H581      1.0  0.7266513987607768  0.5123253242332654  0.9370656253594927  1.0000
  H   H582      1.0  0.7624981416772632  0.5149344614173812  0.916868222912048  1.0000
  H   H583      1.0  0.7047411114338071  0.5853998292016662  0.9313816399037291  1.0000
  H   H584      1.0  0.7389536556574589  0.5891412617542945  0.9105295970075774  1.0000
  H   H585      1.0  0.7427682592930405  0.6254471302250092  0.9300151512902414  1.0000
  H   H586      1.0  0.7692965791713904  0.6028417909940463  0.962581243758652  1.0000
  H   H587      1.0  0.7882554788415743  0.5506511636738254  0.9671571901982741  1.0000
  H   H588      1.0  0.7333763830970644  0.5605322756034843  0.9642478432770146  1.0000
  N   N34       1.0  0.8039167530142788  0.09487456255449356  0.7652774034043115  1.0000
  C   C421      1.0  0.7649487876696023  0.11282102363796853  0.7729865760253081  1.0000
  C   C422      1.0  0.7981797703817045  0.050113291267559035  0.7619782322971967  1.0000
  C   C423      1.0  0.838067737205168  0.10020497610625756  0.7797196478487514  1.0000
  C   C424      1.0  0.8144014052662999  0.11654878376325462  0.7464277266097571  1.0000
  H   H589      1.0  0.7688146329904351  0.14619305157377616  0.77631172109107  1.0000
  H   H590      1.0  0.7551935002837712  0.09631377442329758  0.786832825991246  1.0000
  H   H591      1.0  0.7387883033818488  0.11089379007038436  0.7621231762418024  1.0000
  H   H592      1.0  0.826438655820441  0.03559499417505663  0.7555700697026013  1.0000
  H   H593      1.0  0.7909953886749455  0.03256210647630908  0.7759443159518252  1.0000
  H   H594      1.0  0.7718935948266864  0.045194252664300105  0.7515808989687475  1.0000
  H   H595      1.0  0.8679393772486406  0.0869091563543456  0.7743954666995975  1.0000
  H   H596      1.0  0.8310547341912166  0.08463545641520032  0.7941994233758132  1.0000
  H   H597      1.0  0.8432361317336253  0.1337911398140943  0.7824025391338966  1.0000
  H   H598      1.0  0.843297099166042  0.10348419366615103  0.7399860441882902  1.0000
  H   H599      1.0  0.8193364314467395  0.15034273262562325  0.7484400411204022  1.0000
  H   H600      1.0  0.7889893904524575  0.11395862597130302  0.735315127463383  1.0000
  N   N35       1.0  0.9604812099247654  0.40350329556952  0.8707342704679277  1.0000
  C   C425      1.0  0.9985754365674832  0.42399028696691415  0.8634685282710712  1.0000
  C   C426      1.0  0.9673235597773403  0.3579227680675034  0.8717019260035299  1.0000
  C   C427      1.0  0.9253390657160978  0.41414181864123706  0.8571276324283356  1.0000
  C   C428      1.0  0.9509408714424042  0.4181817124212147  0.89064889717416  1.0000
  H   H601      1.0  0.9943284414784592  0.4584692113060583  0.8625116209385444  1.0000
  H   H602      1.0  0.006894542661923131  0.413569645567377  0.8485025189560321  1.0000
  H   H603      1.0  0.025658113168634644  0.416819992922492  0.8734922729828051  1.0000
  H   H604      1.0  0.9401067122163881  0.34146364851426103  0.8781264275666989  1.0000
  H   H605      1.0  0.9726928785325446  0.345457354470764  0.8568175568933272  1.0000
  H   H606      1.0  0.9949121421895971  0.34912113159921737  0.8810760866845826  1.0000
  H   H607      1.0  0.895699484252311  0.4002711556164693  0.8623869948361602  1.0000
  H   H608      1.0  0.9308783336080043  0.40260330040412307  0.8420741108924358  1.0000
  H   H609      1.0  0.920227871880489  0.4484381013349375  0.8556559959955283  1.0000
  H   H610      1.0  0.9765020108192952  0.40995113145171097  0.9013551911890592  1.0000
  H   H611      1.0  0.9218464891524912  0.4042330704242041  0.8965198836955445  1.0000
  H   H612      1.0  0.9466262293327026  0.4525690294091805  0.8905009793881885  1.0000
  N   N36       1.0  0.745289805708545  0.09079128750557985  0.3430901372680669  1.0000
  C   C429      1.0  0.7576805170063097  0.05893660628159347  0.3289882555019156  1.0000
  C   C430      1.0  0.7830242772997479  0.10956795063088132  0.3514577345360648  1.0000
  C   C431      1.0  0.7209363022935011  0.07114477018956311  0.3591824634778888  1.0000
  C   C432      1.0  0.7195997525558226  0.12346883740884129  0.3327864598113066  1.0000
  H   H613      1.0  0.7761302847956482  0.07275372824661797  0.31663909883451496  1.0000
  H   H614      1.0  0.7299816447962185  0.0439356181178836  0.32245014583255693  1.0000
  H   H615      1.0  0.7772422728843663  0.03393282055271585  0.3363619141333823  1.0000
  H   H616      1.0  0.802821827370645  0.08593631515246947  0.35968993527865506  1.0000
  H   H617      1.0  0.8024943472479178  0.12439297683615647  0.3397726341268306  1.0000
  H   H618      1.0  0.7748741734186064  0.13390661160868578  0.3621078493411134  1.0000
  H   H619      1.0  0.7121503870803784  0.0941182472437001  0.3703847143544325  1.0000
  H   H620      1.0  0.7391400783894067  0.0457779414883257  0.3670128062869733  1.0000
  H   H621      1.0  0.6918127378353853  0.05723200696208486  0.3535439007710379  1.0000
  H   H622      1.0  0.7105833038656603  0.1485655553695706  0.3429270988733047  1.0000
  H   H623      1.0  0.6903734372951151  0.1106901416166246  0.32664792156324995  1.0000
  H   H624      1.0  0.7366615779298331  0.13841240930710952  0.32026868214610227  1.0000
  N   N37       1.0  0.7985643125217787  0.7143202978774978  0.7794859814994839  1.0000
  C   C433      1.0  0.828824723379324  0.6990949446900456  0.7947520277905673  1.0000
  C   C434      1.0  0.8154770252360903  0.7512499561618712  0.7689469867765709  1.0000
  C   C435      1.0  0.7589425729412352  0.725676224231206  0.7889984039658909  1.0000
  C   C436      1.0  0.7909694917021521  0.6813962978706264  0.7652396604859696  1.0000
  H   H625      1.0  0.8353383868381065  0.7234760961637977  0.8055814890120705  1.0000
  H   H626      1.0  0.8591203408816093  0.6901124193903541  0.7881602898640796  1.0000
  H   H627      1.0  0.8169767683397771  0.6715486338222875  0.8032320085324972  1.0000
  H   H628      1.0  0.8206216751346972  0.7771037625855727  0.7791225401642946  1.0000
  H   H629      1.0  0.8458575984211905  0.7441927412823167  0.7619585588560477  1.0000
  H   H630      1.0  0.7938156459699338  0.7631041350194603  0.7570806800197156  1.0000
  H   H631      1.0  0.735312958826945  0.7373050493878361  0.7779117126946389  1.0000
  H   H632      1.0  0.7634856392160658  0.7506288137495686  0.7997605819570336  1.0000
  H   H633      1.0  0.7453445410746928  0.6985993147551582  0.7971493764510436  1.0000
  H   H634      1.0  0.7680655666881282  0.6920566538026955  0.753587608586512  1.0000
  H   H635      1.0  0.7782495505839095  0.6529808651174822  0.7726529503084657  1.0000
  H   H636      1.0  0.8201208132107748  0.6723243703626296  0.7576339170941624  1.0000
  N   N38       1.0  0.8169412748865458  0.81435077302307  0.9047711476038375  1.0000
  C   C437      1.0  0.8487595328299189  0.8168992078396683  0.8891615643952671  1.0000
  C   C438      1.0  0.783701430844422  0.7858390029831529  0.8988602886758683  1.0000
  C   C439      1.0  0.7986864888614946  0.8561401489901953  0.9075865262444194  1.0000
  C   C440      1.0  0.836503683159726  0.798524102956649  0.9234583198858487  1.0000
  H   H637      1.0  0.8745365948212211  0.837888138094958  0.8931297993921112  1.0000
  H   H638      1.0  0.8351032577498849  0.828483525558939  0.8747938026151665  1.0000
  H   H639      1.0  0.8628406100466536  0.7858172772481173  0.8865329355931909  1.0000
  H   H640      1.0  0.757691576238478  0.785403088967835  0.9096000607562851  1.0000
  H   H641      1.0  0.7704596483800976  0.7948002443018035  0.884043186859309  1.0000
  H   H642      1.0  0.7957667731249097  0.7533656649813365  0.8979665961578073  1.0000
  H   H643      1.0  0.8229386463488728  0.8786758247119044  0.9118011265471289  1.0000
  H   H644      1.0  0.7748930135113363  0.8553892219466983  0.9194483758875004  1.0000
  H   H645      1.0  0.7831471667896684  0.8685894315621142  0.8938041600968125  1.0000
  H   H646      1.0  0.8130295709854063  0.7941900198125464  0.9353385900478115  1.0000
  H   H647      1.0  0.8606378304263496  0.8200214263037074  0.9288215773563415  1.0000
  H   H648      1.0  0.8521561914504203  0.7677979182452829  0.9215993019984158  1.0000
  N   N39       1.0  0.3506448676622019  0.5780036768638181  0.7482412603999516  1.0000
  C   C441      1.0  0.3525411620645521  0.619074810455647  0.7573574670850359  1.0000
  C   C442      1.0  0.3384806150294002  0.5459311206658581  0.7631512146379922  1.0000
  C   C443      1.0  0.39201007706471774  0.5671173344762962  0.7403959777674834  1.0000
  C   C444      1.0  0.31963939539031855  0.5797758652394992  0.7319517032207843  1.0000
  H   H649      1.0  0.3621559668112215  0.6437758258740893  0.7464566561409243  1.0000
  H   H650      1.0  0.37549059218627995  0.618870232571014  0.7697779771906628  1.0000
  H   H651      1.0  0.3217442882162211  0.6286243758160585  0.763256853769176  1.0000
  H   H652      1.0  0.3366024140525796  0.5146604626989236  0.7565502742095699  1.0000
  H   H653      1.0  0.36144299049503414  0.5433042332138601  0.775554545330358  1.0000
  H   H654      1.0  0.30744728926419007  0.5530936939544333  0.7694858862636328  1.0000
  H   H655      1.0  0.3921163728928581  0.5357569530355623  0.7339725878439439  1.0000
  H   H656      1.0  0.41659513988455155  0.5669569434601069  0.752073288441169  1.0000
  H   H657      1.0  0.4013669501978644  0.5896268875178172  0.728536633465877  1.0000
  H   H658      1.0  0.28789736527869114  0.5872637668639705  0.7373637992498205  1.0000
  H   H659      1.0  0.31795599275024977  0.5494071032418121  0.7245330166096225  1.0000
  H   H660      1.0  0.32762203517829913  0.6039692222892729  0.7205139528376416  1.0000
  N   N40       1.0  0.5858021426490616  0.1275070623547836  0.42256840870597817  1.0000
  C   C445      1.0  0.6119934285652348  0.12279931383806031  0.440594803002241  1.0000
  C   C446      1.0  0.5699522466583933  0.08647954896850285  0.41713725176937233  1.0000
  C   C447      1.0  0.6108236765281893  0.1451195554960052  0.4062301406916502  1.0000
  C   C448      1.0  0.550361522721224  0.15584839229282488  0.42628492348424724  1.0000
  H   H661      1.0  0.6394243592029193  0.10202573391306147  0.4383024075498254  1.0000
  H   H662      1.0  0.5939973290265801  0.10962093540753415  0.4532298655879424  1.0000
  H   H663      1.0  0.6241792393273159  0.15336598951487712  0.44511084607777024  1.0000
  H   H664      1.0  0.5497788695413808  0.07294533367209999  0.42892242252675544  1.0000
  H   H665      1.0  0.5504629383093922  0.08909892767995453  0.4034395644575772  1.0000
  H   H666      1.0  0.5957946867319697  0.06400145628727327  0.4145461302350655  1.0000
  H   H667      1.0  0.6233597698323791  0.17598357110912333  0.40997705460787576  1.0000
  H   H668      1.0  0.5918008876069137  0.1498834871285446  0.3924890505586222  1.0000
  H   H669      1.0  0.6377163947007679  0.12442369335575743  0.4029056533903865  1.0000
  H   H670      1.0  0.5305911907438182  0.1612825957890467  0.41281709510364395  1.0000
  H   H671      1.0  0.5610830621244522  0.1867054112863007  0.4309184028247827  1.0000
  H   H672      1.0  0.5299024745591869  0.14303976624936454  0.43811959611215157  1.0000
  N   N41       1.0  0.8019294151592293  0.34954306419150194  0.3349085764233653  1.0000
  C   C449      1.0  0.7815709800032719  0.38636753475740476  0.3433019753911542  1.0000
  C   C450      1.0  0.7776573358465828  0.3363255821462244  0.3176287334575423  1.0000
  C   C451      1.0  0.8038436847518764  0.31524609213341065  0.34998763265686234  1.0000
  C   C452      1.0  0.8445894608729926  0.36022314144725526  0.32869630495470853  1.0000
  H   H673      1.0  0.7989971828315875  0.39704887788589105  0.35645568517534043  1.0000
  H   H674      1.0  0.7492476898860154  0.3793887394394744  0.34808107572751756  1.0000
  H   H675      1.0  0.7797544796642484  0.4128700377005522  0.3322699532472833  1.0000
  H   H676      1.0  0.7926580162029826  0.309167062844385  0.3106663488340949  1.0000
  H   H677      1.0  0.7455214301153981  0.32717841829030403  0.3218474388190367  1.0000
  H   H678      1.0  0.7748060859064959  0.36167437267983726  0.30608691267450233  1.0000
  H   H679      1.0  0.7720834076521731  0.3060895340702211  0.354788278694492  1.0000
  H   H680      1.0  0.8215447071768873  0.32416902389459007  0.36340162396637204  1.0000
  H   H681      1.0  0.8193071208524108  0.2870517821094458  0.34419428705892985  1.0000
  H   H682      1.0  0.8441994329114597  0.3861935214359016  0.31737249687556346  1.0000
  H   H683      1.0  0.8607127994041314  0.3332329085843583  0.3221071644213347  1.0000
  H   H684      1.0  0.8638541967194918  0.3700797846532994  0.3414195574765783  1.0000
  N   N42       1.0  0.18512692417544624  0.7934713708831684  0.8702523629764473  1.0000
  C   C453      1.0  0.22351002862617092  0.8181912770373896  0.8711856584383348  1.0000
  C   C454      1.0  0.16943581130423316  0.7854224860393502  0.8904519329099739  1.0000
  C   C455      1.0  0.19442402071584483  0.7535607404410707  0.8609241264967671  1.0000
  C   C456      1.0  0.15312540146473766  0.8167409856369521  0.858365950896447  1.0000
  H   H685      1.0  0.2357536609317675  0.8254746824980427  0.8561483939946427  1.0000
  H   H686      1.0  0.24858108817450084  0.8010899065684043  0.8797067838900829  1.0000
  H   H687      1.0  0.21796748410067399  0.8483037670273658  0.8783910500380019  1.0000
  H   H688      1.0  0.16360121012741444  0.8148334429437117  0.8982067581589416  1.0000
  H   H689      1.0  0.13952393247393585  0.7683447132064114  0.8902490310455791  1.0000
  H   H690      1.0  0.19201766074734256  0.7663484322895703  0.8996495421563188  1.0000
  H   H691      1.0  0.16600587434501105  0.7345905780509097  0.8593848551771527  1.0000
  H   H692      1.0  0.21761881411804812  0.7344874659491073  0.8697149716066148  1.0000
  H   H693      1.0  0.20751318286516893  0.7585121870877768  0.8458860431896719  1.0000
  H   H694      1.0  0.12371897570836134  0.7988545899991686  0.8573773938783231  1.0000
  H   H695      1.0  0.16396228285793066  0.823191529771071  0.8430096541643863  1.0000
  H   H696      1.0  0.14536940684311422  0.8471150745798391  0.864917213272072  1.0000
  N   N43       1.0  0.6788708007903435  0.3977049342240875  0.9461434047854048  1.0000
  C   C457      1.0  0.6933721524001792  0.4190938809058091  0.9638481492661901  1.0000
  C   C458      1.0  0.6838095122255504  0.42539158406766014  0.9284914720716787  1.0000
  C   C459      1.0  0.6344936803060939  0.3869663404430993  0.9483909369921899  1.0000
  C   C460      1.0  0.7039587937480516  0.3593544849818898  0.9438095687431174  1.0000
  H   H697      1.0  0.6901839586525607  0.3989263793937784  0.9774152636533788  1.0000
  H   H698      1.0  0.6749943669018921  0.4481809129290207  0.9660823803007718  1.0000
  H   H699      1.0  0.7267512755693092  0.4277365540539157  0.9625791295218594  1.0000
  H   H700      1.0  0.666385475275461  0.4552195211821512  0.929988527514874  1.0000
  H   H701      1.0  0.7171327416659912  0.43292874050398444  0.9260346884871312  1.0000
  H   H702      1.0  0.6721569376334608  0.41059386581930774  0.9149256274893707  1.0000
  H   H703      1.0  0.6222277230973838  0.3717913261861766  0.9350658008249091  1.0000
  H   H704      1.0  0.614790977517161  0.41507880397361624  0.9506866232422254  1.0000
  H   H705      1.0  0.6297526851477724  0.3651318844666989  0.9612739002725743  1.0000
  H   H706      1.0  0.6951414123424725  0.34350397733467203  0.9300779562662079  1.0000
  H   H707      1.0  0.6997215659739245  0.3368022576025789  0.9564356288471431  1.0000
  H   H708      1.0  0.7378089148540763  0.36618468841853064  0.9428837884708237  1.0000
  N   N44       1.0  0.7267615191707971  0.7072582401531128  0.34358523613594666  1.0000
  C   C461      1.0  0.6970072047721898  0.7284050318170436  0.3296715458480144  1.0000
  C   C462      1.0  0.7465744098113584  0.7385312857127964  0.3559344455083824  1.0000
  C   C463      1.0  0.7591781679493681  0.6851431006110144  0.3324770056182994  1.0000
  C   C464      1.0  0.7043237930116936  0.6770228455208812  0.35633392161499183  1.0000
  H   H709      1.0  0.7129145030092406  0.7517918364675518  0.3200165177475677  1.0000
  H   H710      1.0  0.6720385311678  0.7451349511358517  0.337731797730741  1.0000
  H   H711      1.0  0.6815197049345565  0.7058491137788853  0.32001330953550516  1.0000
  H   H712      1.0  0.7662561102607822  0.760160280032822  0.3470101194712529  1.0000
  H   H713      1.0  0.7230423209958365  0.7578920834070115  0.36343945080015055  1.0000
  H   H714      1.0  0.7666756792906152  0.7235008274961378  0.36764426118109383  1.0000
  H   H715      1.0  0.7772779908263183  0.7069532412167315  0.32287394752159815  1.0000
  H   H716      1.0  0.7455676510273194  0.6613727015678267  0.32287361101490814  1.0000
  H   H717      1.0  0.7820607356736595  0.6688103534485542  0.3426153306865189  1.0000
  H   H718      1.0  0.725854838949097  0.6606479500809065  0.3670895354106099  1.0000
  H   H719      1.0  0.6889278317951736  0.6529901277361522  0.3474862515120417  1.0000
  H   H720      1.0  0.6796861668469798  0.6926687994503691  0.3649687498784622  1.0000
  N   N45       1.0  0.5661981260898745  0.5158529627456969  0.07035713491897444  1.0000
  C   C465      1.0  0.5240960472953904  0.5137360547151453  0.06143906437288216  1.0000
  C   C466      1.0  0.596940884953334  0.5244834443344701  0.0547072340686503  1.0000
  C   C467      1.0  0.576677864445983  0.475690733572181  0.08059976803923631  1.0000
  C   C468      1.0  0.5671058378657058  0.5494741623255734  0.08469043505784596  1.0000
  H   H721      1.0  0.5000948021109988  0.5077456028692493  0.07291005542332885  1.0000
  H   H722      1.0  0.5221103366215768  0.4881035462078495  0.050801005706803126  1.0000
  H   H723      1.0  0.5153715645765369  0.5433167487210449  0.05333476817762928  1.0000
  H   H724      1.0  0.5968342075963476  0.5000574039025331  0.04346791821863327  1.0000
  H   H725      1.0  0.5903904658922847  0.5549403179330641  0.046891244889361694  1.0000
  H   H726      1.0  0.6291301102429653  0.5260142631561833  0.06090764386912718  1.0000
  H   H727      1.0  0.6080649269454206  0.4762387703077864  0.08770282805194782  1.0000
  H   H728      1.0  0.5761991071486257  0.4495513240278611  0.0702292533523341  1.0000
  H   H729      1.0  0.5540052299517397  0.4682412566372618  0.09248724723549033  1.0000
  H   H730      1.0  0.5441608962416822  0.5440823132244551  0.09669599018576322  1.0000
  H   H731      1.0  0.5598187643350541  0.5803798278202953  0.07747288506483208  1.0000
  H   H732      1.0  0.598363496691519  0.5516038659749445  0.09180485121032458  1.0000
  N   N46       1.0  0.22799197031488097  0.5466470734435108  0.23133529813861672  1.0000
  C   C469      1.0  0.1909905383438869  0.5662838289397308  0.24016872486708743  1.0000
  C   C470      1.0  0.21536667649739233  0.5092778076795015  0.22078974914047553  1.0000
  C   C471      1.0  0.2583658000591524  0.5343870110665235  0.24708870198750965  1.0000
  C   C472      1.0  0.24724478495341717  0.5766820856153199  0.21730866722206504  1.0000
  H   H733      1.0  0.19977818723258692  0.5933412421410336  0.2490780011699967  1.0000
  H   H734      1.0  0.17448955249572723  0.5440870180692864  0.25016180319913717  1.0000
  H   H735      1.0  0.16833808077022705  0.5779984164817571  0.2286855065641477  1.0000
  H   H736      1.0  0.24251813524902427  0.49408323998820886  0.2137003478485511  1.0000
  H   H737      1.0  0.20134816156294263  0.48566405570945065  0.23105243324747926  1.0000
  H   H738      1.0  0.19189612216736388  0.5171445641099018  0.20900860584472492  1.0000
  H   H739      1.0  0.26744772862154476  0.5614631627033425  0.25589922168106005  1.0000
  H   H740      1.0  0.2873247977254321  0.5208305337874392  0.24094380840947544  1.0000
  H   H741      1.0  0.245206194155651  0.510740828571206  0.25755629656821244  1.0000
  H   H742      1.0  0.2762366072943734  0.5637164608355583  0.21087567262995988  1.0000
  H   H743      1.0  0.25546682492459494  0.605895603018311  0.22466519673743787  1.0000
  H   H744      1.0  0.22556688882675988  0.5856976358903759  0.2049310791763865  1.0000
  N   N47       1.0  0.5635589047113165  0.9168652324948429  0.4200790182948743  1.0000
  C   C473      1.0  0.5814597001329109  0.929866807192069  0.40087136707605014  1.0000
  C   C474      1.0  0.5930938603250766  0.9260859935754223  0.43615390430040624  1.0000
  C   C475      1.0  0.555698686809543  0.8717041003011808  0.4203207475060402  1.0000
  C   C476      1.0  0.5238727812922026  0.9397013216071864  0.42285776848016493  1.0000
  H   H745      1.0  0.5905561697338447  0.9630943693896402  0.4005979633005897  1.0000
  H   H746      1.0  0.5587955403164708  0.9260119766380331  0.3885778801746203  1.0000
  H   H747      1.0  0.6098506811991794  0.9111653705219266  0.39754657338365834  1.0000
  H   H748      1.0  0.5804087760931383  0.9170289205887979  0.4508744251385632  1.0000
  H   H749      1.0  0.6232184481361648  0.9090518854493611  0.43446069919628844  1.0000
  H   H750      1.0  0.6005415276860786  0.9597591597674414  0.4361628726826815  1.0000
  H   H751      1.0  0.5846061249984693  0.8534196339592606  0.4175143253738287  1.0000
  H   H752      1.0  0.5328069413272245  0.8640030895731474  0.4086845915534637  1.0000
  H   H753      1.0  0.5427750653624124  0.860480926696247  0.4346819915172534  1.0000
  H   H754      1.0  0.5085616595632814  0.9299174737710947  0.43690562383723053  1.0000
  H   H755      1.0  0.5014277540748364  0.9338811001622901  0.41063419898073733  1.0000
  H   H756      1.0  0.5285706490944878  0.9738678831799327  0.42305444405271364  1.0000
  N   N48       1.0  0.43339658513417667  0.39279998621677215  0.4362294389883664  1.0000
  C   C477      1.0  0.4127647720343402  0.42438565368024916  0.4482640195440847  1.0000
  C   C478      1.0  0.4752828400025732  0.4071986535208837  0.43056958650124355  1.0000
  C   C479      1.0  0.40818324843207465  0.3862605553817299  0.41825518689875935  1.0000
  C   C480      1.0  0.43734518267711164  0.35325307372623  0.4478647455135896  1.0000
  H   H757      1.0  0.4310534822426495  0.4299730364579279  0.46191685779979547  1.0000
  H   H758      1.0  0.38103168773662455  0.41456606623386655  0.4528473288852668  1.0000
  H   H759      1.0  0.4095909692695266  0.45481474380714776  0.44001236819007206  1.0000
  H   H760      1.0  0.49159051378673085  0.3841520019544696  0.4213296012821458  1.0000
  H   H761      1.0  0.47353968953392056  0.4373437075279906  0.4220038928289979  1.0000
  H   H762      1.0  0.4951555625937011  0.4122832017397812  0.4438018484690732  1.0000
  H   H763      1.0  0.4229093843391911  0.3625281364052199  0.40883746401701154  1.0000
  H   H764      1.0  0.4045255440725463  0.4154819219419697  0.4091014573660703  1.0000
  H   H765      1.0  0.37642883432770213  0.37513379896648835  0.4220025383787564  1.0000
  H   H766      1.0  0.4557688661917222  0.356946657949287  0.4616655286586726  1.0000
  H   H767      1.0  0.4528532776949279  0.3287146161409926  0.4392522744280361  1.0000
  H   H768      1.0  0.40627961122172773  0.34143587940487263  0.45219642711447183  1.0000
