data_image0
_chemical_formula_structural       HSC4HCHC2H2SCH3CH5NSHSH2CHCHFeHC2HFeHC2H3SHCSC2HSHFeCH3CHC2H3NHSC2H2SCSH2C2FeCHSHC2SHC2HCHCFeH3CHCH2NCSH4CH2CH3FeSCH5CH2CH3CHNSCHCSH3FeH2SFeSHSHCH3SCHCH2C2FeHCH2CH4SCH2CHNHCHC2SCSCH4C2NHFeSHCHC2H3CHCHC2HFeSCSCH2C2HCH2S2C2HSNH3CH4CSHSC4SCS2C2FeHCH3S2HCHCH2CH2SCSFeSH3CHCHC4HSFeH2CNC2HCHFeHCH2C2H7CH2CH2CNHCH4FeHSHSHCFe2SHCHC2HFeSH2Fe3SCSCSH2C2H2CH3CH2C2H8SCFeSHCH3SH3C2NH2C2HCHNC2HCH2SHCH2SH3CHCH2FeC3S2H3CHFeH4CSH3CHNSCHCH2FeH2CSNCH2C3H2S5HCHCHCH3CH4FeH5CHFeHCHCH2C2NCHCH2SH2C2FeC2H2FeHSCFeCSFeHC2HCH3CHSH2C2H2SHFeNC3SH2CHCNC2H2CH4S2H2C2HSHNC2H4SHCHC2SC3SCSCHC2HCH2CH2CHCHFeH3C2HCHCSFeH2FeHCHSH2SH2SHSH4SHCHCH3CHSNH3C6Fe2C2HFeCHFeCH2SHCSH2CNH2CH3CHFeH2C3H3CHCHCSFeSCHCH2SNS2H2FeHCFeSHS2C2HFeSH5SCSC2H6SHFeSH2FeH3C2HCH2C2HC3HCHC4H2NH4FeHCHNHFeH5C3FeH2CHSH2CNFeHC2H2S2HCHC3HSFeHCHCNSCHCHC4S2C2HCHC2H4CHSH3C2HNH2FeHCHC2SCH2SHC2H2SHCH2SC2H9CH3C2H4CFeSH3CHC2FeSCH4CS2CSC2H2FeSNC2SCHSC2SHCH2CFeH3CH2CH4CHFe2HSFeSHCH4NHCSHC2HCHSCHSHFe2S2CHCH2CSHCFe2HCH2NCHS2H2CH4SHC4HCH2NHCSH4SC3HCH2FeH4C3HCH4CH2CHSCSH2SC2HFeCH2SH2NSHFeHNCH3SH3CH2C2FeC2HSH5CHNC2H2CFeNSH2CSHSC3HFeHCH2C2H2NCHC2H7CSC2FeHCH5SHC3HCH2CHFeNHCHSNFeSFeSH4SHCHCHCSCS3HC2SH2FeHC2FeHSFeH2CHCFeCSH4C2HSCSHCHCH3C2HC2H2NCSCHC3HCH2CH2FeH3C2HNHC2HNH3CSH2SCH3CHCH2SCH2SC2H2CFeH4C2HCHFeC4HFeH6SC3H2C2HCNH2CH2FeHSHSH3CHSHC4FeSHNH3C3HSH2FeSHSH3CSHCHFe2SFeCH3C5FeSHCSCHFeH8CH2NHSHSH2SCH2C2SHCH2C2H2SH2CNCHC2H3SH3CFeCHC3H2CNFeHCH3CH2CH2CH3SH4CHCHCSH2CH2CH2SCSHCFeC2H2SH4CHNSCHCSH2C3SHCSH2CH2FeCHC2H3CSHCFeHCNSCH4SFe2C2HSHCNH2CHSCSHSNH2SC2H2CH2CHCHCH4CFeCHCH3CH4CH2CH5FeCHCHCH2SH2NS2CH2C2H2CSCSC3S2CH6CHSCHFeCFeHNHCHCNFeHSH3CFeCHCSHFeSHSCSCH2SFe2H3CHC3H2FeHCHCHCSC2H2C2HCHSH2CHFeCH8NHC3H3C2HSHCHCH3C2S2CHC3HCHCH4CH2C2H3CSH2FeHCHCH3CSCH2SHCH2C2FeS2H3CH5CFeNSH2CHSC3SH5CH4SH2CNH4C2H7FeCH2CHFeHNSCFeH2CH3C2HCHC2HCHC2H4CHFeCH2SH6NHCSCSH4SCH3CH2C3HCH2SHCH2NCNHCHNC2SH5C2H2SH4CH2NH3CH2CFeSFe2HCFeH4C2SC2H2CNH2CHCFeC2HC4SH2SHC2SH2C2H4C2HNH3C4SHCHCHC2HC2H2SHS2CSC2H4CSHCHFeHCS2CSFe2CNCHFeHSH2SH2FeC2H2CSCH4CSHSNHFeHSCH2C2HS3H2SHCFeCH6C2H4NCFeH2CFeH3CHC3SH2C2H2CH3CHSHSHSC2NHCH2FeCH5CSH2CHC2HSCHCH3CSHNSCHCH4CH3NH4CSC2HFeCSHCH2FeCSHCH3NCH2CHC2H3C2S2HSC2HCNH2CFeHSC2H2CNCHFeSCHFe2CHSHC2H2CS2HCSH3FeC2HFeCFeCHFeSH2C2H2FeSH2SCHSCFeCH2SHCH3SH2CH2CHCH3NS2FeS2CSH2FeH2CH2SH6CHC
_chemical_formula_sum              "H1152 S288 C720 N72 Fe144"
_cell_length_a       47.049
_cell_length_b       49.1746
_cell_length_c       23.6224
_cell_angle_alpha    69.034
_cell_angle_beta     81.0559
_cell_angle_gamma    114.404

_space_group_name_H-M_alt    "P 1"
_space_group_IT_number       1

loop_
  _space_group_symop_operation_xyz
  'x, y, z'

loop_
  _atom_site_type_symbol
  _atom_site_label
  _atom_site_symmetry_multiplicity
  _atom_site_fract_x
  _atom_site_fract_y
  _atom_site_fract_z
  _atom_site_occupancy
  H   H1        1.0  0.07022  0.09553  0.98415  1.0000
  S   S1        1.0  0.98204  0.01740  0.88439  1.0000
  C   C1        1.0  0.11834  0.14755  0.77769  1.0000
  C   C2        1.0  0.97895  0.11737  0.93735  1.0000
  C   C3        1.0  0.00198  0.10152  0.00272  1.0000
  C   C4        1.0  0.99832  0.12381  0.96623  1.0000
  H   H2        1.0  0.97316  0.99821  0.78384  1.0000
  C   C5        1.0  0.01463  0.21771  0.83111  1.0000
  H   H3        1.0  0.02328  0.14309  0.80164  1.0000
  C   C6        1.0  0.04959  0.90648  0.80221  1.0000
  C   C7        1.0  0.99391  0.09175  0.77538  1.0000
  H   H4        1.0  0.10013  0.10174  0.91695  1.0000
  H   H5        1.0  0.04461  0.89512  0.00581  1.0000
  S   S2        1.0  0.14586  0.11042  0.80586  1.0000
  C   C8        1.0  0.05350  0.22151  0.86914  1.0000
  H   H6        1.0  0.09692  0.15708  0.94611  1.0000
  H   H7        1.0  0.00456  0.08705  0.81440  1.0000
  H   H8        1.0  0.98190  0.89859  0.87406  1.0000
  C   C9        1.0  0.03818  0.21316  0.83516  1.0000
  H   H9        1.0  0.16091  0.13741  0.89171  1.0000
  H   H10       1.0  0.15504  0.10894  0.97151  1.0000
  H   H11       1.0  0.14120  0.18177  0.92687  1.0000
  H   H12       1.0  0.99811  0.20856  0.79190  1.0000
  H   H13       1.0  0.96689  0.08104  0.79994  1.0000
  N   N1        1.0  0.12144  0.12816  0.96847  1.0000
  S   S3        1.0  0.06487  0.01796  0.88485  1.0000
  H   H14       1.0  0.97301  0.17130  0.00993  1.0000
  S   S4        1.0  0.07208  0.94471  0.85697  1.0000
  H   H15       1.0  0.00234  0.99195  0.98957  1.0000
  H   H16       1.0  0.98478  0.13906  0.79327  1.0000
  C   C10       1.0  0.12137  0.15902  0.92792  1.0000
  H   H17       1.0  0.97553  0.14302  0.89629  1.0000
  C   C11       1.0  0.15446  0.13217  0.94320  1.0000
  H   H18       1.0  0.04757  0.19880  0.80098  1.0000
  Fe  Fe1       1.0  0.03051  0.02483  0.83241  1.0000
  H   H19       1.0  0.97052  0.93596  0.99988  1.0000
  C   C12       1.0  0.98675  0.07272  0.00929  1.0000
  C   C13       1.0  0.09533  0.09874  0.96696  1.0000
  H   H20       1.0  0.17459  0.15363  0.94523  1.0000
  Fe  Fe2       1.0  0.07546  0.99535  0.82262  1.0000
  H   H21       1.0  0.09417  0.07488  0.99814  1.0000
  C   C14       1.0  0.23931  0.22351  0.00010  1.0000
  C   C15       1.0  0.96334  0.08853  0.94445  1.0000
  H   H22       1.0  0.12588  0.16374  0.87691  1.0000
  H   H23       1.0  0.01553  0.15611  0.95837  1.0000
  H   H24       1.0  0.97443  0.93399  0.78187  1.0000
  S   S5        1.0  0.20083  0.20258  0.99238  1.0000
  H   H25       1.0  0.28629  0.21139  0.84666  1.0000
  C   C16       1.0  0.96769  0.06634  0.97942  1.0000
  S   S6        1.0  0.08637  0.21361  0.87446  1.0000
  C   C17       1.0  0.14502  0.14807  0.77225  1.0000
  C   C18       1.0  0.06678  0.93570  0.79237  1.0000
  H   H26       1.0  0.30096  0.22005  0.90762  1.0000
  S   S7        1.0  0.03752  0.99815  0.77744  1.0000
  H   H27       1.0  0.08837  0.11761  0.81473  1.0000
  Fe  Fe3       1.0  0.10467  0.06805  0.80104  1.0000
  C   C19       1.0  0.01070  0.14719  0.76577  1.0000
  H   H28       1.0  0.11310  0.09895  0.06868  1.0000
  H   H29       1.0  0.29459  0.20374  0.05336  1.0000
  H   H30       1.0  0.16627  0.21073  0.10451  1.0000
  C   C20       1.0  0.05911  0.17003  0.17728  1.0000
  H   H31       1.0  0.22601  0.21818  0.14265  1.0000
  C   C21       1.0  0.11459  0.12275  0.03596  1.0000
  C   C22       1.0  0.96708  0.14776  0.16731  1.0000
  H   H32       1.0  0.18273  0.17610  0.25484  1.0000
  H   H33       1.0  0.00424  0.17071  0.04436  1.0000
  H   H34       1.0  0.02450  0.11725  0.19525  1.0000
  N   N2        1.0  0.96716  0.94763  0.07938  1.0000
  H   H35       1.0  0.01230  0.94613  0.05512  1.0000
  S   S8        1.0  0.00050  0.01442  0.16397  1.0000
  C   C23       1.0  0.02540  0.90379  0.22745  1.0000
  C   C24       1.0  0.05565  0.92108  0.21323  1.0000
  H   H36       1.0  0.07671  0.90977  0.19823  1.0000
  H   H37       1.0  0.10165  0.96773  0.19596  1.0000
  S   S9        1.0  0.04968  0.07305  0.19313  1.0000
  C   C25       1.0  0.04194  0.13953  0.21631  1.0000
  S   S10       1.0  0.06784  0.99962  0.22089  1.0000
  H   H38       1.0  0.42269  0.90992  0.13660  1.0000
  H   H39       1.0  0.98985  0.14553  0.16299  1.0000
  C   C26       1.0  0.06756  0.94864  0.21245  1.0000
  C   C27       1.0  0.07201  0.18043  0.25248  1.0000
  Fe  Fe4       1.0  0.03237  0.01856  0.22465  1.0000
  C   C28       1.0  0.01891  0.94180  0.24101  1.0000
  H   H40       1.0  0.99796  0.95274  0.25841  1.0000
  S   S11       1.0  0.11985  0.20372  0.01910  1.0000
  H   H41       1.0  0.99668  0.99948  0.05789  1.0000
  C   C29       1.0  0.04941  0.95924  0.22581  1.0000
  C   C30       1.0  0.98121  0.17253  0.05117  1.0000
  S   S12       1.0  0.97047  0.05165  0.22491  1.0000
  H   H42       1.0  0.98111  0.91243  0.13237  1.0000
  C   C31       1.0  0.00688  0.91393  0.24189  1.0000
  C   C32       1.0  0.99243  0.93971  0.09816  1.0000
  H   H43       1.0  0.43274  0.91480  0.20394  1.0000
  C   C33       1.0  0.17456  0.19468  0.25133  1.0000
  H   H44       1.0  0.00486  0.95423  0.12259  1.0000
  C   C34       1.0  0.07436  0.19046  0.19537  1.0000
  Fe  Fe5       1.0  0.01356  0.06725  0.14108  1.0000
  H   H45       1.0  0.13433  0.18143  0.18308  1.0000
  H   H46       1.0  0.23611  0.17277  0.04733  1.0000
  H   H47       1.0  0.16917  0.17632  0.15772  1.0000
  C   C35       1.0  0.16176  0.19527  0.15610  1.0000
  H   H48       1.0  0.96834  0.10888  0.11215  1.0000
  C   C36       1.0  0.28008  0.22206  0.02703  1.0000
  H   H49       1.0  0.05971  0.18088  0.11440  1.0000
  H   H50       1.0  0.13439  0.14392  0.03922  1.0000
  N   N3        1.0  0.18068  0.21653  0.18330  1.0000
  C   C37       1.0  0.44187  0.92642  0.15000  1.0000
  S   S13       1.0  0.02785  0.11121  0.04688  1.0000
  H   H51       1.0  0.44299  0.95122  0.13091  1.0000
  H   H52       1.0  0.98826  0.19798  0.04660  1.0000
  H   H53       1.0  0.97360  0.17239  0.16675  1.0000
  H   H54       1.0  0.99068  0.04743  0.04976  1.0000
  C   C38       1.0  0.98353  0.98423  0.03548  1.0000
  H   H55       1.0  0.09057  0.12118  0.05535  1.0000
  H   H56       1.0  0.96507  0.99149  0.02254  1.0000
  C   C39       1.0  0.25229  0.20735  0.02417  1.0000
  H   H57       1.0  0.09683  0.91007  0.03021  1.0000
  H   H58       1.0  0.14305  0.22751  0.21320  1.0000
  H   H59       1.0  0.08769  0.11172  0.47737  1.0000
  Fe  Fe6       1.0  0.00607  0.05488  0.27836  1.0000
  S   S14       1.0  0.99149  0.00027  0.31512  1.0000
  C   C40       1.0  0.04004  0.12952  0.27344  1.0000
  H   H60       1.0  0.97229  0.11004  0.35749  1.0000
  H   H61       1.0  0.04143  0.12507  0.45903  1.0000
  H   H62       1.0  0.01233  0.99167  0.43220  1.0000
  H   H63       1.0  0.14751  0.18036  0.28165  1.0000
  H   H64       1.0  0.13783  0.14303  0.50791  1.0000
  C   C41       1.0  0.96813  0.20924  0.35141  1.0000
  H   H65       1.0  0.18126  0.17524  0.47081  1.0000
  H   H66       1.0  0.97347  0.96833  0.49880  1.0000
  C   C42       1.0  0.15624  0.16843  0.50038  1.0000
  H   H67       1.0  0.97260  0.19265  0.40709  1.0000
  H   H68       1.0  0.03925  0.05741  0.44359  1.0000
  H   H69       1.0  0.06172  0.03686  0.43104  1.0000
  C   C43       1.0  0.05507  0.15006  0.29120  1.0000
  H   H70       1.0  0.97561  0.11967  0.42327  1.0000
  N   N4        1.0  0.01451  0.00430  0.51019  1.0000
  S   S15       1.0  0.01591  0.08605  0.33045  1.0000
  C   C44       1.0  0.04520  0.03762  0.46895  1.0000
  H   H71       1.0  0.96497  0.22553  0.47000  1.0000
  C   C45       1.0  0.99657  0.99360  0.46919  1.0000
  S   S16       1.0  0.04204  0.19019  0.38676  1.0000
  H   H72       1.0  0.08863  0.20295  0.27387  1.0000
  H   H73       1.0  0.14970  0.18680  0.47096  1.0000
  H   H74       1.0  0.05988  0.04593  0.49824  1.0000
  Fe  Fe7       1.0  0.01748  0.15900  0.49477  1.0000
  H   H75       1.0  0.05386  0.13921  0.35435  1.0000
  H   H76       1.0  0.98907  0.01184  0.44306  1.0000
  S   S17       1.0  0.06553  0.17841  0.51278  1.0000
  Fe  Fe8       1.0  0.08949  0.21256  0.40601  1.0000
  S   S18       1.0  0.13930  0.22361  0.34933  1.0000
  H   H77       1.0  0.18813  0.20986  0.27370  1.0000
  S   S19       1.0  0.00560  0.19604  0.50917  1.0000
  H   H78       1.0  0.03988  0.97648  0.51010  1.0000
  C   C46       1.0  0.06946  0.95410  0.69420  1.0000
  H   H79       1.0  0.09875  0.99185  0.72369  1.0000
  H   H80       1.0  0.98626  0.02620  0.53397  1.0000
  H   H81       1.0  0.05900  0.13462  0.72678  1.0000
  S   S20       1.0  0.98223  0.10350  0.55329  1.0000
  C   C47       1.0  0.01035  0.08939  0.56528  1.0000
  H   H82       1.0  0.18135  0.20340  0.59711  1.0000
  C   C48       1.0  0.05852  0.09638  0.52898  1.0000
  H   H83       1.0  0.96318  0.21548  0.58255  1.0000
  H   H84       1.0  0.16326  0.14240  0.64925  1.0000
  C   C49       1.0  0.00635  0.06992  0.61984  1.0000
  C   C50       1.0  0.99332  0.13386  0.68375  1.0000
  Fe  Fe9       1.0  0.05559  0.21793  0.51861  1.0000
  H   H85       1.0  0.05989  0.16769  0.66040  1.0000
  C   C51       1.0  0.02880  0.06415  0.62920  1.0000
  H   H86       1.0  0.00092  0.95365  0.57611  1.0000
  H   H87       1.0  0.99280  0.11970  0.65591  1.0000
  C   C52       1.0  0.04567  0.13994  0.69319  1.0000
  H   H88       1.0  0.97732  0.05533  0.67122  1.0000
  H   H89       1.0  0.20158  0.17624  0.73728  1.0000
  H   H90       1.0  0.03713  0.98636  0.57609  1.0000
  H   H91       1.0  0.11650  0.17984  0.57333  1.0000
  S   S21       1.0  0.11833  0.04535  0.74256  1.0000
  C   C53       1.0  0.11825  0.17422  0.75253  1.0000
  H   H92       1.0  0.14506  0.11726  0.61140  1.0000
  H   H93       1.0  0.18872  0.14857  0.57555  1.0000
  C   C54       1.0  0.16363  0.14314  0.60139  1.0000
  H   H94       1.0  0.00583  0.16114  0.64828  1.0000
  N   N5        1.0  0.01087  0.12819  0.72952  1.0000
  H   H95       1.0  0.10274  0.13543  0.60706  1.0000
  C   C55       1.0  0.07726  0.95924  0.73790  1.0000
  H   H96       1.0  0.02419  0.04292  0.69094  1.0000
  C   C56       1.0  0.14473  0.20124  0.72125  1.0000
  C   C57       1.0  0.99275  0.00673  0.55814  1.0000
  S   S22       1.0  0.03761  0.92022  0.64160  1.0000
  C   C58       1.0  0.04187  0.90121  0.75773  1.0000
  S   S23       1.0  0.08756  0.07042  0.59591  1.0000
  C   C59       1.0  0.17135  0.20181  0.71717  1.0000
  H   H97       1.0  0.02371  0.17488  0.73263  1.0000
  H   H98       1.0  0.00517  0.01367  0.59120  1.0000
  H   H99       1.0  0.17578  0.22223  0.52258  1.0000
  H   H100      1.0  0.04657  0.12708  0.66315  1.0000
  C   C60       1.0  0.17149  0.17525  0.74274  1.0000
  C   C61       1.0  0.05494  0.07744  0.58358  1.0000
  N   N6        1.0  0.15590  0.16859  0.56295  1.0000
  H   H101      1.0  0.08113  0.98134  0.63397  1.0000
  Fe  Fe10      1.0  0.07955  0.04923  0.70163  1.0000
  S   S24       1.0  0.06953  0.07628  0.75314  1.0000
  H   H102      1.0  0.12101  0.15894  0.64788  1.0000
  C   C62       1.0  0.12248  0.16028  0.59944  1.0000
  H   H103      1.0  0.96889  0.98226  0.58865  1.0000
  C   C63       1.0  0.18107  0.20247  0.55083  1.0000
  C   C64       1.0  0.05139  0.92527  0.70399  1.0000
  H   H104      1.0  0.20667  0.20980  0.52305  1.0000
  H   H105      1.0  0.97710  0.90838  0.74534  1.0000
  H   H106      1.0  0.96702  0.12547  0.70966  1.0000
  C   C65       1.0  0.02349  0.97916  0.54455  1.0000
  H   H107      1.0  0.99613  0.07681  0.75079  1.0000
  C   C66       1.0  0.03635  0.10246  0.51997  1.0000
  H   H108      1.0  0.08842  0.17392  0.76108  1.0000
  C   C67       1.0  0.41716  0.50241  0.87191  1.0000
  C   C68       1.0  0.00234  0.54465  0.84827  1.0000
  H   H109      1.0  0.25195  0.43373  0.97568  1.0000
  Fe  Fe11      1.0  0.17536  0.23283  0.97129  1.0000
  S   S25       1.0  0.33531  0.27398  0.00626  1.0000
  C   C69       1.0  0.10315  0.49068  0.90978  1.0000
  S   S26       1.0  0.25207  0.49030  0.01204  1.0000
  C   C70       1.0  0.41245  0.52502  0.87330  1.0000
  H   H110      1.0  0.11619  0.28537  0.82470  1.0000
  H   H111      1.0  0.02807  0.50346  0.82491  1.0000
  C   C71       1.0  0.02204  0.23980  0.89412  1.0000
  C   C72       1.0  0.29490  0.23059  0.86408  1.0000
  H   H112      1.0  0.44574  0.34760  0.95337  1.0000
  C   C73       1.0  0.04536  0.23474  0.89894  1.0000
  H   H113      1.0  0.33865  0.42579  0.97496  1.0000
  H   H114      1.0  0.21764  0.52088  0.80989  1.0000
  S   S27       1.0  0.97130  0.23492  0.85871  1.0000
  S   S28       1.0  0.18308  0.27431  0.99730  1.0000
  C   C74       1.0  0.29476  0.25286  0.00628  1.0000
  C   C75       1.0  0.21316  0.40676  0.89895  1.0000
  H   H115      1.0  0.36024  0.24872  0.83276  1.0000
  S   S29       1.0  0.37951  0.39144  0.77296  1.0000
  N   N7        1.0  0.32399  0.26309  0.81297  1.0000
  H   H116      1.0  0.42149  0.55274  0.81574  1.0000
  H   H117      1.0  0.32042  0.42844  0.88458  1.0000
  H   H118      1.0  0.43153  0.50526  0.81295  1.0000
  C   C76       1.0  0.39060  0.49722  0.97633  1.0000
  H   H119      1.0  0.06309  0.54562  0.77496  1.0000
  H   H120      1.0  0.29872  0.30368  0.95450  1.0000
  H   H121      1.0  0.26560  0.53735  0.85168  1.0000
  H   H122      1.0  0.31441  0.29201  0.85511  1.0000
  C   C77       1.0  0.00473  0.55900  0.79166  1.0000
  S   S30       1.0  0.13737  0.52225  0.78562  1.0000
  H   H123      1.0  0.01261  0.25410  0.92847  1.0000
  S   S31       1.0  0.19368  0.49385  0.95839  1.0000
  C   C78       1.0  0.29549  0.42161  0.91444  1.0000
  C   C79       1.0  0.02308  0.55930  0.86840  1.0000
  C   C80       1.0  0.23172  0.43559  0.85346  1.0000
  C   C81       1.0  0.39891  0.52230  0.92550  1.0000
  S   S32       1.0  0.38969  0.55324  0.92663  1.0000
  C   C82       1.0  0.23598  0.41493  0.78947  1.0000
  S   S33       1.0  0.17365  0.26007  0.87459  1.0000
  S   S34       1.0  0.12203  0.27615  0.94897  1.0000
  C   C83       1.0  0.21788  0.38617  0.83475  1.0000
  C   C84       1.0  0.43367  0.32404  0.94899  1.0000
  Fe  Fe12      1.0  0.17731  0.29972  0.90347  1.0000
  H   H124      1.0  0.29289  0.27969  0.77145  1.0000
  C   C85       1.0  0.26428  0.42250  0.00448  1.0000
  H   H125      1.0  0.15310  0.47109  0.83283  1.0000
  H   H126      1.0  0.40872  0.31945  0.94669  1.0000
  H   H127      1.0  0.16324  0.55696  0.97634  1.0000
  S   S35       1.0  0.97075  0.50262  0.89803  1.0000
  S   S36       1.0  0.41008  0.44276  0.91826  1.0000
  H   H128      1.0  0.13325  0.51367  0.00221  1.0000
  C   C86       1.0  0.09498  0.47065  0.96701  1.0000
  H   H129      1.0  0.18605  0.34977  0.94074  1.0000
  C   C87       1.0  0.12194  0.49107  0.86658  1.0000
  H   H130      1.0  0.30665  0.48257  0.89915  1.0000
  H   H131      1.0  0.35623  0.31265  0.80119  1.0000
  C   C88       1.0  0.39531  0.47461  0.97482  1.0000
  H   H132      1.0  0.27334  0.23361  0.88006  1.0000
  H   H133      1.0  0.36598  0.42011  0.84858  1.0000
  S   S37       1.0  0.21021  0.35181  0.81973  1.0000
  C   C89       1.0  0.13184  0.47086  0.88060  1.0000
  S   S38       1.0  0.24505  0.47167  0.86500  1.0000
  Fe  Fe13      1.0  0.37091  0.39036  0.99695  1.0000
  S   S39       1.0  0.32443  0.35235  0.99381  1.0000
  H   H134      1.0  0.45964  0.54713  0.96668  1.0000
  H   H135      1.0  0.09808  0.31142  0.80241  1.0000
  H   H136      1.0  0.27930  0.39361  0.93758  1.0000
  C   C90       1.0  0.22581  0.54827  0.78511  1.0000
  H   H137      1.0  0.32083  0.48111  0.96602  1.0000
  C   C91       1.0  0.12410  0.45123  0.93783  1.0000
  H   H138      1.0  0.97626  0.30604  0.80982  1.0000
  C   C92       1.0  0.40795  0.47684  0.92255  1.0000
  C   C93       1.0  0.31815  0.47107  0.93050  1.0000
  C   C94       1.0  0.00649  0.23094  0.86063  1.0000
  C   C95       1.0  0.25406  0.25429  0.97906  1.0000
  H   H139      1.0  0.34370  0.48029  0.89907  1.0000
  S   S40       1.0  0.45467  0.30309  0.79961  1.0000
  Fe  Fe14      1.0  0.11866  0.23506  0.92488  1.0000
  H   H140      1.0  0.09138  0.51279  0.89529  1.0000
  H   H141      1.0  0.28191  0.39101  0.76739  1.0000
  C   C96       1.0  0.10606  0.45144  0.98112  1.0000
  N   N8        1.0  0.29798  0.43375  0.96340  1.0000
  C   C97       1.0  0.28166  0.26892  0.98252  1.0000
  C   C98       1.0  0.37806  0.44147  0.78283  1.0000
  H   H142      1.0  0.28498  0.43303  0.88053  1.0000
  C   C99       1.0  0.35166  0.25768  0.79219  1.0000
  H   H143      1.0  0.02089  0.54352  0.93167  1.0000
  Fe  Fe15      1.0  0.22149  0.46647  0.96128  1.0000
  H   H144      1.0  0.44875  0.32880  0.90159  1.0000
  C   C100      1.0  0.31395  0.41957  0.00464  1.0000
  H   H145      1.0  0.98105  0.54302  0.76904  1.0000
  H   H146      1.0  0.42937  0.26816  0.94849  1.0000
  C   C101      1.0  0.20632  0.38199  0.88955  1.0000
  C   C102      1.0  0.33477  0.28761  0.83848  1.0000
  H   H147      1.0  0.13725  0.43027  0.95281  1.0000
  H   H148      1.0  0.31885  0.38940  0.76977  1.0000
  H   H149      1.0  0.20024  0.40159  0.96064  1.0000
  H   H150      1.0  0.21154  0.55278  0.81939  1.0000
  H   H151      1.0  0.24105  0.27313  0.94778  1.0000
  H   H152      1.0  0.06080  0.24238  0.94045  1.0000
  H   H153      1.0  0.14049  0.32954  0.80102  1.0000
  C   C103      1.0  0.41464  0.26451  0.99506  1.0000
  H   H154      1.0  0.37359  0.47993  0.80799  1.0000
  H   H155      1.0  0.34267  0.27869  0.88010  1.0000
  C   C104      1.0  0.24299  0.43951  0.79886  1.0000
  H   H156      1.0  0.38920  0.25845  0.99403  1.0000
  H   H157      1.0  0.01264  0.46192  0.78106  1.0000
  C   C105      1.0  0.12162  0.31087  0.79079  1.0000
  N   N9        1.0  0.43069  0.29498  0.00364  1.0000
  H   H158      1.0  0.06974  0.51065  0.80782  1.0000
  C   C106      1.0  0.05334  0.51868  0.78653  1.0000
  H   H159      1.0  0.07559  0.47205  0.01487  1.0000
  H   H160      1.0  0.05410  0.46841  0.76962  1.0000
  H   H161      1.0  0.29241  0.55858  0.00015  1.0000
  H   H162      1.0  0.34407  0.23865  0.77420  1.0000
  Fe  Fe16      1.0  0.96142  0.48646  0.00371  1.0000
  H   H163      1.0  0.98450  0.39411  0.07963  1.0000
  S   S41       1.0  0.39757  0.34437  0.18375  1.0000
  H   H164      1.0  0.05250  0.55264  0.25229  1.0000
  S   S42       1.0  0.32801  0.51626  0.11248  1.0000
  H   H165      1.0  0.04730  0.27448  0.20592  1.0000
  C   C107      1.0  0.10452  0.53710  0.06306  1.0000
  Fe  Fe17      1.0  0.30091  0.33664  0.09882  1.0000
  Fe  Fe18      1.0  0.15625  0.44920  0.05278  1.0000
  S   S43       1.0  0.40699  0.53846  0.08699  1.0000
  H   H166      1.0  0.07517  0.32616  0.22058  1.0000
  C   C108      1.0  0.98122  0.38544  0.20080  1.0000
  H   H167      1.0  0.01638  0.35389  0.23259  1.0000
  C   C109      1.0  0.09655  0.33771  0.17511  1.0000
  C   C110      1.0  0.16946  0.24072  0.18125  1.0000
  H   H168      1.0  0.06998  0.27045  0.14519  1.0000
  Fe  Fe19      1.0  0.36387  0.34118  0.12602  1.0000
  S   S44       1.0  0.98000  0.45560  0.06327  1.0000
  H   H169      1.0  0.09214  0.53950  0.10345  1.0000
  H   H170      1.0  0.38462  0.28372  0.06650  1.0000
  Fe  Fe20      1.0  0.35966  0.51057  0.17316  1.0000
  Fe  Fe21      1.0  0.34099  0.31503  0.03234  1.0000
  Fe  Fe22      1.0  0.98085  0.48229  0.12254  1.0000
  S   S45       1.0  0.22160  0.42001  0.18933  1.0000
  C   C111      1.0  0.37255  0.39500  0.25939  1.0000
  S   S46       1.0  0.36950  0.55664  0.18434  1.0000
  C   C112      1.0  0.21677  0.23542  0.14472  1.0000
  S   S47       1.0  0.02366  0.50512  0.15220  1.0000
  H   H171      1.0  0.08489  0.51724  0.05650  1.0000
  H   H172      1.0  0.96898  0.49528  0.24270  1.0000
  C   C113      1.0  0.07083  0.54387  0.25234  1.0000
  C   C114      1.0  0.02397  0.37150  0.18052  1.0000
  H   H173      1.0  0.26787  0.50431  0.20963  1.0000
  H   H174      1.0  0.11947  0.35444  0.18031  1.0000
  C   C115      1.0  0.01880  0.53664  0.16265  1.0000
  H   H175      1.0  0.13019  0.30813  0.09073  1.0000
  H   H176      1.0  0.45313  0.37037  0.22246  1.0000
  H   H177      1.0  0.13292  0.48841  0.14653  1.0000
  C   C116      1.0  0.21194  0.34795  0.15703  1.0000
  H   H178      1.0  0.40728  0.26730  0.10773  1.0000
  H   H179      1.0  0.97237  0.36925  0.25407  1.0000
  C   C117      1.0  0.40694  0.48425  0.24513  1.0000
  C   C118      1.0  0.41018  0.28918  0.06557  1.0000
  H   H180      1.0  0.17759  0.36850  0.16727  1.0000
  H   H181      1.0  0.27564  0.40923  0.19974  1.0000
  H   H182      1.0  0.01761  0.38542  0.06462  1.0000
  H   H183      1.0  0.31782  0.42944  0.04021  1.0000
  H   H184      1.0  0.26526  0.42992  0.04380  1.0000
  H   H185      1.0  0.17178  0.25636  0.13150  1.0000
  H   H186      1.0  0.23180  0.25087  0.16532  1.0000
  H   H187      1.0  0.41205  0.24201  0.03506  1.0000
  S   S48       1.0  0.10010  0.23406  0.14065  1.0000
  C   C119      1.0  0.12731  0.32747  0.10100  1.0000
  Fe  Fe23      1.0  0.21049  0.44593  0.10381  1.0000
  S   S49       1.0  0.18222  0.42009  0.05254  1.0000
  H   H188      1.0  0.29825  0.39158  0.03279  1.0000
  C   C120      1.0  0.11429  0.49455  0.13105  1.0000
  H   H189      1.0  0.30038  0.53473  0.26369  1.0000
  H   H190      1.0  0.00285  0.28865  0.22754  1.0000
  H   H191      1.0  0.97872  0.32668  0.15448  1.0000
  S   S50       1.0  0.34560  0.37783  0.09887  1.0000
  H   H192      1.0  0.06087  0.30394  0.12192  1.0000
  H   H193      1.0  0.15972  0.51254  0.22051  1.0000
  H   H194      1.0  0.16854  0.52372  0.02717  1.0000
  C   C121      1.0  0.14966  0.53090  0.01789  1.0000
  C   C122      1.0  0.15352  0.55369  0.09292  1.0000
  N   N10       1.0  0.09963  0.31140  0.16283  1.0000
  H   H195      1.0  0.24801  0.39456  0.02756  1.0000
  H   H196      1.0  0.37332  0.41903  0.25141  1.0000
  C   C123      1.0  0.22721  0.38829  0.18126  1.0000
  C   C124      1.0  0.43179  0.40841  0.09932  1.0000
  H   H197      1.0  0.10836  0.27067  0.20966  1.0000
  C   C125      1.0  0.43257  0.49217  0.25777  1.0000
  H   H198      1.0  0.18427  0.25845  0.19781  1.0000
  N   N11       1.0  0.99509  0.37211  0.16416  1.0000
  C   C126      1.0  0.98909  0.55095  0.20895  1.0000
  C   C127      1.0  0.10635  0.29108  0.21666  1.0000
  H   H199      1.0  0.09906  0.47508  0.11797  1.0000
  C   C128      1.0  0.43099  0.38651  0.14695  1.0000
  H   H200      1.0  0.35024  0.37983  0.25036  1.0000
  H   H201      1.0  0.28658  0.36634  0.17631  1.0000
  S   S51       1.0  0.10274  0.43036  0.06164  1.0000
  H   H202      1.0  0.18899  0.32576  0.14205  1.0000
  C   C129      1.0  0.20668  0.36834  0.16839  1.0000
  H   H203      1.0  0.15152  0.34440  0.10213  1.0000
  H   H204      1.0  0.02477  0.42055  0.07942  1.0000
  S   S52       1.0  0.38963  0.35429  0.02452  1.0000
  H   H205      1.0  0.14038  0.55230  0.13815  1.0000
  H   H206      1.0  0.12295  0.34283  0.05936  1.0000
  H   H207      1.0  0.17441  0.54923  0.09985  1.0000
  C   C130      1.0  0.45347  0.43803  0.07618  1.0000
  H   H208      1.0  0.07475  0.53985  0.20909  1.0000
  C   C131      1.0  0.45299  0.39459  0.17006  1.0000
  H   H209      1.0  0.39504  0.40149  0.22189  1.0000
  H   H210      1.0  0.40960  0.40094  0.06852  1.0000
  Fe  Fe24      1.0  0.12697  0.24629  0.04020  1.0000
  C   C132      1.0  0.96923  0.33749  0.18140  1.0000
  C   C133      1.0  0.99321  0.52882  0.20316  1.0000
  C   C134      1.0  0.23799  0.34785  0.15753  1.0000
  S   S53       1.0  0.18129  0.47153  0.11121  1.0000
  S   S54       1.0  0.24695  0.32201  0.13163  1.0000
  H   H211      1.0  0.09735  0.49149  0.17423  1.0000
  H   H212      1.0  0.13006  0.30681  0.22114  1.0000
  H   H213      1.0  0.23140  0.46330  0.25806  1.0000
  C   C135      1.0  0.25269  0.38743  0.18401  1.0000
  H   H214      1.0  0.04314  0.39694  0.17133  1.0000
  Fe  Fe25      1.0  0.37641  0.54787  0.02705  1.0000
  H   H215      1.0  0.09231  0.35412  0.13475  1.0000
  H   H216      1.0  0.00009  0.41150  0.18925  1.0000
  H   H217      1.0  0.42151  0.31165  0.07379  1.0000
  H   H218      1.0  0.45241  0.46206  0.02496  1.0000
  C   C136      1.0  0.06811  0.28925  0.15859  1.0000
  S   S55       1.0  0.96758  0.51699  0.05665  1.0000
  H   H219      1.0  0.37468  0.49327  0.03530  1.0000
  H   H220      1.0  0.22228  0.25328  0.09395  1.0000
  H   H221      1.0  0.03619  0.36329  0.15139  1.0000
  C   C137      1.0  0.00598  0.39404  0.09382  1.0000
  H   H222      1.0  0.40865  0.48796  0.18389  1.0000
  N   N12       1.0  0.13050  0.52905  0.07626  1.0000
  S   S56       1.0  0.31639  0.29824  0.13709  1.0000
  C   C138      1.0  0.25818  0.36732  0.17179  1.0000
  H   H223      1.0  0.38660  0.44713  0.03227  1.0000
  C   C139      1.0  0.25648  0.48048  0.25599  1.0000
  H   H224      1.0  0.27200  0.46860  0.25316  1.0000
  H   H225      1.0  0.11496  0.56132  0.01845  1.0000
  Fe  Fe26      1.0  0.22092  0.51423  0.01602  1.0000
  H   H226      1.0  0.08589  0.27852  0.26396  1.0000
  H   H227      1.0  0.40277  0.46841  0.41826  1.0000
  C   C140      1.0  0.30630  0.47491  0.44446  1.0000
  S   S57       1.0  0.28018  0.36243  0.49375  1.0000
  N   N13       1.0  0.37124  0.37637  0.32559  1.0000
  C   C141      1.0  0.18711  0.36545  0.37694  1.0000
  H   H228      1.0  0.19440  0.34591  0.38566  1.0000
  H   H229      1.0  0.13510  0.30271  0.46012  1.0000
  C   C142      1.0  0.20032  0.27016  0.31927  1.0000
  C   C143      1.0  0.37999  0.47157  0.28738  1.0000
  C   C144      1.0  0.12983  0.32382  0.44801  1.0000
  H   H230      1.0  0.18223  0.28789  0.46202  1.0000
  H   H231      1.0  0.43264  0.53765  0.34744  1.0000
  S   S58       1.0  0.96543  0.33939  0.49562  1.0000
  S   S59       1.0  0.02081  0.26291  0.33421  1.0000
  S   S60       1.0  0.34421  0.53758  0.41426  1.0000
  S   S61       1.0  0.08330  0.25402  0.41315  1.0000
  S   S62       1.0  0.00988  0.40093  0.34542  1.0000
  H   H232      1.0  0.27802  0.42253  0.45538  1.0000
  C   C145      1.0  0.28282  0.44568  0.47806  1.0000
  H   H233      1.0  0.04177  0.49481  0.41595  1.0000
  C   C146      1.0  0.37852  0.46559  0.34340  1.0000
  H   H234      1.0  0.03431  0.48052  0.27294  1.0000
  C   C147      1.0  0.14264  0.47753  0.40333  1.0000
  H   H235      1.0  0.00807  0.48999  0.31656  1.0000
  H   H236      1.0  0.25347  0.44194  0.37292  1.0000
  H   H237      1.0  0.32760  0.48395  0.38540  1.0000
  C   C148      1.0  0.98258  0.25420  0.26649  1.0000
  H   H238      1.0  0.15968  0.40030  0.31763  1.0000
  H   H239      1.0  0.10814  0.52454  0.31313  1.0000
  H   H240      1.0  0.97320  0.48272  0.45717  1.0000
  H   H241      1.0  0.41306  0.56059  0.35842  1.0000
  Fe  Fe27      1.0  0.98871  0.39547  0.44327  1.0000
  H   H242      1.0  0.40469  0.41335  0.47031  1.0000
  H   H243      1.0  0.02965  0.52348  0.37136  1.0000
  H   H244      1.0  0.40223  0.38302  0.38338  1.0000
  H   H245      1.0  0.13619  0.46481  0.46921  1.0000
  H   H246      1.0  0.13311  0.33239  0.48542  1.0000
  C   C149      1.0  0.16243  0.50772  0.36627  1.0000
  H   H247      1.0  0.15363  0.31892  0.34251  1.0000
  Fe  Fe28      1.0  0.36841  0.56042  0.47282  1.0000
  H   H248      1.0  0.21294  0.43734  0.37874  1.0000
  C   C150      1.0  0.13264  0.46984  0.32370  1.0000
  H   H249      1.0  0.19184  0.37474  0.41292  1.0000
  C   C151      1.0  0.17179  0.25407  0.35912  1.0000
  H   H250      1.0  0.07710  0.48055  0.35904  1.0000
  H   H251      1.0  0.30464  0.49886  0.30432  1.0000
  C   C152      1.0  0.40442  0.47408  0.35594  1.0000
  C   C153      1.0  0.05021  0.51779  0.36971  1.0000
  N   N14       1.0  0.05886  0.51272  0.31289  1.0000
  C   C154      1.0  0.15343  0.49976  0.28628  1.0000
  H   H252      1.0  0.20442  0.38663  0.32768  1.0000
  C   C155      1.0  0.23876  0.45483  0.37282  1.0000
  H   H253      1.0  0.13468  0.24123  0.45187  1.0000
  H   H254      1.0  0.10515  0.42494  0.42438  1.0000
  S   S63       1.0  0.03749  0.35190  0.41623  1.0000
  H   H255      1.0  0.31824  0.35463  0.36788  1.0000
  H   H256      1.0  0.34640  0.32848  0.32583  1.0000
  C   C156      1.0  0.02904  0.48485  0.31548  1.0000
  C   C157      1.0  0.14687  0.33889  0.33419  1.0000
  Fe  Fe29      1.0  0.01419  0.35028  0.50899  1.0000
  C   C158      1.0  0.12762  0.45864  0.38207  1.0000
  C   C159      1.0  0.97765  0.46260  0.50899  1.0000
  H   H257      1.0  0.10296  0.31303  0.45362  1.0000
  H   H258      1.0  0.25449  0.31076  0.27767  1.0000
  Fe  Fe30      1.0  0.03405  0.22919  0.40232  1.0000
  H   H259      1.0  0.39094  0.34794  0.30165  1.0000
  S   S64       1.0  0.03597  0.40636  0.46372  1.0000
  C   C160      1.0  0.31069  0.49613  0.46314  1.0000
  Fe  Fe31      1.0  0.24126  0.32707  0.47067  1.0000
  C   C161      1.0  0.43158  0.48782  0.31272  1.0000
  S   S65       1.0  0.10717  0.44473  0.29453  1.0000
  Fe  Fe32      1.0  0.98995  0.34535  0.39943  1.0000
  H   H260      1.0  0.19093  0.55243  0.26537  1.0000
  C   C162      1.0  0.16611  0.25988  0.40491  1.0000
  C   C163      1.0  0.14354  0.37886  0.36740  1.0000
  H   H261      1.0  0.40453  0.42091  0.32939  1.0000
  C   C164      1.0  0.28825  0.50977  0.30750  1.0000
  H   H262      1.0  0.36598  0.32855  0.38556  1.0000
  H   H263      1.0  0.40650  0.54401  0.30231  1.0000
  H   H264      1.0  0.23168  0.50858  0.35535  1.0000
  C   C165      1.0  0.16806  0.51879  0.30765  1.0000
  H   H265      1.0  0.28777  0.51458  0.35015  1.0000
  S   S66       1.0  0.18141  0.53500  0.39762  1.0000
  H   H266      1.0  0.14678  0.38912  0.40244  1.0000
  H   H267      1.0  0.23736  0.45900  0.41630  1.0000
  C   C166      1.0  0.18887  0.28219  0.40985  1.0000
  C   C167      1.0  0.42550  0.55615  0.32155  1.0000
  H   H268      1.0  0.11713  0.36947  0.37004  1.0000
  H   H269      1.0  0.34817  0.44933  0.39246  1.0000
  S   S67       1.0  0.24948  0.33271  0.37092  1.0000
  H   H270      1.0  0.33996  0.35588  0.42402  1.0000
  Fe  Fe33      1.0  0.05561  0.40714  0.36994  1.0000
  N   N15       1.0  0.15181  0.35175  0.38174  1.0000
  C   C168      1.0  0.21716  0.29899  0.36838  1.0000
  C   C169      1.0  0.34186  0.36989  0.37342  1.0000
  C   C170      1.0  0.23395  0.50320  0.31342  1.0000
  S   S68       1.0  0.96691  0.31266  0.35496  1.0000
  H   H271      1.0  0.34306  0.39395  0.36717  1.0000
  H   H272      1.0  0.07195  0.53913  0.36875  1.0000
  C   C171      1.0  0.08537  0.50414  0.31421  1.0000
  H   H273      1.0  0.02018  0.46091  0.35949  1.0000
  C   C172      1.0  0.22278  0.29272  0.32360  1.0000
  N   N16       1.0  0.25435  0.48708  0.31243  1.0000
  C   C173      1.0  0.98700  0.23978  0.31593  1.0000
  C   C174      1.0  0.40204  0.39665  0.33443  1.0000
  H   H274      1.0  0.12051  0.32822  0.33648  1.0000
  H   H275      1.0  0.20827  0.48680  0.31672  1.0000
  C   C175      1.0  0.36845  0.34386  0.33520  1.0000
  H   H276      1.0  0.09256  0.50009  0.27218  1.0000
  H   H277      1.0  0.42479  0.40288  0.29774  1.0000
  H   H278      1.0  0.16284  0.35941  0.28392  1.0000
  H   H279      1.0  0.24508  0.52768  0.26845  1.0000
  S   S69       1.0  0.96144  0.42109  0.46111  1.0000
  S   S70       1.0  0.45277  0.39781  0.50780  1.0000
  H   H280      1.0  0.20814  0.26363  0.26892  1.0000
  H   H281      1.0  0.03568  0.25862  0.51148  1.0000
  C   C176      1.0  0.29129  0.48830  0.51506  1.0000
  C   C177      1.0  0.39171  0.37960  0.51221  1.0000
  H   H282      1.0  0.21705  0.54822  0.51069  1.0000
  S   S71       1.0  0.34438  0.46451  0.26608  1.0000
  H   H283      1.0  0.02896  0.52233  0.65721  1.0000
  N   N17       1.0  0.05211  0.51404  0.72835  1.0000
  C   C178      1.0  0.08606  0.53452  0.67876  1.0000
  C   C179      1.0  0.03898  0.47794  0.74638  1.0000
  H   H284      1.0  0.98029  0.29341  0.74819  1.0000
  H   H285      1.0  0.08577  0.53238  0.63346  1.0000
  H   H286      1.0  0.98966  0.33587  0.72564  1.0000
  H   H287      1.0  0.03273  0.28741  0.70360  1.0000
  S   S72       1.0  0.98261  0.46060  0.66547  1.0000
  H   H288      1.0  0.05518  0.24749  0.69751  1.0000
  C   C180      1.0  0.02324  0.28346  0.56666  1.0000
  H   H289      1.0  0.98603  0.40557  0.65827  1.0000
  C   C181      1.0  0.04452  0.26128  0.64970  1.0000
  C   C182      1.0  0.03357  0.27980  0.65273  1.0000
  S   S73       1.0  0.96790  0.53834  0.62831  1.0000
  C   C183      1.0  0.98611  0.45327  0.59816  1.0000
  C   C184      1.0  0.02354  0.29142  0.61034  1.0000
  C   C185      1.0  0.98415  0.42665  0.60362  1.0000
  S   S74       1.0  0.06366  0.23075  0.59784  1.0000
  C   C186      1.0  0.04554  0.25463  0.60441  1.0000
  S   S75       1.0  0.01285  0.32179  0.60845  1.0000
  C   C187      1.0  0.03013  0.52508  0.70168  1.0000
  H   H290      1.0  0.97492  0.38729  0.56962  1.0000
  C   C188      1.0  0.97851  0.41784  0.56184  1.0000
  C   C189      1.0  0.03464  0.26549  0.56312  1.0000
  H   H291      1.0  0.00846  0.29286  0.52344  1.0000
  C   C190      1.0  0.98423  0.47178  0.54959  1.0000
  H   H292      1.0  0.98931  0.50304  0.54017  1.0000
  H   H293      1.0  0.03924  0.55213  0.68809  1.0000
  C   C191      1.0  0.31449  0.27645  0.75714  1.0000
  H   H294      1.0  0.00410  0.50982  0.73743  1.0000
  H   H295      1.0  0.03916  0.47369  0.70315  1.0000
  C   C192      1.0  0.97242  0.30906  0.76310  1.0000
  H   H296      1.0  0.08405  0.29121  0.72473  1.0000
  C   C193      1.0  0.97446  0.43554  0.51533  1.0000
  H   H297      1.0  0.10311  0.52629  0.69653  1.0000
  Fe  Fe34      1.0  0.39456  0.55404  0.58446  1.0000
  H   H298      1.0  0.20127  0.23204  0.68475  1.0000
  H   H299      1.0  0.21920  0.55804  0.63260  1.0000
  H   H300      1.0  0.16273  0.54427  0.53912  1.0000
  C   C194      1.0  0.27996  0.56111  0.72469  1.0000
  C   C195      1.0  0.36845  0.31983  0.58900  1.0000
  H   H301      1.0  0.34054  0.37197  0.51703  1.0000
  C   C196      1.0  0.26757  0.45915  0.54844  1.0000
  H   H302      1.0  0.17986  0.55637  0.65176  1.0000
  C   C197      1.0  0.39867  0.33949  0.56749  1.0000
  S   S76       1.0  0.34571  0.54776  0.57631  1.0000
  Fe  Fe35      1.0  0.23663  0.35737  0.56059  1.0000
  H   H303      1.0  0.32187  0.42629  0.70923  1.0000
  H   H304      1.0  0.41936  0.32776  0.58694  1.0000
  Fe  Fe36      1.0  0.27035  0.31506  0.57618  1.0000
  H   H305      1.0  0.41319  0.50183  0.60010  1.0000
  C   C198      1.0  0.26343  0.43779  0.53005  1.0000
  H   H306      1.0  0.33549  0.30155  0.71842  1.0000
  S   S77       1.0  0.22963  0.39640  0.57833  1.0000
  H   H307      1.0  0.28346  0.33350  0.69887  1.0000
  H   H308      1.0  0.15111  0.35809  0.62694  1.0000
  S   S78       1.0  0.30635  0.30174  0.61238  1.0000
  H   H309      1.0  0.35601  0.28626  0.63115  1.0000
  H   H310      1.0  0.18364  0.52694  0.62753  1.0000
  S   S79       1.0  0.23429  0.28006  0.54843  1.0000
  H   H311      1.0  0.35179  0.42257  0.61999  1.0000
  S   S80       1.0  0.39894  0.52992  0.68007  1.0000
  H   H312      1.0  0.29783  0.42159  0.62412  1.0000
  H   H313      1.0  0.16074  0.37171  0.68578  1.0000
  H   H314      1.0  0.28321  0.38361  0.61651  1.0000
  H   H315      1.0  0.11617  0.29753  0.66026  1.0000
  S   S81       1.0  0.23021  0.31283  0.64537  1.0000
  H   H316      1.0  0.24576  0.45072  0.60640  1.0000
  C   C199      1.0  0.28519  0.39355  0.65211  1.0000
  H   H317      1.0  0.18461  0.33472  0.71900  1.0000
  C   C200      1.0  0.33701  0.39453  0.64928  1.0000
  H   H318      1.0  0.40581  0.44199  0.64067  1.0000
  H   H319      1.0  0.11852  0.35409  0.68628  1.0000
  H   H320      1.0  0.30714  0.25915  0.73518  1.0000
  C   C201      1.0  0.16460  0.31597  0.71080  1.0000
  H   H321      1.0  0.35143  0.38659  0.67767  1.0000
  S   S82       1.0  0.41763  0.35230  0.69576  1.0000
  N   N18       1.0  0.30352  0.38300  0.69215  1.0000
  H   H322      1.0  0.15979  0.29030  0.74291  1.0000
  H   H323      1.0  0.25929  0.38425  0.68252  1.0000
  H   H324      1.0  0.17432  0.32121  0.65995  1.0000
  C   C202      1.0  0.10839  0.29230  0.71175  1.0000
  C   C203      1.0  0.14129  0.35195  0.67860  1.0000
  C   C204      1.0  0.19683  0.55362  0.61858  1.0000
  C   C205      1.0  0.39289  0.48923  0.70524  1.0000
  C   C206      1.0  0.36120  0.35985  0.53432  1.0000
  C   C207      1.0  0.28509  0.34575  0.73072  1.0000
  Fe  Fe37      1.0  0.42471  0.39342  0.72159  1.0000
  Fe  Fe38      1.0  0.45891  0.39347  0.60196  1.0000
  C   C208      1.0  0.38599  0.43249  0.74394  1.0000
  C   C209      1.0  0.30673  0.39817  0.73639  1.0000
  H   H325      1.0  0.26404  0.47154  0.74743  1.0000
  Fe  Fe39      1.0  0.45770  0.35111  0.73480  1.0000
  C   C210      1.0  0.41035  0.36937  0.52948  1.0000
  H   H326      1.0  0.10403  0.26653  0.74139  1.0000
  Fe  Fe40      1.0  0.19485  0.28170  0.61105  1.0000
  C   C211      1.0  0.34958  0.32998  0.57328  1.0000
  H   H327      1.0  0.24875  0.42011  0.72746  1.0000
  H   H328      1.0  0.29496  0.51222  0.53520  1.0000
  S   S83       1.0  0.19866  0.32596  0.53054  1.0000
  H   H329      1.0  0.27154  0.53368  0.74850  1.0000
  C   C212      1.0  0.39729  0.45187  0.68520  1.0000
  S   S84       1.0  0.14415  0.23829  0.67864  1.0000
  H   H330      1.0  0.33535  0.38375  0.61494  1.0000
  H   H331      1.0  0.21789  0.55313  0.74238  1.0000
  C   C213      1.0  0.40051  0.48025  0.66581  1.0000
  N   N19       1.0  0.13393  0.31782  0.72296  1.0000
  H   H332      1.0  0.37364  0.28137  0.75211  1.0000
  H   H333      1.0  0.25914  0.33606  0.76161  1.0000
  C   C214      1.0  0.38176  0.46987  0.76356  1.0000
  H   H334      1.0  0.29770  0.33727  0.76340  1.0000
  H   H335      1.0  0.29779  0.58097  0.81428  1.0000
  H   H336      1.0  0.97941  0.58383  0.87335  1.0000
  C   C215      1.0  0.44242  0.79695  0.93260  1.0000
  H   H337      1.0  0.06959  0.60452  0.85478  1.0000
  Fe  Fe41      1.0  0.35443  0.75844  0.77670  1.0000
  H   H338      1.0  0.44806  0.63209  0.92271  1.0000
  H   H339      1.0  0.08386  0.88018  0.96355  1.0000
  C   C216      1.0  0.13779  0.67721  0.97212  1.0000
  C   C217      1.0  0.45112  0.65178  0.87631  1.0000
  C   C218      1.0  0.07100  0.85589  0.00958  1.0000
  H   H340      1.0  0.38500  0.79288  0.98718  1.0000
  H   H341      1.0  0.12295  0.74436  0.80147  1.0000
  H   H342      1.0  0.02260  0.86856  0.76914  1.0000
  C   C219      1.0  0.96324  0.67734  0.82267  1.0000
  H   H343      1.0  0.10218  0.67763  0.79605  1.0000
  C   C220      1.0  0.96773  0.66765  0.87431  1.0000
  H   H344      1.0  0.05134  0.83657  0.00191  1.0000
  C   C221      1.0  0.17831  0.68557  0.87900  1.0000
  S   S85       1.0  0.06318  0.73648  0.91615  1.0000
  Fe  Fe42      1.0  0.16288  0.61998  0.83916  1.0000
  S   S86       1.0  0.19362  0.60528  0.78865  1.0000
  C   C222      1.0  0.25868  0.64929  0.00126  1.0000
  H   H345      1.0  0.00766  0.75299  0.89604  1.0000
  C   C223      1.0  0.14212  0.65382  0.97468  1.0000
  H   H346      1.0  0.07645  0.68618  0.84323  1.0000
  H   H347      1.0  0.40411  0.82392  0.90315  1.0000
  S   S87       1.0  0.16610  0.62362  0.93005  1.0000
  N   N20       1.0  0.25044  0.67630  0.97761  1.0000
  S   S88       1.0  0.00542  0.66890  0.87429  1.0000
  S   S89       1.0  0.11533  0.58311  0.83750  1.0000
  H   H348      1.0  0.32776  0.67164  0.79962  1.0000
  H   H349      1.0  0.20926  0.68375  0.00278  1.0000
  Fe  Fe43      1.0  0.03619  0.72761  0.01358  1.0000
  H   H350      1.0  0.20200  0.69102  0.82726  1.0000
  C   C224      1.0  0.30151  0.58820  0.94658  1.0000
  Fe  Fe44      1.0  0.38860  0.71652  0.80485  1.0000
  S   S90       1.0  0.35521  0.72723  0.00046  1.0000
  H   H351      1.0  0.27677  0.69499  0.87662  1.0000
  S   S91       1.0  0.38467  0.79244  0.81285  1.0000
  S   S92       1.0  0.05392  0.66160  0.98993  1.0000
  C   C225      1.0  0.44064  0.68470  0.92297  1.0000
  C   C226      1.0  0.40626  0.81860  0.95167  1.0000
  H   H352      1.0  0.28431  0.65754  0.97182  1.0000
  Fe  Fe45      1.0  0.14706  0.57229  0.77841  1.0000
  S   S93       1.0  0.14552  0.73720  0.91722  1.0000
  H   H353      1.0  0.06892  0.73524  0.78879  1.0000
  H   H354      1.0  0.42349  0.77033  0.96883  1.0000
  H   H355      1.0  0.42606  0.64334  0.87182  1.0000
  H   H356      1.0  0.45075  0.70930  0.92404  1.0000
  H   H357      1.0  0.40271  0.83662  0.96572  1.0000
  S   S94       1.0  0.23805  0.56886  0.98450  1.0000
  C   C227      1.0  0.16196  0.65782  0.92772  1.0000
  S   S95       1.0  0.34323  0.71212  0.86185  1.0000
  C   C228      1.0  0.17427  0.70909  0.87675  1.0000
  C   C229      1.0  0.05004  0.60180  0.77403  1.0000
  H   H358      1.0  0.37295  0.68802  0.95557  1.0000
  H   H359      1.0  0.03797  0.87974  0.86304  1.0000
  H   H360      1.0  0.43970  0.80112  0.88482  1.0000
  H   H361      1.0  0.23401  0.66294  0.90650  1.0000
  H   H362      1.0  0.26812  0.72658  0.96584  1.0000
  H   H363      1.0  0.39078  0.61031  0.80962  1.0000
  S   S96       1.0  0.42248  0.74846  0.84066  1.0000
  H   H364      1.0  0.45052  0.70598  0.79541  1.0000
  Fe  Fe46      1.0  0.37679  0.74571  0.89384  1.0000
  S   S97       1.0  0.38256  0.66598  0.82370  1.0000
  H   H365      1.0  0.41708  0.67902  0.91289  1.0000
  H   H366      1.0  0.24500  0.70520  0.89115  1.0000
  Fe  Fe47      1.0  0.02445  0.68313  0.94667  1.0000
  H   H367      1.0  0.43398  0.66507  0.97231  1.0000
  H   H368      1.0  0.24115  0.62635  0.99924  1.0000
  H   H369      1.0  0.19274  0.74013  0.82183  1.0000
  C   C230      1.0  0.08509  0.68796  0.79478  1.0000
  C   C231      1.0  0.33131  0.60796  0.91202  1.0000
  H   H370      1.0  0.96942  0.72408  0.00734  1.0000
  C   C232      1.0  0.27092  0.56370  0.82553  1.0000
  H   H371      1.0  0.06283  0.67093  0.78825  1.0000
  H   H372      1.0  0.35483  0.59970  0.92687  1.0000
  C   C233      1.0  0.04681  0.58799  0.83133  1.0000
  C   C234      1.0  0.25157  0.68523  0.91017  1.0000
  H   H373      1.0  0.96766  0.61466  0.84145  1.0000
  C   C235      1.0  0.96443  0.87542  0.87242  1.0000
  C   C236      1.0  0.33994  0.63536  0.86646  1.0000
  C   C237      1.0  0.97116  0.78016  0.92435  1.0000
  H   H374      1.0  0.97686  0.80063  0.87646  1.0000
  C   C238      1.0  0.28048  0.59587  0.93513  1.0000
  H   H375      1.0  0.97964  0.86880  0.84531  1.0000
  C   C239      1.0  0.28910  0.62281  0.88828  1.0000
  C   C240      1.0  0.98615  0.74902  0.87922  1.0000
  C   C241      1.0  0.27472  0.70647  0.97981  1.0000
  C   C242      1.0  0.15363  0.70475  0.92296  1.0000
  H   H376      1.0  0.34781  0.62390  0.01464  1.0000
  H   H377      1.0  0.99448  0.78777  0.93556  1.0000
  N   N21       1.0  0.43862  0.82106  0.95186  1.0000
  H   H378      1.0  0.25614  0.56769  0.85997  1.0000
  H   H379      1.0  0.99573  0.76996  0.82933  1.0000
  H   H380      1.0  0.26570  0.63138  0.87374  1.0000
  H   H381      1.0  0.30033  0.71757  0.94638  1.0000
  Fe  Fe48      1.0  0.09069  0.71440  0.96693  1.0000
  H   H382      1.0  0.97748  0.72559  0.87456  1.0000
  C   C243      1.0  0.31871  0.64227  0.85363  1.0000
  H   H383      1.0  0.42730  0.61262  0.76636  1.0000
  N   N22       1.0  0.26228  0.56977  0.76642  1.0000
  H   H384      1.0  0.11538  0.67241  0.02502  1.0000
  Fe  Fe49      1.0  0.20774  0.65379  0.24821  1.0000
  H   H385      1.0  0.06544  0.68965  0.20240  1.0000
  H   H386      1.0  0.41819  0.78724  0.05415  1.0000
  H   H387      1.0  0.02850  0.82838  0.16757  1.0000
  H   H388      1.0  0.25759  0.64166  0.05231  1.0000
  H   H389      1.0  0.14616  0.70377  0.21063  1.0000
  C   C244      1.0  0.16406  0.71454  0.16111  1.0000
  C   C245      1.0  0.03604  0.58870  0.13359  1.0000
  C   C246      1.0  0.34864  0.66953  0.01633  1.0000
  Fe  Fe50      1.0  0.34075  0.56429  0.11863  1.0000
  H   H390      1.0  0.21490  0.65764  0.07070  1.0000
  H   H391      1.0  0.41026  0.63313  0.10362  1.0000
  C   C247      1.0  0.20926  0.75032  0.18388  1.0000
  H   H392      1.0  0.35456  0.64948  0.17909  1.0000
  S   S98       1.0  0.06668  0.70955  0.06258  1.0000
  H   H393      1.0  0.02127  0.87391  0.09139  1.0000
  H   H394      1.0  0.97832  0.78773  0.03973  1.0000
  C   C248      1.0  0.32036  0.77554  0.07296  1.0000
  N   N23       1.0  0.19093  0.74962  0.13843  1.0000
  Fe  Fe51      1.0  0.36305  0.79885  0.20973  1.0000
  H   H395      1.0  0.36564  0.70808  0.13504  1.0000
  C   C249      1.0  0.03928  0.82658  0.12448  1.0000
  C   C250      1.0  0.44482  0.61285  0.24039  1.0000
  H   H396      1.0  0.39036  0.65993  0.20321  1.0000
  H   H397      1.0  0.09490  0.56478  0.24578  1.0000
  S   S99       1.0  0.99514  0.67580  0.04051  1.0000
  S   S100      1.0  0.20680  0.81415  0.22468  1.0000
  H   H398      1.0  0.16191  0.77119  0.10211  1.0000
  C   C251      1.0  0.33815  0.68320  0.04118  1.0000
  H   H399      1.0  0.32866  0.74164  0.21797  1.0000
  C   C252      1.0  0.31610  0.62181  0.10018  1.0000
  C   C253      1.0  0.27798  0.72595  0.13294  1.0000
  C   C254      1.0  0.37571  0.70993  0.17408  1.0000
  H   H400      1.0  0.12414  0.62305  0.03015  1.0000
  S   S101      1.0  0.36808  0.80691  0.10862  1.0000
  Fe  Fe52      1.0  0.02772  0.65822  0.08203  1.0000
  H   H401      1.0  0.27220  0.69398  0.23536  1.0000
  C   C255      1.0  0.44260  0.68829  0.07403  1.0000
  H   H402      1.0  0.16505  0.57997  0.05328  1.0000
  C   C256      1.0  0.98997  0.74733  0.09285  1.0000
  N   N24       1.0  0.05647  0.85945  0.06483  1.0000
  S   S102      1.0  0.00314  0.61246  0.17911  1.0000
  C   C257      1.0  0.29363  0.75217  0.08075  1.0000
  H   H403      1.0  0.19258  0.74121  0.23354  1.0000
  C   C258      1.0  0.31594  0.66605  0.09496  1.0000
  H   H404      1.0  0.22539  0.74631  0.07392  1.0000
  C   C259      1.0  0.33752  0.63891  0.04564  1.0000
  C   C260      1.0  0.97213  0.75979  0.09375  1.0000
  C   C261      1.0  0.05936  0.68073  0.25544  1.0000
  C   C262      1.0  0.44108  0.66146  0.08245  1.0000
  S   S103      1.0  0.30284  0.57871  0.14544  1.0000
  S   S104      1.0  0.38652  0.59588  0.02911  1.0000
  C   C263      1.0  0.04027  0.56657  0.12798  1.0000
  C   C264      1.0  0.28761  0.83296  0.25302  1.0000
  H   H405      1.0  0.37273  0.72940  0.18344  1.0000
  C   C265      1.0  0.43959  0.81278  0.01790  1.0000
  H   H406      1.0  0.05668  0.81733  0.13584  1.0000
  C   C266      1.0  0.36344  0.65213  0.21887  1.0000
  C   C267      1.0  0.21426  0.76243  0.07319  1.0000
  H   H407      1.0  0.30276  0.68102  0.12145  1.0000
  H   H408      1.0  0.14964  0.71312  0.12805  1.0000
  H   H409      1.0  0.06124  0.62197  0.09737  1.0000
  H   H410      1.0  0.42598  0.60351  0.21853  1.0000
  C   C268      1.0  0.24022  0.82724  0.25238  1.0000
  H   H411      1.0  0.31118  0.66242  0.21970  1.0000
  S   S105      1.0  0.23928  0.69328  0.14455  1.0000
  H   H412      1.0  0.45466  0.87933  0.13869  1.0000
  H   H413      1.0  0.27994  0.61618  0.18503  1.0000
  H   H414      1.0  0.00430  0.66310  0.22209  1.0000
  C   C269      1.0  0.98409  0.72253  0.14171  1.0000
  C   C270      1.0  0.28928  0.72303  0.17670  1.0000
  H   H415      1.0  0.01158  0.85174  0.04449  1.0000
  N   N25       1.0  0.35832  0.67694  0.23358  1.0000
  H   H416      1.0  0.15922  0.76289  0.18416  1.0000
  H   H417      1.0  0.31675  0.83511  0.22398  1.0000
  Fe  Fe53      1.0  0.41408  0.58459  0.09399  1.0000
  H   H418      1.0  0.00335  0.70780  0.14021  1.0000
  C   C271      1.0  0.03052  0.71146  0.25654  1.0000
  H   H419      1.0  0.40298  0.71958  0.15420  1.0000
  C   C272      1.0  0.31612  0.74618  0.16867  1.0000
  C   C273      1.0  0.17626  0.77130  0.13535  1.0000
  S   S106      1.0  0.16938  0.60374  0.26148  1.0000
  C   C274      1.0  0.30482  0.63528  0.12455  1.0000
  H   H420      1.0  0.41370  0.68979  0.08355  1.0000
  H   H421      1.0  0.27015  0.82190  0.17619  1.0000
  S   S107      1.0  0.02445  0.76600  0.02237  1.0000
  H   H422      1.0  0.06873  0.57580  0.08119  1.0000
  C   C275      1.0  0.33154  0.77265  0.11707  1.0000
  C   C276      1.0  0.01021  0.58095  0.17330  1.0000
  H   H423      1.0  0.22080  0.73435  0.18752  1.0000
  H   H424      1.0  0.01854  0.80674  0.12007  1.0000
  S   S108      1.0  0.38542  0.83867  0.24020  1.0000
  H   H425      1.0  0.03667  0.72207  0.20322  1.0000
  C   C277      1.0  0.32221  0.66491  0.25707  1.0000
  H   H426      1.0  0.17445  0.69767  0.16319  1.0000
  H   H427      1.0  0.22973  0.77642  0.16792  1.0000
  S   S109      1.0  0.01012  0.86511  0.22566  1.0000
  C   C278      1.0  0.26568  0.82754  0.22914  1.0000
  C   C279      1.0  0.03239  0.87054  0.05103  1.0000
  H   H428      1.0  0.19602  0.79802  0.11773  1.0000
  H   H429      1.0  0.10175  0.87726  0.08529  1.0000
  H   H430      1.0  0.20142  0.76269  0.03732  1.0000
  H   H431      1.0  0.23525  0.78863  0.05502  1.0000
  H   H432      1.0  0.45038  0.56953  0.19943  1.0000
  H   H433      1.0  0.28138  0.75608  0.03086  1.0000
  H   H434      1.0  0.43802  0.83116  0.03331  1.0000
  H   H435      1.0  0.34969  0.62659  0.26194  1.0000
  H   H436      1.0  0.27615  0.70019  0.02905  1.0000
  C   C280      1.0  0.08325  0.88490  0.07420  1.0000
  H   H437      1.0  0.07282  0.88803  0.11564  1.0000
  H   H438      1.0  0.05048  0.73008  0.26492  1.0000
  H   H439      1.0  0.19758  0.64136  0.01940  1.0000
  C   C281      1.0  0.21653  0.66419  0.01960  1.0000
  C   C282      1.0  0.96143  0.71140  0.19261  1.0000
  H   H440      1.0  0.33692  0.80525  0.01531  1.0000
  H   H441      1.0  0.08945  0.84774  0.01796  1.0000
  H   H442      1.0  0.97276  0.89428  0.25985  1.0000
  H   H443      1.0  0.08048  0.69847  0.26319  1.0000
  C   C283      1.0  0.01185  0.75321  0.33722  1.0000
  Fe  Fe54      1.0  0.12829  0.81330  0.39801  1.0000
  S   S110      1.0  0.07670  0.77286  0.42091  1.0000
  H   H444      1.0  0.99675  0.85922  0.37934  1.0000
  H   H445      1.0  0.03987  0.68292  0.36694  1.0000
  H   H446      1.0  0.99838  0.62901  0.29320  1.0000
  C   C284      1.0  0.01883  0.86353  0.39458  1.0000
  H   H447      1.0  0.17268  0.69547  0.37522  1.0000
  C   C285      1.0  0.12617  0.68825  0.43728  1.0000
  C   C286      1.0  0.14681  0.67920  0.43340  1.0000
  Fe  Fe55      1.0  0.17712  0.58126  0.35455  1.0000
  S   S111      1.0  0.14006  0.83556  0.29025  1.0000
  C   C287      1.0  0.02422  0.82236  0.36850  1.0000
  H   H448      1.0  0.97209  0.56658  0.34269  1.0000
  H   H449      1.0  0.04996  0.84814  0.47615  1.0000
  H   H450      1.0  0.05313  0.81663  0.45914  1.0000
  H   H451      1.0  0.01557  0.58223  0.49432  1.0000
  C   C288      1.0  0.05097  0.83959  0.43861  1.0000
  S   S112      1.0  0.07449  0.68826  0.49514  1.0000
  S   S113      1.0  0.17467  0.64429  0.47567  1.0000
  C   C289      1.0  0.14511  0.65698  0.48159  1.0000
  S   S114      1.0  0.08907  0.60796  0.28905  1.0000
  C   C290      1.0  0.10350  0.67481  0.48928  1.0000
  C   C291      1.0  0.98953  0.70576  0.42145  1.0000
  H   H452      1.0  0.99334  0.68077  0.46379  1.0000
  H   H453      1.0  0.12898  0.71353  0.38266  1.0000
  Fe  Fe56      1.0  0.09950  0.74154  0.41695  1.0000
  S   S115      1.0  0.13676  0.84308  0.45262  1.0000
  N   N26       1.0  0.02123  0.83268  0.41958  1.0000
  C   C292      1.0  0.01872  0.58104  0.43640  1.0000
  C   C293      1.0  0.04653  0.58977  0.40058  1.0000
  S   S116      1.0  0.15018  0.78022  0.40322  1.0000
  C   C294      1.0  0.99477  0.57390  0.41755  1.0000
  H   H454      1.0  0.07372  0.59973  0.41979  1.0000
  S   S117      1.0  0.13617  0.58326  0.41250  1.0000
  C   C295      1.0  0.99086  0.80507  0.47651  1.0000
  C   C296      1.0  0.02026  0.66534  0.35615  1.0000
  S   S118      1.0  0.04868  0.78958  0.27568  1.0000
  H   H455      1.0  0.04626  0.84278  0.32376  1.0000
  C   C297      1.0  0.99843  0.57438  0.36474  1.0000
  H   H456      1.0  0.99573  0.66143  0.38102  1.0000
  H   H457      1.0  0.99175  0.78134  0.49627  1.0000
  C   C298      1.0  0.01419  0.73071  0.37669  1.0000
  Fe  Fe57      1.0  0.17709  0.63402  0.39086  1.0000
  H   H458      1.0  0.04424  0.73200  0.37055  1.0000
  H   H459      1.0  0.21097  0.83745  0.31964  1.0000
  H   H460      1.0  0.01616  0.87189  0.43207  1.0000
  C   C299      1.0  0.04997  0.59124  0.34664  1.0000
  H   H461      1.0  0.01884  0.64061  0.37911  1.0000
  H   H462      1.0  0.96797  0.79943  0.46382  1.0000
  C   C300      1.0  0.98412  0.75037  0.34261  1.0000
  H   H463      1.0  0.19820  0.73967  0.41856  1.0000
  H   H464      1.0  0.04137  0.88488  0.35171  1.0000
  H   H465      1.0  0.20180  0.76625  0.48866  1.0000
  H   H466      1.0  0.02694  0.79970  0.38529  1.0000
  C   C301      1.0  0.02587  0.58317  0.32951  1.0000
  H   H467      1.0  0.00183  0.81603  0.35406  1.0000
  Fe  Fe58      1.0  0.09006  0.79156  0.31371  1.0000
  Fe  Fe59      1.0  0.15942  0.80018  0.29648  1.0000
  H   H468      1.0  0.98100  0.77525  0.29798  1.0000
  S   S119      1.0  0.11051  0.75806  0.31064  1.0000
  Fe  Fe60      1.0  0.13263  0.61087  0.31815  1.0000
  S   S120      1.0  0.17041  0.66169  0.30055  1.0000
  H   H469      1.0  0.18256  0.58799  0.48164  1.0000
  C   C302      1.0  0.00027  0.65404  0.27457  1.0000
  H   H470      1.0  0.02984  0.58525  0.26899  1.0000
  H   H471      1.0  0.97567  0.64976  0.30000  1.0000
  H   H472      1.0  0.05790  0.65578  0.27649  1.0000
  H   H473      1.0  0.00676  0.71011  0.27759  1.0000
  N   N27       1.0  0.02764  0.67793  0.28563  1.0000
  H   H474      1.0  0.07447  0.85962  0.39646  1.0000
  C   C303      1.0  0.96192  0.70278  0.42799  1.0000
  S   S121      1.0  0.41540  0.56157  0.48450  1.0000
  H   H475      1.0  0.39944  0.69154  0.26733  1.0000
  C   C304      1.0  0.37190  0.68072  0.28447  1.0000
  C   C305      1.0  0.23752  0.83400  0.29758  1.0000
  H   H476      1.0  0.23774  0.59254  0.45571  1.0000
  C   C306      1.0  0.22585  0.76720  0.48896  1.0000
  H   H477      1.0  0.23074  0.63143  0.48977  1.0000
  S   S122      1.0  0.31207  0.77336  0.28328  1.0000
  C   C307      1.0  0.28402  0.83775  0.30057  1.0000
  H   H478      1.0  0.36667  0.69765  0.29970  1.0000
  S   S123      1.0  0.37859  0.76540  0.27153  1.0000
  H   H479      1.0  0.31743  0.68271  0.26988  1.0000
  Fe  Fe61      1.0  0.39650  0.80270  0.30915  1.0000
  Fe  Fe62      1.0  0.33565  0.81047  0.31898  1.0000
  S   S124      1.0  0.31136  0.83751  0.34359  1.0000
  S   S125      1.0  0.44605  0.82304  0.32126  1.0000
  C   C308      1.0  0.25939  0.83919  0.32178  1.0000
  H   H480      1.0  0.31140  0.70462  0.48622  1.0000
  C   C309      1.0  0.22228  0.74094  0.41941  1.0000
  H   H481      1.0  0.39836  0.75231  0.39858  1.0000
  H   H482      1.0  0.36050  0.65599  0.32883  1.0000
  C   C310      1.0  0.42218  0.76507  0.42388  1.0000
  S   S126      1.0  0.21843  0.63078  0.33758  1.0000
  H   H483      1.0  0.35721  0.82079  0.47244  1.0000
  C   C311      1.0  0.44484  0.79485  0.39405  1.0000
  Fe  Fe63      1.0  0.32863  0.74201  0.34687  1.0000
  Fe  Fe64      1.0  0.43516  0.61677  0.45106  1.0000
  H   H484      1.0  0.24247  0.76498  0.37664  1.0000
  C   C312      1.0  0.22928  0.57381  0.50751  1.0000
  H   H485      1.0  0.43631  0.82624  0.48646  1.0000
  H   H486      1.0  0.38410  0.77336  0.50954  1.0000
  N   N28       1.0  0.22708  0.73927  0.48068  1.0000
  C   C313      1.0  0.44164  0.75727  0.50040  1.0000
  H   H487      1.0  0.28043  0.76657  0.43630  1.0000
  S   S127      1.0  0.34784  0.77662  0.39064  1.0000
  S   S128      1.0  0.29524  0.68624  0.38978  1.0000
  H   H488      1.0  0.43375  0.61825  0.27727  1.0000
  H   H489      1.0  0.30182  0.62964  0.41099  1.0000
  C   C314      1.0  0.25993  0.74244  0.47816  1.0000
  H   H490      1.0  0.22234  0.71973  0.41239  1.0000
  H   H491      1.0  0.26147  0.72134  0.47312  1.0000
  H   H492      1.0  0.39433  0.85834  0.45630  1.0000
  H   H493      1.0  0.39752  0.82934  0.42987  1.0000
  S   S129      1.0  0.38966  0.61626  0.43356  1.0000
  H   H494      1.0  0.24630  0.79217  0.44906  1.0000
  C   C315      1.0  0.38362  0.83107  0.47003  1.0000
  C   C316      1.0  0.31033  0.64259  0.45272  1.0000
  C   C317      1.0  0.42062  0.74625  0.47714  1.0000
  C   C318      1.0  0.30797  0.66701  0.44950  1.0000
  H   H495      1.0  0.25587  0.84648  0.37279  1.0000
  C   C319      1.0  0.32069  0.62974  0.49287  1.0000
  H   H496      1.0  0.32304  0.60223  0.49610  1.0000
  H   H497      1.0  0.39533  0.71282  0.51014  1.0000
  N   N29       1.0  0.45497  0.58794  0.26946  1.0000
  H   H498      1.0  0.30813  0.63978  0.30100  1.0000
  C   C320      1.0  0.31523  0.67812  0.48746  1.0000
  S   S130      1.0  0.01173  0.76692  0.68151  1.0000
  H   H499      1.0  0.15822  0.57373  0.56312  1.0000
  H   H500      1.0  0.04213  0.73871  0.62716  1.0000
  H   H501      1.0  0.24546  0.61882  0.55471  1.0000
  H   H502      1.0  0.01711  0.70238  0.54397  1.0000
  S   S131      1.0  0.41810  0.60930  0.55143  1.0000
  C   C321      1.0  0.32530  0.66504  0.52812  1.0000
  C   C322      1.0  0.36728  0.81525  0.58432  1.0000
  C   C323      1.0  0.00659  0.65769  0.66307  1.0000
  H   H503      1.0  0.27588  0.56754  0.67761  1.0000
  C   C324      1.0  0.37128  0.77636  0.54847  1.0000
  H   H504      1.0  0.09721  0.77163  0.52870  1.0000
  H   H505      1.0  0.20166  0.68508  0.53275  1.0000
  Fe  Fe65      1.0  0.20019  0.64629  0.69730  1.0000
  H   H506      1.0  0.99505  0.70824  0.60393  1.0000
  H   H507      1.0  0.37344  0.76153  0.59418  1.0000
  H   H508      1.0  0.03164  0.60264  0.69050  1.0000
  H   H509      1.0  0.30014  0.62253  0.71285  1.0000
  C   C325      1.0  0.32850  0.64121  0.53010  1.0000
  C   C326      1.0  0.22282  0.61255  0.54119  1.0000
  C   C327      1.0  0.43029  0.64916  0.64625  1.0000
  H   H510      1.0  0.35823  0.62974  0.75024  1.0000
  C   C328      1.0  0.26075  0.72305  0.66613  1.0000
  H   H511      1.0  0.34435  0.76451  0.55453  1.0000
  H   H512      1.0  0.25988  0.75856  0.70493  1.0000
  H   H513      1.0  0.11272  0.87022  0.52137  1.0000
  H   H514      1.0  0.05915  0.83709  0.62289  1.0000
  C   C329      1.0  0.38069  0.59409  0.71426  1.0000
  H   H515      1.0  0.33269  0.72076  0.72051  1.0000
  H   H516      1.0  0.20278  0.70491  0.58303  1.0000
  C   C330      1.0  0.29518  0.70553  0.67285  1.0000
  H   H517      1.0  0.99907  0.63203  0.70067  1.0000
  S   S132      1.0  0.43884  0.73106  0.57735  1.0000
  C   C331      1.0  0.07804  0.73570  0.74196  1.0000
  S   S133      1.0  0.08808  0.63797  0.71845  1.0000
  H   H518      1.0  0.44528  0.63687  0.64312  1.0000
  H   H519      1.0  0.37238  0.64804  0.66319  1.0000
  S   S134      1.0  0.31272  0.76317  0.74919  1.0000
  C   C332      1.0  0.12273  0.64378  0.53379  1.0000
  C   C333      1.0  0.20042  0.70660  0.53598  1.0000
  H   H520      1.0  0.26486  0.74205  0.52288  1.0000
  Fe  Fe66      1.0  0.99047  0.80122  0.66970  1.0000
  C   C334      1.0  0.27252  0.60587  0.73072  1.0000
  H   H521      1.0  0.96990  0.60842  0.63643  1.0000
  H   H522      1.0  0.30733  0.57512  0.71353  1.0000
  S   S135      1.0  0.39772  0.76086  0.71539  1.0000
  H   H523      1.0  0.00994  0.67403  0.68695  1.0000
  H   H524      1.0  0.97423  0.69109  0.55740  1.0000
  N   N30       1.0  0.10174  0.72319  0.74249  1.0000
  S   S136      1.0  0.01166  0.85221  0.58434  1.0000
  H   H525      1.0  0.37705  0.84207  0.57351  1.0000
  Fe  Fe67      1.0  0.00147  0.86888  0.65784  1.0000
  H   H526      1.0  0.39536  0.67038  0.70020  1.0000
  N   N31       1.0  0.98158  0.65656  0.63164  1.0000
  C   C335      1.0  0.06062  0.77345  0.59927  1.0000
  H   H527      1.0  0.34021  0.80381  0.59144  1.0000
  H   H528      1.0  0.12546  0.75049  0.63846  1.0000
  H   H529      1.0  0.42410  0.81220  0.57201  1.0000
  S   S137      1.0  0.98392  0.81921  0.74249  1.0000
  H   H530      1.0  0.17515  0.70261  0.53773  1.0000
  H   H531      1.0  0.42261  0.65445  0.60307  1.0000
  H   H532      1.0  0.14411  0.77149  0.71555  1.0000
  C   C336      1.0  0.97816  0.63470  0.60042  1.0000
  H   H533      1.0  0.30755  0.68601  0.66258  1.0000
  H   H534      1.0  0.26491  0.61132  0.68745  1.0000
  C   C337      1.0  0.05108  0.78882  0.62068  1.0000
  C   C338      1.0  0.38068  0.64458  0.70541  1.0000
  Fe  Fe68      1.0  0.42783  0.79274  0.75607  1.0000
  C   C339      1.0  0.29586  0.73906  0.71087  1.0000
  C   C340      1.0  0.08658  0.78914  0.55194  1.0000
  H   H535      1.0  0.08971  0.76218  0.70285  1.0000
  S   S138      1.0  0.34594  0.62487  0.58290  1.0000
  H   H536      1.0  0.23470  0.72394  0.64737  1.0000
  H   H537      1.0  0.33362  0.67790  0.57014  1.0000
  H   H538      1.0  0.09175  0.70790  0.66974  1.0000
  H   H539      1.0  0.07698  0.63791  0.59629  1.0000
  H   H540      1.0  0.05559  0.71983  0.73426  1.0000
  C   C341      1.0  0.27187  0.70593  0.65595  1.0000
  H   H541      1.0  0.44693  0.67427  0.64187  1.0000
  N   N32       1.0  0.20625  0.57759  0.55016  1.0000
  C   C342      1.0  0.02856  0.58762  0.75455  1.0000
  C   C343      1.0  0.99256  0.69111  0.58208  1.0000
  H   H542      1.0  0.00231  0.64442  0.56285  1.0000
  H   H543      1.0  0.12079  0.61920  0.58852  1.0000
  C   C344      1.0  0.41235  0.62534  0.76285  1.0000
  Fe  Fe69      1.0  0.12725  0.62623  0.74288  1.0000
  N   N33       1.0  0.40099  0.62823  0.70719  1.0000
  S   S139      1.0  0.25189  0.67927  0.62434  1.0000
  H   H544      1.0  0.37134  0.59518  0.67357  1.0000
  H   H545      1.0  0.98818  0.69062  0.76477  1.0000
  C   C345      1.0  0.11309  0.72434  0.67925  1.0000
  S   S140      1.0  0.17273  0.66370  0.74832  1.0000
  H   H546      1.0  0.03145  0.66789  0.62703  1.0000
  S   S141      1.0  0.15568  0.61262  0.68329  1.0000
  C   C346      1.0  0.06822  0.81971  0.59655  1.0000
  C   C347      1.0  0.09420  0.83541  0.54928  1.0000
  C   C348      1.0  0.27278  0.73964  0.69340  1.0000
  H   H547      1.0  0.36921  0.80201  0.63157  1.0000
  Fe  Fe70      1.0  0.37057  0.60358  0.53813  1.0000
  H   H548      1.0  0.13101  0.71506  0.67787  1.0000
  C   C349      1.0  0.10302  0.82021  0.52614  1.0000
  H   H549      1.0  0.20586  0.61673  0.57100  1.0000
  H   H550      1.0  0.26128  0.61386  0.76206  1.0000
  C   C350      1.0  0.10178  0.65255  0.53749  1.0000
  C   C351      1.0  0.30711  0.72203  0.70056  1.0000
  H   H551      1.0  0.35869  0.57766  0.76033  1.0000
  H   H552      1.0  0.22874  0.76637  0.53529  1.0000
  N   N34       1.0  0.38586  0.81236  0.53241  1.0000
  C   C352      1.0  0.13076  0.74469  0.75406  1.0000
  H   H553      1.0  0.14897  0.73573  0.75560  1.0000
  C   C353      1.0  0.17598  0.57040  0.53313  1.0000
  C   C354      1.0  0.42128  0.82671  0.52688  1.0000
  H   H554      1.0  0.25191  0.57778  0.52040  1.0000
  H   H555      1.0  0.39542  0.58122  0.71478  1.0000
  H   H556      1.0  0.42793  0.65069  0.75874  1.0000
  H   H557      1.0  0.09696  0.56172  0.66575  1.0000
  H   H558      1.0  0.43272  0.85343  0.51764  1.0000
  H   H559      1.0  0.98766  0.81185  0.51621  1.0000
  H   H560      1.0  0.80151  0.98449  0.90109  1.0000
  C   C355      1.0  0.65921  0.97472  0.76608  1.0000
  S   S142      1.0  0.64945  0.07394  0.00416  1.0000
  C   C356      1.0  0.76476  0.06518  0.80376  1.0000
  C   C357      1.0  0.95940  0.91087  0.77766  1.0000
  Fe  Fe71      1.0  0.68501  0.10819  0.90060  1.0000
  H   H561      1.0  0.57207  0.90648  0.96757  1.0000
  C   C358      1.0  0.89298  0.94363  0.88919  1.0000
  H   H562      1.0  0.81707  0.02706  0.88911  1.0000
  H   H563      1.0  0.88502  0.01032  0.91699  1.0000
  H   H564      1.0  0.81247  0.10662  0.87155  1.0000
  H   H565      1.0  0.73075  0.91980  0.83596  1.0000
  H   H566      1.0  0.79241  0.20270  0.90533  1.0000
  S   S143      1.0  0.66081  0.01494  0.98933  1.0000
  H   H567      1.0  0.70431  0.93170  0.91398  1.0000
  C   C359      1.0  0.66199  0.94984  0.95787  1.0000
  C   C360      1.0  0.70379  0.97323  0.00080  1.0000
  C   C361      1.0  0.88013  0.05210  0.81445  1.0000
  H   H568      1.0  0.64304  0.94793  0.99587  1.0000
  C   C362      1.0  0.82263  0.11018  0.77138  1.0000
  H   H569      1.0  0.91736  0.95210  0.78902  1.0000
  H   H570      1.0  0.84030  0.96754  0.86344  1.0000
  C   C363      1.0  0.77904  0.20846  0.85726  1.0000
  H   H571      1.0  0.81674  0.01868  0.82104  1.0000
  Fe  Fe72      1.0  0.91426  0.11418  0.90094  1.0000
  N   N35       1.0  0.85487  0.01618  0.85882  1.0000
  H   H572      1.0  0.71516  0.99901  0.95968  1.0000
  C   C364      1.0  0.91829  0.95916  0.84043  1.0000
  H   H573      1.0  0.93232  0.90694  0.89214  1.0000
  S   S144      1.0  0.76214  0.91277  0.92773  1.0000
  N   N36       1.0  0.68854  0.94699  0.98095  1.0000
  Fe  Fe73      1.0  0.93100  0.18583  0.87174  1.0000
  S   S145      1.0  0.93217  0.16094  0.80906  1.0000
  Fe  Fe74      1.0  0.84385  0.90782  0.81152  1.0000
  S   S146      1.0  0.57384  0.99878  0.99795  1.0000
  H   H574      1.0  0.85574  0.00159  0.78317  1.0000
  H   H575      1.0  0.67203  0.97449  0.91446  1.0000
  H   H576      1.0  0.81884  0.15015  0.99394  1.0000
  H   H577      1.0  0.69395  0.94688  0.81444  1.0000
  S   S147      1.0  0.91764  0.14017  0.96201  1.0000
  H   H578      1.0  0.86589  0.93369  0.98887  1.0000
  C   C365      1.0  0.71454  0.95186  0.92835  1.0000
  H   H579      1.0  0.87786  0.06873  0.83449  1.0000
  C   C366      1.0  0.89391  0.95052  0.93408  1.0000
  H   H580      1.0  0.95046  0.03407  0.98678  1.0000
  C   C367      1.0  0.75092  0.18672  0.86615  1.0000
  S   S148      1.0  0.66070  0.07118  0.86466  1.0000
  C   C368      1.0  0.77453  0.07317  0.84372  1.0000
  S   S149      1.0  0.57841  0.90210  0.78813  1.0000
  S   S150      1.0  0.72294  0.09295  0.91659  1.0000
  S   S151      1.0  0.93282  0.07854  0.90948  1.0000
  H   H581      1.0  0.72031  0.99236  0.77474  1.0000
  C   C369      1.0  0.82103  0.01142  0.86794  1.0000
  C   C370      1.0  0.57037  0.94599  0.99190  1.0000
  S   S152      1.0  0.72184  0.04025  0.82218  1.0000
  H   H582      1.0  0.64358  0.95149  0.81365  1.0000
  H   H583      1.0  0.73322  0.15719  0.92422  1.0000
  Fe  Fe75      1.0  0.69594  0.05320  0.88826  1.0000
  H   H584      1.0  0.72555  0.97685  0.88488  1.0000
  C   C371      1.0  0.91974  0.97268  0.93095  1.0000
  C   C372      1.0  0.80330  0.09584  0.82742  1.0000
  Fe  Fe76      1.0  0.62767  0.03616  0.96863  1.0000
  H   H585      1.0  0.88420  0.99791  0.82354  1.0000
  S   S153      1.0  0.86006  0.09556  0.92054  1.0000
  Fe  Fe77      1.0  0.87793  0.14422  0.83133  1.0000
  H   H586      1.0  0.84153  0.97890  0.95627  1.0000
  H   H587      1.0  0.91934  0.98054  0.98152  1.0000
  C   C373      1.0  0.73853  0.19183  0.82416  1.0000
  H   H588      1.0  0.64875  0.92939  0.94561  1.0000
  C   C374      1.0  0.57238  0.92031  0.00896  1.0000
  Fe  Fe78      1.0  0.86468  0.12578  0.97434  1.0000
  C   C375      1.0  0.85895  0.99492  0.83092  1.0000
  S   S154      1.0  0.87798  0.17318  0.88677  1.0000
  H   H589      1.0  0.90589  0.05644  0.80705  1.0000
  H   H590      1.0  0.73533  0.95099  0.94404  1.0000
  H   H591      1.0  0.85591  0.02107  0.94574  1.0000
  H   H592      1.0  0.75351  0.05725  0.90717  1.0000
  C   C376      1.0  0.85943  0.00617  0.92211  1.0000
  C   C377      1.0  0.94476  0.98100  0.83802  1.0000
  H   H593      1.0  0.56652  0.95938  0.93333  1.0000
  S   S155      1.0  0.85548  0.91059  0.89820  1.0000
  C   C378      1.0  0.94535  0.98757  0.88375  1.0000
  S   S156      1.0  0.69871  0.16124  0.83538  1.0000
  H   H594      1.0  0.76021  0.12622  0.77210  1.0000
  C   C379      1.0  0.75440  0.21848  0.77295  1.0000
  H   H595      1.0  0.66932  0.99685  0.77566  1.0000
  C   C380      1.0  0.70822  0.96999  0.76662  1.0000
  H   H596      1.0  0.77140  0.16665  0.76740  1.0000
  H   H597      1.0  0.87741  0.06063  0.76621  1.0000
  H   H598      1.0  0.93994  0.90081  0.07659  1.0000
  C   C381      1.0  0.69387  0.99874  0.13088  1.0000
  C   C382      1.0  0.89381  0.98962  0.13222  1.0000
  H   H599      1.0  0.74057  0.03125  0.20200  1.0000
  C   C383      1.0  0.81565  0.15462  0.15351  1.0000
  C   C384      1.0  0.82326  0.03442  0.22964  1.0000
  H   H600      1.0  0.83102  0.11574  0.18948  1.0000
  H   H601      1.0  0.94791  0.12737  0.21576  1.0000
  N   N37       1.0  0.47482  0.93045  0.12375  1.0000
  C   C385      1.0  0.94103  0.93850  0.13769  1.0000
  S   S157      1.0  0.79855  0.20024  0.12698  1.0000
  C   C386      1.0  0.90638  0.98576  0.17412  1.0000
  H   H602      1.0  0.84083  0.98610  0.25197  1.0000
  C   C387      1.0  0.85983  0.03893  0.13863  1.0000
  C   C388      1.0  0.82075  0.98432  0.23132  1.0000
  C   C389      1.0  0.57686  0.90876  0.06012  1.0000
  H   H603      1.0  0.82866  0.06045  0.19964  1.0000
  C   C390      1.0  0.81880  0.15232  0.05055  1.0000
  H   H604      1.0  0.86566  0.06525  0.10942  1.0000
  H   H605      1.0  0.93723  0.10953  0.07775  1.0000
  C   C391      1.0  0.89328  0.95807  0.22232  1.0000
  H   H606      1.0  0.84094  0.03602  0.25638  1.0000
  H   H607      1.0  0.62796  0.91887  0.19717  1.0000
  Fe  Fe79      1.0  0.75984  0.90182  0.02919  1.0000
  H   H608      1.0  0.92644  0.09087  0.16461  1.0000
  H   H609      1.0  0.87949  0.03981  0.15989  1.0000
  H   H610      1.0  0.81453  0.15619  0.21095  1.0000
  C   C392      1.0  0.66523  0.97472  0.15247  1.0000
  C   C393      1.0  0.48521  0.94486  0.05238  1.0000
  H   H611      1.0  0.49175  0.94378  0.19461  1.0000
  N   N38       1.0  0.82618  0.01792  0.18941  1.0000
  H   H612      1.0  0.63856  0.98003  0.15521  1.0000
  C   C394      1.0  0.80936  0.17268  0.11241  1.0000
  C   C395      1.0  0.49951  0.95335  0.14116  1.0000
  H   H613      1.0  0.69315  0.91005  0.05570  1.0000
  N   N39       1.0  0.95477  0.14529  0.11440  1.0000
  H   H614      1.0  0.49738  0.89963  0.13317  1.0000
  H   H615      1.0  0.77489  0.06338  0.20780  1.0000
  H   H616      1.0  0.90820  0.02111  0.07947  1.0000
  C   C396      1.0  0.86780  0.93407  0.22797  1.0000
  S   S158      1.0  0.76434  0.94153  0.05795  1.0000
  H   H617      1.0  0.68317  0.01740  0.25011  1.0000
  H   H618      1.0  0.93501  0.01297  0.16629  1.0000
  S   S159      1.0  0.67647  0.89938  0.19165  1.0000
  C   C397      1.0  0.92480  0.14876  0.12163  1.0000
  H   H619      1.0  0.46605  0.92930  0.03763  1.0000
  H   H620      1.0  0.92784  0.91118  0.17245  1.0000
  H   H621      1.0  0.69522  0.06088  0.20670  1.0000
  C   C398      1.0  0.82518  0.13435  0.09154  1.0000
  H   H622      1.0  0.65428  0.90891  0.07757  1.0000
  C   C399      1.0  0.71743  0.99371  0.12905  1.0000
  H   H623      1.0  0.52432  0.95593  0.12450  1.0000
  H   H624      1.0  0.91479  0.14719  0.08246  1.0000
  S   S160      1.0  0.70137  0.04030  0.10302  1.0000
  C   C400      1.0  0.57817  0.94916  0.07619  1.0000
  H   H625      1.0  0.73886  0.95923  0.14850  1.0000
  H   H626      1.0  0.81951  0.96964  0.20457  1.0000
  S   S161      1.0  0.83541  0.10615  0.07841  1.0000
  C   C401      1.0  0.95176  0.92856  0.04572  1.0000
  C   C402      1.0  0.94618  0.11214  0.11751  1.0000
  H   H627      1.0  0.74966  0.02058  0.10426  1.0000
  H   H628      1.0  0.93040  0.17349  0.11973  1.0000
  C   C403      1.0  0.86810  0.96590  0.13819  1.0000
  Fe  Fe80      1.0  0.96006  0.99884  0.25268  1.0000
  H   H629      1.0  0.82673  0.91091  0.19266  1.0000
  H   H630      1.0  0.86177  0.02887  0.10388  1.0000
  H   H631      1.0  0.68484  0.97050  0.03999  1.0000
  H   H632      1.0  0.74311  0.10513  0.21452  1.0000
  C   C404      1.0  0.85525  0.93797  0.18574  1.0000
  C   C405      1.0  0.74970  0.05543  0.20449  1.0000
  H   H633      1.0  0.90434  0.12861  0.16882  1.0000
  C   C406      1.0  0.68380  0.94065  0.16941  1.0000
  H   H634      1.0  0.80160  0.00008  0.13001  1.0000
  Fe  Fe81      1.0  0.72294  0.89915  0.15125  1.0000
  C   C407      1.0  0.66018  0.94566  0.17209  1.0000
  C   C408      1.0  0.80069  0.01368  0.15855  1.0000
  C   C409      1.0  0.82353  0.13543  0.14316  1.0000
  C   C410      1.0  0.71239  0.96467  0.14836  1.0000
  H   H635      1.0  0.75277  0.07476  0.15730  1.0000
  Fe  Fe82      1.0  0.79848  0.93026  0.10556  1.0000
  H   H636      1.0  0.80441  0.03832  0.12473  1.0000
  H   H637      1.0  0.58630  0.91166  0.14963  1.0000
  H   H638      1.0  0.77504  0.99889  0.19515  1.0000
  H   H639      1.0  0.58322  0.96612  0.11260  1.0000
  H   H640      1.0  0.93193  0.93332  0.03268  1.0000
  H   H641      1.0  0.50329  0.97929  0.11827  1.0000
  S   S162      1.0  0.84837  0.97363  0.08217  1.0000
  C   C411      1.0  0.57974  0.92324  0.09369  1.0000
  C   C412      1.0  0.67390  0.91316  0.03683  1.0000
  C   C413      1.0  0.81089  0.17150  0.06094  1.0000
  H   H642      1.0  0.92175  0.94433  0.12462  1.0000
  H   H643      1.0  0.80213  0.22011  0.25107  1.0000
  C   C414      1.0  0.69336  0.04166  0.25253  1.0000
  C   C415      1.0  0.57334  0.96044  0.02541  1.0000
  H   H644      1.0  0.50877  0.94609  0.03126  1.0000
  C   C416      1.0  0.73919  0.08464  0.26090  1.0000
  N   N40       1.0  0.72630  0.05191  0.25982  1.0000
  H   H645      1.0  0.72358  0.97164  0.01951  1.0000
  H   H646      1.0  0.48979  0.97111  0.02907  1.0000
  C   C417      1.0  0.47269  0.89722  0.15147  1.0000
  H   H647      1.0  0.95160  0.95245  0.16430  1.0000
  H   H648      1.0  0.80254  0.19056  0.01546  1.0000
  Fe  Fe83      1.0  0.68546  0.05517  0.01727  1.0000
  H   H649      1.0  0.61872  0.91911  0.47578  1.0000
  S   S163      1.0  0.82100  0.21353  0.46649  1.0000
  H   H650      1.0  0.95466  0.13388  0.37270  1.0000
  S   S164      1.0  0.72730  0.93638  0.29969  1.0000
  H   H651      1.0  0.76301  0.98985  0.49628  1.0000
  H   H652      1.0  0.62306  0.93690  0.32625  1.0000
  H   H653      1.0  0.72174  0.08318  0.30106  1.0000
  C   C418      1.0  0.90556  0.07174  0.40263  1.0000
  H   H654      1.0  0.91374  0.90615  0.39916  1.0000
  S   S165      1.0  0.78839  0.91817  0.38894  1.0000
  H   H655      1.0  0.94560  0.04816  0.43471  1.0000
  C   C419      1.0  0.89871  0.98433  0.41651  1.0000
  C   C420      1.0  0.66966  0.93303  0.31790  1.0000
  C   C421      1.0  0.85994  0.97867  0.48753  1.0000
  C   C422      1.0  0.68399  0.91707  0.33371  1.0000
  Fe  Fe84      1.0  0.80419  0.95958  0.41713  1.0000
  S   S166      1.0  0.81795  0.16678  0.35855  1.0000
  H   H656      1.0  0.70523  0.02259  0.36382  1.0000
  N   N41       1.0  0.92686  0.08070  0.44033  1.0000
  H   H657      1.0  0.91080  0.02960  0.50742  1.0000
  H   H658      1.0  0.67303  0.02544  0.50871  1.0000
  H   H659      1.0  0.88993  0.89815  0.50878  1.0000
  C   C423      1.0  0.94065  0.20754  0.28773  1.0000
  C   C424      1.0  0.94468  0.19325  0.33771  1.0000
  C   C425      1.0  0.72290  0.02598  0.32115  1.0000
  H   H660      1.0  0.88080  0.04859  0.43471  1.0000
  S   S167      1.0  0.86699  0.16750  0.44305  1.0000
  H   H661      1.0  0.92261  0.15936  0.37904  1.0000
  H   H662      1.0  0.93396  0.96620  0.44322  1.0000
  Fe  Fe85      1.0  0.83231  0.11206  0.50421  1.0000
  S   S168      1.0  0.91099  0.95254  0.28249  1.0000
  H   H663      1.0  0.90076  0.09233  0.37671  1.0000
  S   S169      1.0  0.73779  0.07891  0.42120  1.0000
  H   H664      1.0  0.68756  0.96640  0.27096  1.0000
  H   H665      1.0  0.67488  0.03847  0.29352  1.0000
  H   H666      1.0  0.86881  0.22577  0.35808  1.0000
  C   C426      1.0  0.72574  0.03663  0.46801  1.0000
  S   S170      1.0  0.85781  0.00108  0.37239  1.0000
  H   H667      1.0  0.74725  0.03327  0.32857  1.0000
  C   C427      1.0  0.87440  0.98747  0.43085  1.0000
  H   H668      1.0  0.86895  0.91904  0.42271  1.0000
  Fe  Fe86      1.0  0.74444  0.92487  0.38327  1.0000
  Fe  Fe87      1.0  0.86154  0.15867  0.35795  1.0000
  S   S171      1.0  0.76234  0.96847  0.40413  1.0000
  Fe  Fe88      1.0  0.78683  0.11107  0.42612  1.0000
  C   C428      1.0  0.69660  0.01572  0.50456  1.0000
  H   H669      1.0  0.71364  0.00099  0.32188  1.0000
  H   H670      1.0  0.91720  0.06651  0.36604  1.0000
  H   H671      1.0  0.91446  0.99321  0.35313  1.0000
  C   C429      1.0  0.90800  0.97152  0.45950  1.0000
  C   C430      1.0  0.95870  0.11253  0.39654  1.0000
  C   C431      1.0  0.63904  0.91893  0.34396  1.0000
  C   C432      1.0  0.90917  0.08495  0.49108  1.0000
  C   C433      1.0  0.73860  0.99847  0.49824  1.0000
  Fe  Fe89      1.0  0.73332  0.92978  0.50864  1.0000
  S   S172      1.0  0.83053  0.10260  0.41856  1.0000
  H   H672      1.0  0.90278  0.10483  0.46999  1.0000
  C   C434      1.0  0.93397  0.05346  0.47119  1.0000
  S   S173      1.0  0.90685  0.18475  0.26925  1.0000
  C   C435      1.0  0.74657  0.02787  0.46477  1.0000
  H   H673      1.0  0.83369  0.98363  0.50405  1.0000
  Fe  Fe90      1.0  0.82124  0.17179  0.44827  1.0000
  H   H674      1.0  0.77865  0.05016  0.42072  1.0000
  H   H675      1.0  0.85316  0.90268  0.28121  1.0000
  H   H676      1.0  0.95138  0.06022  0.49721  1.0000
  H   H677      1.0  0.64879  0.92997  0.51369  1.0000
  H   H678      1.0  0.76278  0.22292  0.32951  1.0000
  H   H679      1.0  0.92852  0.22024  0.44994  1.0000
  H   H680      1.0  0.79763  0.02001  0.26626  1.0000
  H   H681      1.0  0.79657  0.96909  0.27223  1.0000
  C   C436      1.0  0.94218  0.22723  0.48155  1.0000
  H   H682      1.0  0.76353  0.09269  0.26843  1.0000
  H   H683      1.0  0.79021  0.21046  0.58955  1.0000
  N   N42       1.0  0.77123  0.16465  0.67790  1.0000
  H   H684      1.0  0.87609  0.20041  0.53328  1.0000
  S   S174      1.0  0.84505  0.08614  0.58678  1.0000
  H   H685      1.0  0.73083  0.16348  0.64482  1.0000
  S   S175      1.0  0.85419  0.94914  0.71608  1.0000
  H   H686      1.0  0.83470  0.11708  0.66867  1.0000
  H   H687      1.0  0.92493  0.20117  0.64324  1.0000
  S   S176      1.0  0.77684  0.92436  0.52381  1.0000
  C   C437      1.0  0.82488  0.02447  0.66924  1.0000
  H   H688      1.0  0.64211  0.97688  0.73926  1.0000
  H   H689      1.0  0.84775  0.03968  0.69396  1.0000
  C   C438      1.0  0.78849  0.97977  0.67153  1.0000
  C   C439      1.0  0.79996  0.02819  0.60139  1.0000
  S   S177      1.0  0.76612  0.93562  0.70476  1.0000
  H   H690      1.0  0.79058  0.21595  0.66082  1.0000
  C   C440      1.0  0.80865  0.99338  0.69380  1.0000
  H   H691      1.0  0.81208  0.97385  0.74801  1.0000
  H   H692      1.0  0.80346  0.15095  0.63530  1.0000
  C   C441      1.0  0.94005  0.21699  0.59042  1.0000
  C   C442      1.0  0.89305  0.96216  0.51658  1.0000
  H   H693      1.0  0.74047  0.22474  0.72596  1.0000
  H   H694      1.0  0.76110  0.98164  0.60136  1.0000
  S   S178      1.0  0.86205  0.14553  0.74608  1.0000
  H   H695      1.0  0.85271  0.95737  0.59284  1.0000
  H   H696      1.0  0.71874  0.02708  0.67295  1.0000
  C   C443      1.0  0.78392  0.99710  0.62584  1.0000
  N   N43       1.0  0.68637  0.97311  0.72916  1.0000
  C   C444      1.0  0.91119  0.17004  0.56975  1.0000
  H   H697      1.0  0.87421  0.19229  0.61468  1.0000
  C   C445      1.0  0.77752  0.14623  0.64465  1.0000
  C   C446      1.0  0.73633  0.15700  0.69043  1.0000
  H   H698      1.0  0.82077  0.20791  0.62469  1.0000
  H   H699      1.0  0.69031  0.00815  0.63754  1.0000
  H   H700      1.0  0.59910  0.91263  0.63963  1.0000
  S   S179      1.0  0.69810  0.93479  0.57452  1.0000
  H   H701      1.0  0.77415  0.15418  0.59693  1.0000
  H   H702      1.0  0.73110  0.17157  0.71298  1.0000
  H   H703      1.0  0.76016  0.11844  0.67432  1.0000
  C   C447      1.0  0.86918  0.96605  0.53022  1.0000
  Fe  Fe91      1.0  0.86353  0.91817  0.67344  1.0000
  C   C448      1.0  0.89083  0.20842  0.56273  1.0000
  H   H704      1.0  0.72603  0.00329  0.63595  1.0000
  C   C449      1.0  0.67194  0.94336  0.71793  1.0000
  C   C450      1.0  0.68851  0.98604  0.53809  1.0000
  C   C451      1.0  0.70957  0.97738  0.53425  1.0000
  H   H705      1.0  0.92443  0.09202  0.52035  1.0000
  H   H706      1.0  0.71826  0.12972  0.72434  1.0000
  C   C452      1.0  0.81334  0.10125  0.73188  1.0000
  N   N44       1.0  0.92108  0.20564  0.55109  1.0000
  Fe  Fe92      1.0  0.80046  0.91651  0.73097  1.0000
  H   H707      1.0  0.89619  0.16031  0.54226  1.0000
  C   C453      1.0  0.82066  0.04189  0.62281  1.0000
  H   H708      1.0  0.51867  0.91279  0.63948  1.0000
  H   H709      1.0  0.55786  0.89661  0.58364  1.0000
  H   H710      1.0  0.72856  0.96805  0.74067  1.0000
  C   C454      1.0  0.54249  0.90392  0.71513  1.0000
  H   H711      1.0  0.80300  0.15991  0.73270  1.0000
  H   H712      1.0  0.94226  0.91521  0.75282  1.0000
  C   C455      1.0  0.79423  0.20141  0.63641  1.0000
  H   H713      1.0  0.77400  0.06971  0.70275  1.0000
  H   H714      1.0  0.79434  0.04713  0.55014  1.0000
  C   C456      1.0  0.78441  0.07856  0.74822  1.0000
  H   H715      1.0  0.56454  0.93836  0.68389  1.0000
  H   H716      1.0  0.89571  0.15319  0.62221  1.0000
  H   H717      1.0  0.93324  0.16694  0.56058  1.0000
  S   S180      1.0  0.90503  0.94256  0.57870  1.0000
  H   H718      1.0  0.65586  0.96296  0.57896  1.0000
  H   H719      1.0  0.62916  0.89922  0.63795  1.0000
  H   H720      1.0  0.69191  0.94116  0.69116  1.0000
  H   H721      1.0  0.65560  0.94494  0.68909  1.0000
  C   C457      1.0  0.70621  0.00428  0.66621  1.0000
  H   H722      1.0  0.61724  0.94150  0.52085  1.0000
  C   C458      1.0  0.77675  0.15393  0.74014  1.0000
  H   H723      1.0  0.88527  0.06114  0.52546  1.0000
  C   C459      1.0  0.62208  0.92135  0.51990  1.0000
  S   S181      1.0  0.78664  0.11666  0.51653  1.0000
  H   H724      1.0  0.65638  0.91946  0.76439  1.0000
  H   H725      1.0  0.70953  0.53475  0.88948  1.0000
  C   C460      1.0  0.71435  0.46403  0.95952  1.0000
  H   H726      1.0  0.63576  0.29140  0.97158  1.0000
  H   H727      1.0  0.91828  0.25821  0.86697  1.0000
  C   C461      1.0  0.92422  0.35703  0.98247  1.0000
  H   H728      1.0  0.93028  0.31673  0.83802  1.0000
  H   H729      1.0  0.51557  0.43947  0.01437  1.0000
  S   S182      1.0  0.78223  0.24828  0.97047  1.0000
  C   C462      1.0  0.54201  0.44960  0.86225  1.0000
  S   S183      1.0  0.66333  0.39770  0.78436  1.0000
  H   H730      1.0  0.65119  0.34766  0.96274  1.0000
  C   C463      1.0  0.84480  0.41345  0.89099  1.0000
  Fe  Fe93      1.0  0.82895  0.27162  0.88563  1.0000
  C   C464      1.0  0.85414  0.38264  0.98464  1.0000
  C   C465      1.0  0.50951  0.34030  0.81191  1.0000
  H   H731      1.0  0.75890  0.52291  0.94987  1.0000
  H   H732      1.0  0.70468  0.30921  0.98401  1.0000
  S   S184      1.0  0.77381  0.32699  0.96480  1.0000
  H   H733      1.0  0.71511  0.35017  0.97614  1.0000
  H   H734      1.0  0.71141  0.44712  0.00890  1.0000
  H   H735      1.0  0.89072  0.51401  0.97973  1.0000
  H   H736      1.0  0.72894  0.53243  0.98170  1.0000
  C   C466      1.0  0.53320  0.34570  0.83096  1.0000
  H   H737      1.0  0.48046  0.30672  0.95887  1.0000
  N   N45       1.0  0.70864  0.49148  0.95892  1.0000
  S   S185      1.0  0.85921  0.26243  0.94656  1.0000
  C   C467      1.0  0.48946  0.31134  0.82399  1.0000
  H   H738      1.0  0.47127  0.25530  0.86819  1.0000
  C   C468      1.0  0.48209  0.54582  0.97291  1.0000
  S   S186      1.0  0.83406  0.26682  0.79429  1.0000
  H   H739      1.0  0.62273  0.52176  0.94154  1.0000
  H   H740      1.0  0.55421  0.37796  0.81987  1.0000
  C   C469      1.0  0.91555  0.26258  0.81899  1.0000
  C   C470      1.0  0.67412  0.47670  0.00223  1.0000
  C   C471      1.0  0.53733  0.32235  0.86111  1.0000
  S   S187      1.0  0.61608  0.43166  0.78400  1.0000
  H   H741      1.0  0.87839  0.55937  0.94328  1.0000
  C   C472      1.0  0.55049  0.49219  0.89674  1.0000
  S   S188      1.0  0.72300  0.41593  0.88577  1.0000
  H   H742      1.0  0.52171  0.26687  0.90688  1.0000
  H   H743      1.0  0.85473  0.40325  0.86310  1.0000
  C   C473      1.0  0.64551  0.53804  0.87939  1.0000
  H   H744      1.0  0.84922  0.43842  0.85659  1.0000
  H   H745      1.0  0.93279  0.52274  0.95556  1.0000
  Fe  Fe94      1.0  0.80217  0.30033  0.96096  1.0000
  C   C474      1.0  0.83033  0.53872  0.81041  1.0000
  H   H746      1.0  0.88869  0.25362  0.82603  1.0000
  C   C475      1.0  0.92763  0.31947  0.79052  1.0000
  C   C476      1.0  0.73264  0.51159  0.98150  1.0000
  H   H747      1.0  0.73916  0.52475  0.85806  1.0000
  H   H748      1.0  0.81739  0.41073  0.00261  1.0000
  H   H749      1.0  0.54027  0.49872  0.93238  1.0000
  C   C477      1.0  0.93330  0.38489  0.97920  1.0000
  S   S189      1.0  0.57132  0.32960  0.88777  1.0000
  H   H750      1.0  0.48393  0.45806  0.94740  1.0000
  C   C478      1.0  0.89629  0.44022  0.90799  1.0000
  Fe  Fe95      1.0  0.61322  0.38321  0.84679  1.0000
  H   H751      1.0  0.74003  0.47407  0.92691  1.0000
  C   C479      1.0  0.84476  0.42835  0.97758  1.0000
  N   N46       1.0  0.85997  0.41613  0.94038  1.0000
  S   S190      1.0  0.84608  0.32410  0.87116  1.0000
  C   C480      1.0  0.75372  0.41757  0.83000  1.0000
  H   H752      1.0  0.81735  0.39623  0.91309  1.0000
  H   H753      1.0  0.69642  0.44814  0.94337  1.0000
  H   H754      1.0  0.47677  0.42557  0.92427  1.0000
  H   H755      1.0  0.84943  0.51047  0.87661  1.0000
  S   S191      1.0  0.62448  0.47746  0.89378  1.0000
  Fe  Fe96      1.0  0.68385  0.41984  0.84649  1.0000
  Fe  Fe97      1.0  0.64034  0.45141  0.84618  1.0000
  C   C481      1.0  0.71352  0.51361  0.89212  1.0000
  C   C482      1.0  0.49341  0.28789  0.85460  1.0000
  H   H756      1.0  0.91169  0.52406  0.89887  1.0000
  S   S192      1.0  0.63358  0.40184  0.91340  1.0000
  H   H757      1.0  0.49633  0.46888  0.86371  1.0000
  C   C483      1.0  0.52488  0.43382  0.97629  1.0000
  N   N47       1.0  0.93723  0.29849  0.76988  1.0000
  H   H758      1.0  0.84870  0.45359  0.94554  1.0000
  H   H759      1.0  0.71262  0.37855  0.81561  1.0000
  C   C484      1.0  0.87796  0.54561  0.76864  1.0000
  H   H760      1.0  0.90192  0.46617  0.87557  1.0000
  S   S193      1.0  0.69244  0.47094  0.78356  1.0000
  C   C485      1.0  0.51737  0.29338  0.87307  1.0000
  S   S194      1.0  0.46173  0.38938  0.76806  1.0000
  H   H761      1.0  0.90863  0.44199  0.94400  1.0000
  S   S195      1.0  0.92565  0.35292  0.91195  1.0000
  N   N48       1.0  0.52802  0.45687  0.91177  1.0000
  H   H762      1.0  0.56718  0.45331  0.86036  1.0000
  H   H763      1.0  0.86590  0.37309  0.95798  1.0000
  S   S196      1.0  0.91032  0.53709  0.77608  1.0000
  C   C486      1.0  0.66912  0.53660  0.79687  1.0000
  C   C487      1.0  0.80511  0.43844  0.77756  1.0000
  H   H764      1.0  0.90114  0.31201  0.79641  1.0000
  H   H765      1.0  0.50629  0.36721  0.77637  1.0000
  C   C488      1.0  0.79490  0.23501  0.80593  1.0000
  H   H766      1.0  0.82704  0.36357  0.00891  1.0000
  H   H767      1.0  0.79262  0.45683  0.84751  1.0000
  C   C489      1.0  0.65276  0.33848  0.01192  1.0000
  H   H768      1.0  0.69526  0.33611  0.92560  1.0000
  C   C490      1.0  0.85291  0.53253  0.81637  1.0000
  H   H769      1.0  0.69573  0.49924  0.87378  1.0000
  C   C491      1.0  0.74576  0.40010  0.80246  1.0000
  H   H770      1.0  0.76872  0.37629  0.99175  1.0000
  H   H771      1.0  0.50726  0.40695  0.99069  1.0000
  H   H772      1.0  0.94828  0.41342  0.91967  1.0000
  H   H773      1.0  0.54952  0.43649  0.97708  1.0000
  C   C492      1.0  0.78340  0.43664  0.81775  1.0000
  Fe  Fe98      1.0  0.87337  0.31342  0.93719  1.0000
  C   C493      1.0  0.69584  0.32760  0.97553  1.0000
  H   H774      1.0  0.92216  0.24621  0.80433  1.0000
  C   C494      1.0  0.91515  0.53024  0.93899  1.0000
  H   H775      1.0  0.90844  0.43226  0.87801  1.0000
  H   H776      1.0  0.48517  0.52974  0.95199  1.0000
  H   H777      1.0  0.57548  0.49662  0.89773  1.0000
  C   C495      1.0  0.49484  0.45202  0.91182  1.0000
  H   H778      1.0  0.54491  0.46668  0.81306  1.0000
  H   H779      1.0  0.52569  0.42319  0.87206  1.0000
  H   H780      1.0  0.80209  0.52337  0.86404  1.0000
  H   H781      1.0  0.55440  0.51035  0.84776  1.0000
  C   C496      1.0  0.64880  0.52175  0.85230  1.0000
  H   H782      1.0  0.65542  0.46057  0.98749  1.0000
  H   H783      1.0  0.66844  0.49665  0.00139  1.0000
  C   C497      1.0  0.46430  0.30214  0.00481  1.0000
  H   H784      1.0  0.67124  0.36100  0.01402  1.0000
  H   H785      1.0  0.47715  0.32496  0.01127  1.0000
  H   H786      1.0  0.64028  0.28947  0.12852  1.0000
  H   H787      1.0  0.71836  0.26121  0.19932  1.0000
  H   H788      1.0  0.46307  0.28060  0.04499  1.0000
  Fe  Fe99      1.0  0.81422  0.24366  0.03058  1.0000
  C   C498      1.0  0.60726  0.40422  0.24621  1.0000
  H   H789      1.0  0.75753  0.46834  0.19325  1.0000
  C   C499      1.0  0.91361  0.36214  0.08249  1.0000
  H   H790      1.0  0.46204  0.50539  0.20941  1.0000
  C   C500      1.0  0.80825  0.24553  0.21470  1.0000
  H   H791      1.0  0.67352  0.28281  0.10045  1.0000
  H   H792      1.0  0.79132  0.24143  0.18665  1.0000
  S   S197      1.0  0.88260  0.49859  0.14504  1.0000
  H   H793      1.0  0.81684  0.53328  0.03057  1.0000
  H   H794      1.0  0.95473  0.25431  0.19665  1.0000
  N   N49       1.0  0.66283  0.31274  0.02452  1.0000
  S   S198      1.0  0.70967  0.31072  0.22196  1.0000
  S   S199      1.0  0.58013  0.51948  0.12329  1.0000
  C   C501      1.0  0.81842  0.46028  0.07821  1.0000
  H   H795      1.0  0.85409  0.28429  0.25054  1.0000
  H   H796      1.0  0.64505  0.26385  0.02920  1.0000
  C   C502      1.0  0.81164  0.48233  0.05351  1.0000
  C   C503      1.0  0.81312  0.29921  0.19525  1.0000
  H   H797      1.0  0.66971  0.46020  0.05330  1.0000
  H   H798      1.0  0.62805  0.32840  0.04807  1.0000
  C   C504      1.0  0.75811  0.32240  0.04207  1.0000
  S   S200      1.0  0.69906  0.43701  0.16288  1.0000
  C   C505      1.0  0.76052  0.48458  0.23080  1.0000
  S   S201      1.0  0.56345  0.53331  0.24637  1.0000
  C   C506      1.0  0.91038  0.33164  0.03572  1.0000
  C   C507      1.0  0.78190  0.51481  0.20611  1.0000
  C   C508      1.0  0.74655  0.29539  0.09131  1.0000
  S   S202      1.0  0.90758  0.45011  0.06509  1.0000
  S   S203      1.0  0.50651  0.46880  0.23936  1.0000
  C   C509      1.0  0.78572  0.52950  0.23920  1.0000
  H   H799      1.0  0.83411  0.25808  0.18016  1.0000
  H   H800      1.0  0.83910  0.31318  0.16020  1.0000
  H   H801      1.0  0.67228  0.46132  0.25580  1.0000
  H   H802      1.0  0.93611  0.41891  0.02234  1.0000
  H   H803      1.0  0.92474  0.54291  0.18666  1.0000
  H   H804      1.0  0.94689  0.33696  0.17059  1.0000
  C   C510      1.0  0.95968  0.23797  0.25195  1.0000
  H   H805      1.0  0.73114  0.54428  0.10983  1.0000
  S   S204      1.0  0.83110  0.29431  0.02635  1.0000
  C   C511      1.0  0.86399  0.53386  0.24123  1.0000
  H   H806      1.0  0.86419  0.50971  0.25849  1.0000
  Fe  Fe100     1.0  0.55992  0.48963  0.23143  1.0000
  C   C512      1.0  0.84523  0.51325  0.08472  1.0000
  Fe  Fe101     1.0  0.51098  0.51410  0.24761  1.0000
  H   H807      1.0  0.56054  0.44928  0.18184  1.0000
  N   N50       1.0  0.80474  0.26585  0.24576  1.0000
  H   H808      1.0  0.85498  0.53637  0.19978  1.0000
  C   C513      1.0  0.57753  0.43339  0.20512  1.0000
  H   H809      1.0  0.50131  0.43286  0.16859  1.0000
  C   C514      1.0  0.60095  0.40518  0.19720  1.0000
  N   N51       1.0  0.68490  0.51184  0.19129  1.0000
  Fe  Fe102     1.0  0.70280  0.35547  0.20501  1.0000
  H   H810      1.0  0.96083  0.54167  0.25621  1.0000
  S   S205      1.0  0.74431  0.40232  0.19700  1.0000
  H   H811      1.0  0.74817  0.37160  0.10346  1.0000
  H   H812      1.0  0.67640  0.52049  0.10113  1.0000
  H   H813      1.0  0.85950  0.54285  0.08910  1.0000
  C   C515      1.0  0.58576  0.41947  0.17699  1.0000
  Fe  Fe103     1.0  0.92606  0.42030  0.12756  1.0000
  C   C516      1.0  0.85230  0.49128  0.10885  1.0000
  H   H814      1.0  0.72370  0.50291  0.15801  1.0000
  C   C517      1.0  0.74588  0.34356  0.09963  1.0000
  S   S206      1.0  0.92841  0.44465  0.19256  1.0000
  H   H815      1.0  0.63945  0.49406  0.17153  1.0000
  Fe  Fe104     1.0  0.66007  0.38770  0.17559  1.0000
  S   S207      1.0  0.69639  0.38270  0.11284  1.0000
  H   H816      1.0  0.79616  0.29661  0.16699  1.0000
  S   S208      1.0  0.52753  0.54670  0.14024  1.0000
  C   C518      1.0  0.72039  0.52365  0.16017  1.0000
  S   S209      1.0  0.90379  0.36543  0.15381  1.0000
  C   C519      1.0  0.66570  0.50045  0.15231  1.0000
  H   H817      1.0  0.81114  0.31542  0.21678  1.0000
  H   H818      1.0  0.57837  0.42057  0.12219  1.0000
  S   S210      1.0  0.61559  0.38819  0.15384  1.0000
  Fe  Fe105     1.0  0.73583  0.42943  0.10864  1.0000
  Fe  Fe106     1.0  0.52698  0.50246  0.13215  1.0000
  H   H819      1.0  0.73559  0.53351  0.18726  1.0000
  H   H820      1.0  0.66500  0.47758  0.15226  1.0000
  H   H821      1.0  0.80148  0.53185  0.14132  1.0000
  C   C520      1.0  0.68181  0.53982  0.19556  1.0000
  H   H822      1.0  0.84478  0.43907  0.13623  1.0000
  C   C521      1.0  0.73355  0.29221  0.14476  1.0000
  C   C522      1.0  0.73288  0.31631  0.14864  1.0000
  C   C523      1.0  0.47542  0.42452  0.14562  1.0000
  H   H823      1.0  0.86475  0.38365  0.02329  1.0000
  H   H824      1.0  0.80193  0.42961  0.07846  1.0000
  Fe  Fe107     1.0  0.91488  0.47793  0.12304  1.0000
  H   H825      1.0  0.69580  0.54900  0.22491  1.0000
  C   C524      1.0  0.47532  0.44622  0.09881  1.0000
  H   H826      1.0  0.74654  0.26815  0.08685  1.0000
  C   C525      1.0  0.83887  0.46481  0.10560  1.0000
  H   H827      1.0  0.89060  0.30569  0.14494  1.0000
  C   C526      1.0  0.75761  0.34636  0.04644  1.0000
  S   S211      1.0  0.50704  0.48872  0.06081  1.0000
  C   C527      1.0  0.82509  0.50884  0.05655  1.0000
  C   C528      1.0  0.90541  0.33427  0.08573  1.0000
  H   H828      1.0  0.68279  0.32294  0.09502  1.0000
  H   H829      1.0  0.61275  0.27169  0.05683  1.0000
  C   C529      1.0  0.66483  0.30138  0.09001  1.0000
  C   C530      1.0  0.67181  0.48355  0.25724  1.0000
  H   H830      1.0  0.47663  0.53227  0.02596  1.0000
  C   C531      1.0  0.63796  0.28358  0.02040  1.0000
  H   H831      1.0  0.72999  0.49571  0.03150  1.0000
  S   S212      1.0  0.77958  0.47397  0.02204  1.0000
  H   H832      1.0  0.95947  0.38637  0.18970  1.0000
  H   H833      1.0  0.89991  0.30007  0.03983  1.0000
  C   C532      1.0  0.92775  0.38745  0.02896  1.0000
  H   H834      1.0  0.65519  0.53180  0.21809  1.0000
  Fe  Fe108     1.0  0.70456  0.40659  0.25200  1.0000
  C   C533      1.0  0.58445  0.43290  0.25350  1.0000
  H   H835      1.0  0.96051  0.32028  0.23397  1.0000
  H   H836      1.0  0.91196  0.55854  0.01606  1.0000
  H   H837      1.0  0.75202  0.24391  0.26429  1.0000
  H   H838      1.0  0.85537  0.43062  0.01554  1.0000
  H   H839      1.0  0.68698  0.49079  0.28663  1.0000
  H   H840      1.0  0.55606  0.51523  0.47802  1.0000
  H   H841      1.0  0.54369  0.43991  0.41812  1.0000
  H   H842      1.0  0.60458  0.50482  0.39794  1.0000
  N   N52       1.0  0.55118  0.48154  0.43715  1.0000
  H   H843      1.0  0.93161  0.26495  0.31742  1.0000
  C   C534      1.0  0.74050  0.55649  0.48070  1.0000
  C   C535      1.0  0.74663  0.48400  0.32153  1.0000
  C   C536      1.0  0.52393  0.48402  0.41606  1.0000
  H   H844      1.0  0.52037  0.47529  0.37882  1.0000
  H   H845      1.0  0.91724  0.31136  0.44642  1.0000
  H   H846      1.0  0.82209  0.24579  0.32087  1.0000
  C   C537      1.0  0.90464  0.28789  0.42485  1.0000
  C   C538      1.0  0.76988  0.24809  0.29045  1.0000
  H   H847      1.0  0.71753  0.50577  0.48198  1.0000
  S   S213      1.0  0.57822  0.45724  0.28800  1.0000
  H   H848      1.0  0.60562  0.41577  0.33018  1.0000
  C   C539      1.0  0.54494  0.44680  0.45814  1.0000
  H   H849      1.0  0.57298  0.48856  0.50812  1.0000
  C   C540      1.0  0.91135  0.26688  0.36286  1.0000
  H   H850      1.0  0.95077  0.25430  0.46660  1.0000
  H   H851      1.0  0.58868  0.53213  0.36448  1.0000
  H   H852      1.0  0.77248  0.53020  0.33489  1.0000
  C   C541      1.0  0.86269  0.24674  0.42751  1.0000
  C   C542      1.0  0.92325  0.28713  0.38328  1.0000
  S   S214      1.0  0.46896  0.50308  0.32830  1.0000
  S   S215      1.0  0.70980  0.42697  0.32352  1.0000
  C   C543      1.0  0.72208  0.52557  0.51275  1.0000
  H   H853      1.0  0.56479  0.44371  0.47457  1.0000
  C   C544      1.0  0.88125  0.24710  0.38429  1.0000
  C   C545      1.0  0.82750  0.27050  0.28269  1.0000
  C   C546      1.0  0.58358  0.50572  0.38298  1.0000
  H   H854      1.0  0.52866  0.51031  0.39520  1.0000
  C   C547      1.0  0.87422  0.26752  0.44723  1.0000
  H   H855      1.0  0.49953  0.46784  0.45713  1.0000
  C   C548      1.0  0.90820  0.55851  0.27854  1.0000
  H   H856      1.0  0.90804  0.53423  0.29937  1.0000
  H   H857      1.0  0.82524  0.28544  0.30728  1.0000
  H   H858      1.0  0.85354  0.26769  0.49523  1.0000
  H   H859      1.0  0.84504  0.53128  0.28053  1.0000
  C   C549      1.0  0.55236  0.48957  0.49160  1.0000
  H   H860      1.0  0.58405  0.49981  0.34186  1.0000
  H   H861      1.0  0.72685  0.46705  0.38628  1.0000
  C   C550      1.0  0.76831  0.51404  0.29704  1.0000
  C   C551      1.0  0.74256  0.46923  0.28844  1.0000
  H   H862      1.0  0.76617  0.26293  0.31409  1.0000
  H   H863      1.0  0.62350  0.38765  0.27067  1.0000
  H   H864      1.0  0.64560  0.47506  0.28361  1.0000
  C   C552      1.0  0.59877  0.41776  0.27460  1.0000
  S   S216      1.0  0.66301  0.35686  0.26890  1.0000
  H   H865      1.0  0.89136  0.55813  0.31786  1.0000
  H   H866      1.0  0.52056  0.42795  0.49842  1.0000
  Fe  Fe109     1.0  0.95008  0.48367  0.65826  1.0000
  H   H867      1.0  0.60208  0.55817  0.70297  1.0000
  C   C553      1.0  0.79716  0.42064  0.75063  1.0000
  H   H868      1.0  0.61547  0.35793  0.68129  1.0000
  C   C554      1.0  0.80920  0.52138  0.65107  1.0000
  H   H869      1.0  0.87810  0.40271  0.70004  1.0000
  H   H870      1.0  0.88877  0.37071  0.73144  1.0000
  H   H871      1.0  0.89742  0.23495  0.54936  1.0000
  C   C555      1.0  0.93329  0.30261  0.70698  1.0000
  S   S217      1.0  0.49868  0.38855  0.63821  1.0000
  C   C556      1.0  0.54883  0.49437  0.68104  1.0000
  H   H872      1.0  0.80005  0.26977  0.70621  1.0000
  H   H873      1.0  0.61050  0.41589  0.53505  1.0000
  S   S218      1.0  0.68462  0.46818  0.61741  1.0000
  H   H874      1.0  0.80242  0.48002  0.56086  1.0000
  C   C557      1.0  0.70841  0.51248  0.57190  1.0000
  H   H875      1.0  0.94084  0.28735  0.68998  1.0000
  H   H876      1.0  0.60516  0.52049  0.65233  1.0000
  C   C558      1.0  0.52165  0.49057  0.70636  1.0000
  C   C559      1.0  0.54605  0.53126  0.72729  1.0000
  Fe  Fe110     1.0  0.66773  0.44754  0.72585  1.0000
  S   S219      1.0  0.90462  0.46495  0.74027  1.0000
  S   S220      1.0  0.54363  0.55826  0.75794  1.0000
  H   H877      1.0  0.83555  0.54226  0.62255  1.0000
  H   H878      1.0  0.90004  0.41451  0.55852  1.0000
  H   H879      1.0  0.78132  0.54390  0.57003  1.0000
  C   C560      1.0  0.56480  0.36122  0.64718  1.0000
  H   H880      1.0  0.79512  0.53192  0.66899  1.0000
  H   H881      1.0  0.54603  0.34812  0.69684  1.0000
  H   H882      1.0  0.83196  0.32892  0.74257  1.0000
  H   H883      1.0  0.75784  0.45921  0.69675  1.0000
  H   H884      1.0  0.91567  0.40756  0.65466  1.0000
  C   C561      1.0  0.61028  0.37717  0.68668  1.0000
  Fe  Fe111     1.0  0.93784  0.53401  0.56378  1.0000
  N   N53       1.0  0.59610  0.38984  0.63883  1.0000
  S   S221      1.0  0.46359  0.43506  0.62518  1.0000
  H   H885      1.0  0.81371  0.47292  0.63144  1.0000
  H   H886      1.0  0.57082  0.40342  0.69824  1.0000
  C   C562      1.0  0.83306  0.55832  0.75694  1.0000
  H   H887      1.0  0.83815  0.46118  0.76221  1.0000
  S   S222      1.0  0.82783  0.42368  0.69194  1.0000
  C   C563      1.0  0.71267  0.53036  0.59869  1.0000
  C   C564      1.0  0.79448  0.53197  0.55496  1.0000
  C   C565      1.0  0.88472  0.35172  0.63911  1.0000
  S   S223      1.0  0.92208  0.48033  0.59011  1.0000
  H   H888      1.0  0.62666  0.38827  0.56349  1.0000
  H   H889      1.0  0.64423  0.42805  0.56461  1.0000
  H   H890      1.0  0.83985  0.51231  0.55927  1.0000
  H   H891      1.0  0.63420  0.39801  0.68090  1.0000
  H   H892      1.0  0.67188  0.51898  0.76437  1.0000
  C   C566      1.0  0.52026  0.50895  0.72957  1.0000
  H   H893      1.0  0.75824  0.38150  0.73298  1.0000
  H   H894      1.0  0.74715  0.46572  0.62508  1.0000
  H   H895      1.0  0.59301  0.36521  0.73734  1.0000
  H   H896      1.0  0.90685  0.29414  0.71083  1.0000
  S   S224      1.0  0.55117  0.46789  0.64905  1.0000
  H   H897      1.0  0.82015  0.33448  0.67243  1.0000
  H   H898      1.0  0.88339  0.33275  0.68440  1.0000
  C   C567      1.0  0.75922  0.47865  0.65210  1.0000
  N   N54       1.0  0.87054  0.37137  0.65316  1.0000
  H   H899      1.0  0.82336  0.36212  0.70730  1.0000
  H   H900      1.0  0.56925  0.34197  0.63985  1.0000
  H   H901      1.0  0.55324  0.36976  0.61216  1.0000
  H   H902      1.0  0.46513  0.54037  0.67895  1.0000
  C   C568      1.0  0.88910  0.38882  0.68629  1.0000
  C   C569      1.0  0.62039  0.40620  0.57254  1.0000
  H   H903      1.0  0.78175  0.52084  0.52627  1.0000
  H   H904      1.0  0.74387  0.48865  0.66751  1.0000
  H   H905      1.0  0.61215  0.43666  0.64328  1.0000
  H   H906      1.0  0.94928  0.32940  0.66861  1.0000
  H   H907      1.0  0.52885  0.47129  0.53416  1.0000
  H   H908      1.0  0.91130  0.36846  0.60612  1.0000
  H   H909      1.0  0.57848  0.42509  0.61354  1.0000
  Fe  Fe112     1.0  0.91944  0.51941  0.70379  1.0000
  C   C570      1.0  0.81337  0.49227  0.58966  1.0000
  H   H910      1.0  0.50937  0.54854  0.59614  1.0000
  H   H911      1.0  0.87090  0.33778  0.61511  1.0000
  C   C571      1.0  0.83497  0.34823  0.69559  1.0000
  H   H912      1.0  0.80928  0.50249  0.69459  1.0000
  Fe  Fe113     1.0  0.87824  0.46614  0.66940  1.0000
  H   H913      1.0  0.69626  0.51639  0.66424  1.0000
  N   N55       1.0  0.79408  0.50607  0.61195  1.0000
  S   S225      1.0  0.89074  0.51965  0.63644  1.0000
  C   C572      1.0  0.76749  0.40148  0.76311  1.0000
  Fe  Fe114     1.0  0.50029  0.42714  0.66877  1.0000
  H   H914      1.0  0.85979  0.38448  0.56517  1.0000
  H   H915      1.0  0.94767  0.24366  0.57805  1.0000
  C   C573      1.0  0.57455  0.51647  0.67920  1.0000
  H   H916      1.0  0.86306  0.41208  0.60028  1.0000
  H   H917      1.0  0.48948  0.50406  0.75842  1.0000
  H   H918      1.0  0.49241  0.46579  0.70953  1.0000
  C   C574      1.0  0.58907  0.41479  0.64886  1.0000
  C   C575      1.0  0.87344  0.39669  0.59159  1.0000
  H   H919      1.0  0.94356  0.34678  0.75489  1.0000
  C   C576      1.0  0.57313  0.53481  0.70254  1.0000
  H   H920      1.0  0.82045  0.55245  0.52213  1.0000
  C   C577      1.0  0.78269  0.23989  0.76359  1.0000
  C   C578      1.0  0.73125  0.56124  0.56676  1.0000
  H   H921      1.0  0.67516  0.66382  0.82701  1.0000
  C   C579      1.0  0.80386  0.76410  0.87722  1.0000
  H   H922      1.0  0.81079  0.78792  0.97276  1.0000
  C   C580      1.0  0.81311  0.81099  0.97477  1.0000
  C   C581      1.0  0.85356  0.77763  0.82881  1.0000
  H   H923      1.0  0.70030  0.74537  0.83132  1.0000
  H   H924      1.0  0.76895  0.65324  0.87462  1.0000
  H   H925      1.0  0.90574  0.82731  0.88163  1.0000
  H   H926      1.0  0.65747  0.58717  0.88074  1.0000
  C   C582      1.0  0.67565  0.83591  0.93189  1.0000
  H   H927      1.0  0.52257  0.58239  0.84752  1.0000
  Fe  Fe115     1.0  0.57322  0.86237  0.88059  1.0000
  C   C583      1.0  0.73396  0.71621  0.80371  1.0000
  H   H928      1.0  0.50789  0.71860  0.88689  1.0000
  H   H929      1.0  0.67533  0.87375  0.84243  1.0000
  S   S226      1.0  0.72774  0.58568  0.00042  1.0000
  H   H930      1.0  0.76012  0.66348  0.80047  1.0000
  H   H931      1.0  0.93685  0.84608  0.80353  1.0000
  H   H932      1.0  0.51442  0.69245  0.85542  1.0000
  H   H933      1.0  0.52605  0.83339  0.84552  1.0000
  H   H934      1.0  0.49676  0.59933  0.86323  1.0000
  H   H935      1.0  0.82990  0.68391  0.81044  1.0000
  N   N56       1.0  0.79147  0.64183  0.80673  1.0000
  H   H936      1.0  0.76049  0.80988  0.94337  1.0000
  C   C584      1.0  0.59414  0.71182  0.80196  1.0000
  S   S227      1.0  0.61440  0.87253  0.92072  1.0000
  C   C585      1.0  0.68485  0.71885  0.84058  1.0000
  S   S228      1.0  0.77361  0.79531  0.82928  1.0000
  H   H937      1.0  0.49214  0.71320  0.77213  1.0000
  H   H938      1.0  0.57115  0.76055  0.84605  1.0000
  H   H939      1.0  0.48291  0.73678  0.80702  1.0000
  H   H940      1.0  0.91792  0.71399  0.90808  1.0000
  S   S229      1.0  0.60485  0.68087  0.83529  1.0000
  C   C586      1.0  0.82290  0.67489  0.77490  1.0000
  H   H941      1.0  0.90279  0.85375  0.81042  1.0000
  H   H942      1.0  0.82024  0.83046  0.92437  1.0000
  H   H943      1.0  0.49095  0.67449  0.93932  1.0000
  C   C587      1.0  0.93012  0.73991  0.90227  1.0000
  H   H944      1.0  0.48322  0.80802  0.79782  1.0000
  H   H945      1.0  0.46768  0.65229  0.83638  1.0000
  C   C588      1.0  0.94824  0.72020  0.99003  1.0000
  C   C589      1.0  0.70924  0.69937  0.91692  1.0000
  C   C590      1.0  0.76393  0.64497  0.83739  1.0000
  H   H946      1.0  0.80214  0.62421  0.89337  1.0000
  C   C591      1.0  0.58828  0.72572  0.83274  1.0000
  H   H947      1.0  0.75004  0.76734  0.99264  1.0000
  H   H948      1.0  0.72323  0.68603  0.93052  1.0000
  S   S230      1.0  0.53437  0.84519  0.97310  1.0000
  H   H949      1.0  0.48536  0.60267  0.96702  1.0000
  C   C592      1.0  0.54140  0.57670  0.95045  1.0000
  H   H950      1.0  0.83416  0.82068  0.99177  1.0000
  H   H951      1.0  0.91083  0.60191  0.88739  1.0000
  N   N57       1.0  0.95897  0.74734  0.92390  1.0000
  C   C593      1.0  0.94568  0.65697  0.92542  1.0000
  N   N58       1.0  0.94067  0.88052  0.84201  1.0000
  H   H952      1.0  0.72927  0.82143  0.78483  1.0000
  C   C594      1.0  0.91914  0.65588  0.92469  1.0000
  H   H953      1.0  0.95544  0.58041  0.82144  1.0000
  N   N59       1.0  0.70224  0.69975  0.85788  1.0000
  C   C595      1.0  0.47292  0.71137  0.80943  1.0000
  C   C596      1.0  0.95891  0.58725  0.86097  1.0000
  S   S231      1.0  0.56184  0.80991  0.90174  1.0000
  H   H954      1.0  0.82746  0.73864  0.93522  1.0000
  H   H955      1.0  0.69420  0.81713  0.83780  1.0000
  H   H956      1.0  0.77229  0.59138  0.88157  1.0000
  H   H957      1.0  0.72956  0.85833  0.78333  1.0000
  H   H958      1.0  0.94497  0.60044  0.95829  1.0000
  C   C597      1.0  0.52482  0.85473  0.79072  1.0000
  C   C598      1.0  0.46607  0.85580  0.90531  1.0000
  H   H959      1.0  0.65651  0.65166  0.91068  1.0000
  H   H960      1.0  0.68568  0.68635  0.95905  1.0000
  S   S232      1.0  0.63869  0.80431  0.93556  1.0000
  H   H961      1.0  0.54094  0.62271  0.84674  1.0000
  H   H962      1.0  0.81598  0.61338  0.83396  1.0000
  H   H963      1.0  0.75001  0.74324  0.79082  1.0000
  H   H964      1.0  0.53759  0.56373  0.00269  1.0000
  C   C599      1.0  0.71364  0.85112  0.97136  1.0000
  H   H965      1.0  0.86372  0.73974  0.99572  1.0000
  H   H966      1.0  0.95372  0.56732  0.98550  1.0000
  N   N60       1.0  0.51227  0.57985  0.94174  1.0000
  H   H967      1.0  0.91339  0.79554  0.97818  1.0000
  H   H968      1.0  0.90332  0.86240  0.93259  1.0000
  H   H969      1.0  0.78926  0.85391  0.97267  1.0000
  C   C600      1.0  0.68283  0.58392  0.79575  1.0000
  H   H970      1.0  0.93758  0.75688  0.85009  1.0000
  H   H971      1.0  0.46599  0.86252  0.85500  1.0000
  C   C601      1.0  0.57812  0.74540  0.81101  1.0000
  Fe  Fe116     1.0  0.52560  0.79349  0.99771  1.0000
  S   S233      1.0  0.88956  0.77557  0.83289  1.0000
  Fe  Fe117     1.0  0.61687  0.66186  0.76659  1.0000
  Fe  Fe118     1.0  0.59992  0.81869  0.94936  1.0000
  H   H972      1.0  0.56458  0.60196  0.92797  1.0000
  C   C602      1.0  0.68808  0.82883  0.97297  1.0000
  Fe  Fe119     1.0  0.84489  0.65220  0.96750  1.0000
  H   H973      1.0  0.89430  0.64308  0.98232  1.0000
  H   H974      1.0  0.46403  0.87475  0.91814  1.0000
  H   H975      1.0  0.90006  0.88926  0.86221  1.0000
  H   H976      1.0  0.52968  0.62598  0.94910  1.0000
  C   C603      1.0  0.93475  0.57346  0.97204  1.0000
  C   C604      1.0  0.50737  0.60005  0.97179  1.0000
  S   S234      1.0  0.80519  0.66600  0.96640  1.0000
  C   C605      1.0  0.75446  0.79115  0.99372  1.0000
  C   C606      1.0  0.68909  0.86521  0.88852  1.0000
  H   H977      1.0  0.74872  0.70376  0.81646  1.0000
  H   H978      1.0  0.49090  0.85864  0.90402  1.0000
  C   C607      1.0  0.92070  0.85066  0.83411  1.0000
  N   N61       1.0  0.92778  0.56648  0.91838  1.0000
  H   H979      1.0  0.69313  0.64943  0.88427  1.0000
  H   H980      1.0  0.77642  0.74590  0.93364  1.0000
  C   C608      1.0  0.68084  0.66463  0.87051  1.0000
  H   H981      1.0  0.89736  0.57046  0.86056  1.0000
  C   C609      1.0  0.66236  0.56911  0.85092  1.0000
  Fe  Fe120     1.0  0.80350  0.85182  0.78106  1.0000
  C   C610      1.0  0.80484  0.78476  0.82739  1.0000
  C   C611      1.0  0.72711  0.88037  0.92799  1.0000
  H   H982      1.0  0.95232  0.77905  0.96119  1.0000
  C   C612      1.0  0.49595  0.69306  0.88973  1.0000
  C   C613      1.0  0.90247  0.57494  0.90174  1.0000
  C   C614      1.0  0.91813  0.88504  0.88394  1.0000
  C   C615      1.0  0.93697  0.67683  0.82184  1.0000
  S   S235      1.0  0.87883  0.66796  0.87036  1.0000
  H   H983      1.0  0.59226  0.71893  0.89201  1.0000
  H   H984      1.0  0.72447  0.72544  0.90980  1.0000
  S   S236      1.0  0.78931  0.87786  0.83006  1.0000
  H   H985      1.0  0.46733  0.79943  0.92891  1.0000
  C   C616      1.0  0.51839  0.59687  0.87166  1.0000
  C   C617      1.0  0.91497  0.66620  0.87275  1.0000
  S   S237      1.0  0.61290  0.61123  0.80720  1.0000
  H   H986      1.0  0.73986  0.62043  0.86152  1.0000
  H   H987      1.0  0.91072  0.74221  0.93026  1.0000
  C   C618      1.0  0.79559  0.61651  0.85620  1.0000
  C   C619      1.0  0.82831  0.76070  0.87807  1.0000
  H   H988      1.0  0.94999  0.64528  0.98396  1.0000
  H   H989      1.0  0.66069  0.70702  0.88032  1.0000
  H   H990      1.0  0.93810  0.69506  0.99154  1.0000
  H   H991      1.0  0.67912  0.71970  0.79619  1.0000
  C   C620      1.0  0.71513  0.88726  0.88599  1.0000
  C   C621      1.0  0.71342  0.83287  0.78816  1.0000
  H   H992      1.0  0.65893  0.83876  0.78920  1.0000
  N   N62       1.0  0.46510  0.68519  0.87464  1.0000
  H   H993      1.0  0.95131  0.85459  0.92302  1.0000
  H   H994      1.0  0.75995  0.60582  0.78032  1.0000
  H   H995      1.0  0.65496  0.78546  0.79800  1.0000
  C   C622      1.0  0.68629  0.56770  0.76871  1.0000
  C   C623      1.0  0.82974  0.80113  0.77791  1.0000
  C   C624      1.0  0.85398  0.79739  0.77856  1.0000
  C   C625      1.0  0.67264  0.58582  0.00543  1.0000
  S   S238      1.0  0.85767  0.87942  0.76819  1.0000
  H   H996      1.0  0.62194  0.57901  0.00803  1.0000
  C   C626      1.0  0.50340  0.84259  0.76920  1.0000
  H   H997      1.0  0.66661  0.56326  0.98078  1.0000
  C   C627      1.0  0.69900  0.59853  0.01416  1.0000
  H   H998      1.0  0.54586  0.56155  0.92850  1.0000
  C   C628      1.0  0.92149  0.56532  0.16953  1.0000
  C   C629      1.0  0.68215  0.62462  0.05247  1.0000
  H   H999      1.0  0.93402  0.57925  0.26509  1.0000
  C   C630      1.0  0.46694  0.66047  0.07007  1.0000
  C   C631      1.0  0.85955  0.75402  0.03472  1.0000
  H   H1000     1.0  0.46654  0.63727  0.20117  1.0000
  H   H1001     1.0  0.94649  0.58811  0.15073  1.0000
  S   S239      1.0  0.91372  0.82949  0.05391  1.0000
  H   H1002     1.0  0.52830  0.81434  0.21876  1.0000
  S   S240      1.0  0.56291  0.79790  0.04756  1.0000
  S   S241      1.0  0.80975  0.59648  0.02639  1.0000
  C   C632      1.0  0.85601  0.69182  0.20344  1.0000
  S   S242      1.0  0.75747  0.89060  0.20190  1.0000
  C   C633      1.0  0.65542  0.61116  0.04537  1.0000
  C   C634      1.0  0.89621  0.59456  0.19810  1.0000
  H   H1003     1.0  0.79227  0.78729  0.10534  1.0000
  H   H1004     1.0  0.87629  0.68680  0.18931  1.0000
  H   H1005     1.0  0.67315  0.79606  0.02186  1.0000
  H   H1006     1.0  0.84891  0.70023  0.16055  1.0000
  C   C635      1.0  0.87960  0.79338  0.06131  1.0000
  S   S243      1.0  0.46562  0.62366  0.07455  1.0000
  H   H1007     1.0  0.74889  0.77081  0.11787  1.0000
  C   C636      1.0  0.77303  0.77774  0.08435  1.0000
  H   H1008     1.0  0.60045  0.86170  0.19866  1.0000
  Fe  Fe121     1.0  0.80848  0.66852  0.05814  1.0000
  H   H1009     1.0  0.77084  0.75425  0.08468  1.0000
  C   C637      1.0  0.49561  0.71272  0.04318  1.0000
  S   S244      1.0  0.87415  0.76800  0.23818  1.0000
  S   S245      1.0  0.71607  0.85990  0.11904  1.0000
  C   C638      1.0  0.94894  0.74798  0.14376  1.0000
  S   S246      1.0  0.85202  0.66009  0.05388  1.0000
  Fe  Fe122     1.0  0.91440  0.81745  0.15472  1.0000
  Fe  Fe123     1.0  0.95668  0.83295  0.23914  1.0000
  C   C639      1.0  0.65094  0.59236  0.02049  1.0000
  N   N63       1.0  0.78170  0.80365  0.01813  1.0000
  C   C640      1.0  0.58840  0.83398  0.23051  1.0000
  H   H1010     1.0  0.84789  0.79404  0.14282  1.0000
  Fe  Fe124     1.0  0.75398  0.85456  0.16180  1.0000
  H   H1011     1.0  0.73064  0.78624  0.02441  1.0000
  S   S247      1.0  0.62229  0.61501  0.07855  1.0000
  H   H1012     1.0  0.80360  0.64255  0.20090  1.0000
  H   H1013     1.0  0.52334  0.68536  0.03661  1.0000
  S   S248      1.0  0.74925  0.80344  0.20758  1.0000
  H   H1014     1.0  0.86683  0.71332  0.21420  1.0000
  H   H1015     1.0  0.88846  0.59882  0.15499  1.0000
  Fe  Fe125     1.0  0.77044  0.61069  0.02886  1.0000
  C   C641      1.0  0.46987  0.71391  0.05451  1.0000
  C   C642      1.0  0.46929  0.58134  0.21911  1.0000
  H   H1016     1.0  0.66207  0.89265  0.02361  1.0000
  H   H1017     1.0  0.46276  0.81248  0.02114  1.0000
  C   C643      1.0  0.82914  0.75313  0.11283  1.0000
  S   S249      1.0  0.79720  0.89392  0.06929  1.0000
  C   C644      1.0  0.53303  0.82658  0.25054  1.0000
  H   H1018     1.0  0.54307  0.85398  0.21957  1.0000
  H   H1019     1.0  0.58462  0.82177  0.19856  1.0000
  H   H1020     1.0  0.92720  0.76007  0.14210  1.0000
  H   H1021     1.0  0.50248  0.62606  0.25966  1.0000
  C   C645      1.0  0.94449  0.72480  0.19394  1.0000
  S   S250      1.0  0.77005  0.61359  0.12128  1.0000
  H   H1022     1.0  0.79930  0.73753  0.16296  1.0000
  S   S251      1.0  0.58183  0.87340  0.08322  1.0000
  N   N64       1.0  0.89746  0.56305  0.22190  1.0000
  H   H1023     1.0  0.79291  0.67900  0.23922  1.0000
  Fe  Fe126     1.0  0.81317  0.60490  0.11269  1.0000
  H   H1024     1.0  0.92104  0.61695  0.18392  1.0000
  S   S252      1.0  0.79874  0.70171  0.09379  1.0000
  C   C646      1.0  0.83258  0.74029  0.07812  1.0000
  H   H1025     1.0  0.72712  0.84284  0.01798  1.0000
  H   H1026     1.0  0.76446  0.82947  0.05780  1.0000
  C   C647      1.0  0.49412  0.68602  0.05102  1.0000
  C   C648      1.0  0.70405  0.61848  0.03655  1.0000
  H   H1027     1.0  0.68734  0.64558  0.08080  1.0000
  S   S253      1.0  0.91923  0.84654  0.21056  1.0000
  S   S254      1.0  0.47191  0.75211  0.04137  1.0000
  S   S255      1.0  0.81584  0.57259  0.20454  1.0000
  H   H1028     1.0  0.92862  0.71910  0.02537  1.0000
  H   H1029     1.0  0.80872  0.84687  0.03173  1.0000
  S   S256      1.0  0.95523  0.80873  0.17541  1.0000
  H   H1030     1.0  0.49075  0.60506  0.17778  1.0000
  C   C649      1.0  0.85254  0.77965  0.10425  1.0000
  Fe  Fe127     1.0  0.91539  0.76024  0.26079  1.0000
  C   C650      1.0  0.88309  0.78072  0.02607  1.0000
  H   H1031     1.0  0.73363  0.63363  0.04581  1.0000
  H   H1032     1.0  0.83116  0.62815  0.22574  1.0000
  H   H1033     1.0  0.95592  0.68493  0.24871  1.0000
  H   H1034     1.0  0.91303  0.56670  0.12771  1.0000
  H   H1035     1.0  0.87784  0.59354  0.23589  1.0000
  H   H1036     1.0  0.77005  0.75572  0.24005  1.0000
  C   C651      1.0  0.77476  0.80046  0.25395  1.0000
  C   C652      1.0  0.81242  0.63462  0.24162  1.0000
  H   H1037     1.0  0.60670  0.83001  0.25187  1.0000
  H   H1038     1.0  0.50306  0.58809  0.02462  1.0000
  H   H1039     1.0  0.52650  0.74111  0.02094  1.0000
  H   H1040     1.0  0.46456  0.88534  0.20537  1.0000
  N   N65       1.0  0.82707  0.66169  0.25985  1.0000
  C   C653      1.0  0.78618  0.83481  0.02005  1.0000
  Fe  Fe128     1.0  0.57950  0.56176  0.13832  1.0000
  H   H1041     1.0  0.47860  0.56389  0.23858  1.0000
  H   H1042     1.0  0.69182  0.56164  0.14660  1.0000
  C   C654      1.0  0.78205  0.77827  0.26408  1.0000
  Fe  Fe129     1.0  0.57452  0.85116  0.01532  1.0000
  H   H1043     1.0  0.48726  0.80048  0.49634  1.0000
  H   H1044     1.0  0.49120  0.83914  0.38466  1.0000
  H   H1045     1.0  0.71625  0.81458  0.35391  1.0000
  C   C655      1.0  0.62304  0.88893  0.38513  1.0000
  H   H1046     1.0  0.53959  0.82928  0.35986  1.0000
  C   C656      1.0  0.73831  0.80057  0.48955  1.0000
  C   C657      1.0  0.80048  0.77627  0.29514  1.0000
  C   C658      1.0  0.83808  0.65005  0.31448  1.0000
  S   S257      1.0  0.94536  0.84553  0.50287  1.0000
  H   H1047     1.0  0.61996  0.83912  0.43967  1.0000
  H   H1048     1.0  0.48912  0.58357  0.31789  1.0000
  C   C659      1.0  0.51738  0.69459  0.48378  1.0000
  C   C660      1.0  0.73104  0.69439  0.47552  1.0000
  H   H1049     1.0  0.58081  0.83500  0.34422  1.0000
  H   H1050     1.0  0.81765  0.62557  0.35558  1.0000
  C   C661      1.0  0.83776  0.83435  0.48431  1.0000
  H   H1051     1.0  0.64203  0.77415  0.31220  1.0000
  H   H1052     1.0  0.86794  0.75202  0.47902  1.0000
  H   H1053     1.0  0.92786  0.72157  0.39465  1.0000
  C   C662      1.0  0.48030  0.60142  0.29706  1.0000
  H   H1054     1.0  0.77004  0.82371  0.44389  1.0000
  S   S258      1.0  0.92798  0.66610  0.49441  1.0000
  H   H1055     1.0  0.72586  0.67162  0.46929  1.0000
  S   S259      1.0  0.85102  0.68647  0.47833  1.0000
  H   H1056     1.0  0.69417  0.85297  0.31791  1.0000
  S   S260      1.0  0.95739  0.56967  0.45835  1.0000
  C   C663      1.0  0.78537  0.70359  0.47575  1.0000
  C   C664      1.0  0.56295  0.83851  0.32079  1.0000
  N   N66       1.0  0.86319  0.86955  0.46488  1.0000
  H   H1057     1.0  0.53675  0.76998  0.29443  1.0000
  C   C665      1.0  0.46611  0.80561  0.41684  1.0000
  H   H1058     1.0  0.82747  0.88558  0.47680  1.0000
  H   H1059     1.0  0.83167  0.83175  0.44213  1.0000
  Fe  Fe130     1.0  0.88140  0.79611  0.29618  1.0000
  C   C666      1.0  0.78543  0.82023  0.27610  1.0000
  H   H1060     1.0  0.80457  0.71081  0.49795  1.0000
  H   H1061     1.0  0.81549  0.84038  0.33218  1.0000
  H   H1062     1.0  0.80830  0.75120  0.30598  1.0000
  H   H1063     1.0  0.84641  0.66861  0.33353  1.0000
  H   H1064     1.0  0.75621  0.57075  0.41465  1.0000
  C   C667      1.0  0.54033  0.67818  0.40946  1.0000
  S   S261      1.0  0.48757  0.65373  0.38108  1.0000
  H   H1065     1.0  0.55327  0.66859  0.36861  1.0000
  H   H1066     1.0  0.67731  0.81291  0.43847  1.0000
  C   C668      1.0  0.74543  0.57431  0.50783  1.0000
  H   H1067     1.0  0.84333  0.89091  0.39689  1.0000
  C   C669      1.0  0.66792  0.88737  0.37502  1.0000
  C   C670      1.0  0.85008  0.89218  0.43931  1.0000
  H   H1068     1.0  0.67753  0.83547  0.26819  1.0000
  S   S262      1.0  0.71212  0.88648  0.48681  1.0000
  C   C671      1.0  0.51206  0.67389  0.41812  1.0000
  H   H1069     1.0  0.55831  0.77860  0.34789  1.0000
  C   C672      1.0  0.55696  0.69025  0.43853  1.0000
  H   H1070     1.0  0.58790  0.69311  0.43077  1.0000
  H   H1071     1.0  0.79661  0.72350  0.42441  1.0000
  H   H1072     1.0  0.64856  0.76868  0.46883  1.0000
  C   C673      1.0  0.71987  0.77610  0.48346  1.0000
  S   S263      1.0  0.83886  0.79439  0.35872  1.0000
  H   H1073     1.0  0.68950  0.76992  0.38393  1.0000
  N   N67       1.0  0.75446  0.70061  0.51061  1.0000
  S   S264      1.0  0.91925  0.78369  0.32760  1.0000
  C   C674      1.0  0.63752  0.87320  0.39944  1.0000
  H   H1074     1.0  0.68383  0.86955  0.39414  1.0000
  C   C675      1.0  0.65596  0.79454  0.43217  1.0000
  H   H1075     1.0  0.77975  0.64803  0.32230  1.0000
  H   H1076     1.0  0.79071  0.61114  0.28294  1.0000
  H   H1077     1.0  0.77751  0.84515  0.26577  1.0000
  H   H1078     1.0  0.63431  0.79786  0.44468  1.0000
  C   C676      1.0  0.67200  0.83219  0.31849  1.0000
  H   H1079     1.0  0.90396  0.86304  0.43127  1.0000
  H   H1080     1.0  0.50742  0.61133  0.51044  1.0000
  H   H1081     1.0  0.46991  0.60559  0.33666  1.0000
  N   N68       1.0  0.55650  0.82077  0.28120  1.0000
  H   H1082     1.0  0.77376  0.75427  0.46474  1.0000
  H   H1083     1.0  0.78064  0.67944  0.47588  1.0000
  H   H1084     1.0  0.61331  0.77308  0.37447  1.0000
  H   H1085     1.0  0.81221  0.69081  0.29305  1.0000
  C   C677      1.0  0.95895  0.72502  0.38861  1.0000
  S   S265      1.0  0.53026  0.77270  0.48666  1.0000
  C   C678      1.0  0.89375  0.87995  0.41411  1.0000
  C   C679      1.0  0.54567  0.69880  0.47523  1.0000
  H   H1086     1.0  0.50851  0.81646  0.28747  1.0000
  Fe  Fe131     1.0  0.75781  0.88365  0.49446  1.0000
  C   C680      1.0  0.90045  0.79519  0.49540  1.0000
  S   S266      1.0  0.77458  0.61789  0.46287  1.0000
  H   H1087     1.0  0.92243  0.80962  0.43327  1.0000
  C   C681      1.0  0.50059  0.68216  0.45516  1.0000
  H   H1088     1.0  0.70181  0.79864  0.30033  1.0000
  H   H1089     1.0  0.74121  0.71633  0.42646  1.0000
  Fe  Fe132     1.0  0.55841  0.81591  0.50488  1.0000
  C   C682      1.0  0.69441  0.79533  0.35032  1.0000
  S   S267      1.0  0.57995  0.86899  0.42598  1.0000
  H   H1090     1.0  0.88877  0.87934  0.36988  1.0000
  C   C683      1.0  0.80349  0.81791  0.30800  1.0000
  H   H1091     1.0  0.63089  0.74650  0.39633  1.0000
  H   H1092     1.0  0.46935  0.67861  0.46353  1.0000
  H   H1093     1.0  0.65066  0.83625  0.32954  1.0000
  N   N69       1.0  0.66472  0.79860  0.36567  1.0000
  C   C684      1.0  0.46441  0.78696  0.47002  1.0000
  H   H1094     1.0  0.73168  0.77190  0.43181  1.0000
  H   H1095     1.0  0.51730  0.77330  0.36135  1.0000
  C   C685      1.0  0.63646  0.77199  0.36167  1.0000
  H   H1096     1.0  0.85943  0.64653  0.29974  1.0000
  C   C686      1.0  0.54162  0.78407  0.32303  1.0000
  C   C687      1.0  0.81133  0.79619  0.31688  1.0000
  H   H1097     1.0  0.84673  0.81658  0.50450  1.0000
  H   H1098     1.0  0.70675  0.69013  0.50227  1.0000
  H   H1099     1.0  0.57408  0.86627  0.29091  1.0000
  C   C688      1.0  0.80180  0.67024  0.27940  1.0000
  C   C689      1.0  0.76252  0.73227  0.51399  1.0000
  S   S268      1.0  0.91723  0.71399  0.26847  1.0000
  S   S269      1.0  0.57012  0.71702  0.51473  1.0000
  H   H1100     1.0  0.47666  0.60843  0.57089  1.0000
  S   S270      1.0  0.47285  0.84364  0.68644  1.0000
  C   C690      1.0  0.52080  0.89178  0.69388  1.0000
  C   C691      1.0  0.70065  0.78262  0.57812  1.0000
  H   H1101     1.0  0.73185  0.64764  0.57684  1.0000
  C   C692      1.0  0.48965  0.59522  0.56150  1.0000
  N   N70       1.0  0.59965  0.88876  0.57938  1.0000
  H   H1102     1.0  0.88159  0.81609  0.72261  1.0000
  H   H1103     1.0  0.81413  0.82578  0.52186  1.0000
  C   C693      1.0  0.85836  0.57161  0.70968  1.0000
  Fe  Fe133     1.0  0.81740  0.60886  0.64807  1.0000
  H   H1104     1.0  0.55005  0.63937  0.55589  1.0000
  S   S271      1.0  0.66756  0.71710  0.52314  1.0000
  C   C694      1.0  0.53011  0.62147  0.60468  1.0000
  C   C695      1.0  0.88693  0.79635  0.58439  1.0000
  H   H1105     1.0  0.68963  0.78569  0.63189  1.0000
  H   H1106     1.0  0.47053  0.57107  0.56540  1.0000
  C   C696      1.0  0.85496  0.75468  0.57284  1.0000
  N   N71       1.0  0.50695  0.58913  0.60759  1.0000
  C   C697      1.0  0.72452  0.85438  0.67337  1.0000
  H   H1107     1.0  0.75606  0.67576  0.60473  1.0000
  Fe  Fe134     1.0  0.66312  0.63732  0.73071  1.0000
  S   S272      1.0  0.81946  0.71466  0.60684  1.0000
  C   C698      1.0  0.87121  0.87177  0.52173  1.0000
  H   H1108     1.0  0.89364  0.81192  0.62290  1.0000
  Fe  Fe135     1.0  0.54100  0.76969  0.64715  1.0000
  Fe  Fe136     1.0  0.49039  0.75196  0.58055  1.0000
  C   C699      1.0  0.57316  0.75040  0.75940  1.0000
  H   H1109     1.0  0.68833  0.78712  0.74511  1.0000
  S   S273      1.0  0.80070  0.56675  0.74784  1.0000
  H   H1110     1.0  0.95050  0.65866  0.70523  1.0000
  C   C700      1.0  0.59054  0.71818  0.74947  1.0000
  C   C701      1.0  0.50143  0.86100  0.72069  1.0000
  H   H1111     1.0  0.54386  0.59026  0.53898  1.0000
  H   H1112     1.0  0.58581  0.86863  0.68297  1.0000
  C   C702      1.0  0.87459  0.76770  0.51735  1.0000
  S   S274      1.0  0.58391  0.79122  0.55748  1.0000
  S   S275      1.0  0.78565  0.62977  0.61394  1.0000
  H   H1113     1.0  0.80363  0.62858  0.73327  1.0000
  C   C703      1.0  0.54479  0.88531  0.76313  1.0000
  S   S276      1.0  0.55359  0.77365  0.73303  1.0000
  H   H1114     1.0  0.93306  0.68970  0.76311  1.0000
  H   H1115     1.0  0.50363  0.70267  0.52665  1.0000
  H   H1116     1.0  0.54130  0.57142  0.62106  1.0000
  Fe  Fe137     1.0  0.83057  0.68062  0.57736  1.0000
  C   C704      1.0  0.72877  0.80354  0.53741  1.0000
  C   C705      1.0  0.68224  0.75836  0.57187  1.0000
  H   H1117     1.0  0.73958  0.84221  0.66916  1.0000
  Fe  Fe138     1.0  0.55160  0.74608  0.54726  1.0000
  C   C706      1.0  0.86090  0.76932  0.60584  1.0000
  Fe  Fe139     1.0  0.59249  0.60452  0.73060  1.0000
  C   C707      1.0  0.94895  0.64272  0.68087  1.0000
  H   H1118     1.0  0.90817  0.57955  0.66124  1.0000
  Fe  Fe140     1.0  0.87753  0.66059  0.52346  1.0000
  S   S277      1.0  0.51716  0.79692  0.59561  1.0000
  H   H1119     1.0  0.93980  0.61662  0.71900  1.0000
  H   H1120     1.0  0.59145  0.83839  0.62008  1.0000
  C   C708      1.0  0.56465  0.87749  0.58365  1.0000
  C   C709      1.0  0.60817  0.86346  0.57654  1.0000
  H   H1121     1.0  0.66791  0.85548  0.70308  1.0000
  H   H1122     1.0  0.56025  0.87323  0.54189  1.0000
  Fe  Fe141     1.0  0.93283  0.80543  0.73824  1.0000
  S   S278      1.0  0.93815  0.78386  0.67109  1.0000
  H   H1123     1.0  0.73505  0.58080  0.59773  1.0000
  H   H1124     1.0  0.83907  0.75526  0.66794  1.0000
  S   S279      1.0  0.75617  0.83542  0.55134  1.0000
  C   C710      1.0  0.78333  0.63086  0.75798  1.0000
  H   H1125     1.0  0.77956  0.64914  0.72035  1.0000
  S   S280      1.0  0.51004  0.72231  0.64093  1.0000
  C   C711      1.0  0.88049  0.56492  0.71539  1.0000
  Fe  Fe142     1.0  0.64463  0.67677  0.62691  1.0000
  C   C712      1.0  0.67935  0.85278  0.74113  1.0000
  H   H1126     1.0  0.83117  0.82439  0.72151  1.0000
  H   H1127     1.0  0.84861  0.86367  0.56137  1.0000
  S   S281      1.0  0.86084  0.65946  0.61878  1.0000
  H   H1128     1.0  0.46582  0.57536  0.68752  1.0000
  C   C713      1.0  0.73891  0.67215  0.57711  1.0000
  H   H1129     1.0  0.70829  0.58414  0.70580  1.0000
  H   H1130     1.0  0.54683  0.85348  0.62898  1.0000
  H   H1131     1.0  0.59910  0.70515  0.71182  1.0000
  S   S282      1.0  0.83525  0.60865  0.55493  1.0000
  H   H1132     1.0  0.57393  0.74125  0.67171  1.0000
  H   H1133     1.0  0.71604  0.66982  0.60522  1.0000
  C   C714      1.0  0.69199  0.75470  0.52529  1.0000
  H   H1134     1.0  0.66221  0.80157  0.71277  1.0000
  H   H1135     1.0  0.73982  0.73053  0.54139  1.0000
  C   C715      1.0  0.90681  0.80919  0.52941  1.0000
  H   H1136     1.0  0.88191  0.85566  0.54142  1.0000
  C   C716      1.0  0.52613  0.57411  0.59010  1.0000
  H   H1137     1.0  0.51693  0.63438  0.61514  1.0000
  H   H1138     1.0  0.69616  0.87878  0.73331  1.0000
  H   H1139     1.0  0.60594  0.86041  0.53279  1.0000
  N   N72       1.0  0.69800  0.83514  0.73794  1.0000
  S   S283      1.0  0.81036  0.88782  0.68287  1.0000
  S   S284      1.0  0.70360  0.62804  0.75286  1.0000
  Fe  Fe143     1.0  0.80724  0.63403  0.51806  1.0000
  S   S285      1.0  0.95006  0.85707  0.65886  1.0000
  S   S286      1.0  0.66893  0.68839  0.69633  1.0000
  C   C717      1.0  0.57962  0.73687  0.72878  1.0000
  S   S287      1.0  0.64272  0.62722  0.65611  1.0000
  H   H1140     1.0  0.63437  0.87114  0.57401  1.0000
  H   H1141     1.0  0.86272  0.59438  0.64962  1.0000
  Fe  Fe144     1.0  0.95890  0.83652  0.59164  1.0000
  H   H1142     1.0  0.54279  0.61750  0.64038  1.0000
  H   H1143     1.0  0.82084  0.69462  0.73697  1.0000
  C   C718      1.0  0.67488  0.80077  0.74894  1.0000
  H   H1144     1.0  0.71399  0.85643  0.63400  1.0000
  H   H1145     1.0  0.65057  0.73533  0.61770  1.0000
  S   S288      1.0  0.59262  0.65328  0.69505  1.0000
  H   H1146     1.0  0.84417  0.67343  0.75088  1.0000
  H   H1147     1.0  0.92956  0.64150  0.65842  1.0000
  H   H1148     1.0  0.74208  0.88052  0.66379  1.0000
  H   H1149     1.0  0.78084  0.73813  0.53874  1.0000
  H   H1150     1.0  0.95954  0.63334  0.57595  1.0000
  H   H1151     1.0  0.72948  0.71545  0.75921  1.0000
  C   C719      1.0  0.60365  0.89255  0.63742  1.0000
  H   H1152     1.0  0.49397  0.56157  0.71067  1.0000
  C   C720      1.0  0.48194  0.56567  0.67403  1.0000
