data_image0
_chemical_formula_structural       H2CHFeSC2S2C2H2SCH3FeCH2CNCHSCH2CH2CNCSHCH3CHCHSHSFeH7SC2SFeC2HFeCSHC2HCHCHCH2CFeCHCHCH3CH2C2HCHFeC2SH4CHFeCH6CSC2HNC2H2CH2CSHCH5C2HFeSHCH3CH3CSH3C2SH3CNHC2S2NH3CH4NHSC3SCHCNHC3HCH2NCH3FeH2C2HCSH2SHSFeCH3SCHCSHCHCH3CHCHC5H2CH5C2FeHSH2FeSNHCHC2HCH6CHFeH4CSHCFeHC3HSH2CHFeCSC2HSH3FeH2C2HFeCH2SH2FeH3CSHSCH3S2HNCHNCH2C2HNC3SH4S2CH2FeH3CH6CNHC2H2CSH2CH3CH2C4SH2Fe2CH6CHNH2SNSCH4CH7CH2SCHC3SHSCHCHCH2FeCSH2CHSH2FeSHSCS2Fe2HCHSH3C3NH2FeCSH2CHC2H2SC2HC3SH4CH3SHCH2CHCHCFeSHCFeH3S2CNHCH3CH4CFeH2CH3C3NH2Fe2H2CH3S2CHSH4SHC2H2NFeCHFeHFeSCH2SCHC2H8CHNSH2C2SC2FeCHC2SC2HCSH5FeSHC2H2CH2CH2SH2Fe2HS2CH4CHCHSCH3NC2H2CHNHCH2SCH4FeH2FeC5HSCH3CSCH2FeSNHSC3H3C2H3CHC2H4C2HCH2CH2CSCHCHCNCHSH3CH3SCFeSH3FeC2HC2SC2HC3H6CH2SHNHCSH2SHCH5CHC2HFeCHNC2HSHCH2CHSCHS2HFeSC2HFeHSCH3CHS2H3CHCH2CH2CHSHCH2FeHSHCH4C2HNH2FeCFeHC2HSHFeHC7H2FeSFeC3H4SH2NCH2SH3CH5C4HCH2CSHSNHCHS2C3SFe3H4SHCHCSHCSHSFeCS2C2H4SC2HCH3CSCSHSHCH4FeH3SCFeHCNSHC2NHCSH2SCFeHSHSHCH2NHCHCHC2HC2HCFeH3CH5CH2CFeCH3CH5SCHCH3SCH6C2FeSCH2S2HCS2FeCFeCHC2HSCSHCH3CHCHCFeHCHNCHFeH3CH3SHCH4CHCHC2HC2SHCHCSHFeCHCSCHCHSCH2FeSH4CHFeCH4S2CSNCH4CHCFeSFeSHSH2CFeCFeHCHSH3SC2SCHC3HCH3CHCFeH2CHCHFeCH3SH4C2HNH2C3HCHNC2HSC3HFeH2SH3CSFeHCHCH2SCHSHCSC2H3SH4C3H4FeHCSFeHC2HFeCH3C2H2C2H2SH2NSCSH2FeHNSHC2SFeH2SH4FeC2SC2HCH2CH3CH2CHSHCH2NHCHC2HFeCHSHNFeHFeH4C2H4C2NH2CHS2CS2HFeCH4SHC2HSHCHC2FeHSCNSH2SH4NH5C3HC2HCHCHCSH3CSH3C4H2C2FeHCHC2HCHSH2C2HCS2H3SHCHCSCHFeHFeHNH3C2SHCH3CHCHNH2CHCH2CHFeHNC2SCH2FeSCHCH3C2SH2FeCHSCH2SH4CSCHSH3CHCH3CHFeCHCSH2NHS2CHCH2CHC2H3CH3C2HCHCHCSHCH5CH2NSCHCH3NC2H2C2FeHCSFeHCNH2C2SH3CSFeH3CHSCHSCH5CHNC2H2FeH2FeSH2SH2CHS2H2SC2H2CHCH2CH2C2HNH2FeHSCHNHCH4C3H4C2HCHNHFeCH2CH3FeHCHCSHSH2SCH2CHSFe2HC3HC2HSFeSH3CS4H2CSHCSFeH2CFeHC2HFeSH2C2SHNSCHCHNHCFeHFe2HSCH2CSC2SH3FeH3SHNCH3C2HSHCHSCSHFeHCHSC3HC2NH2C3HCH3CH2C3HC2H2C2H4CSFe2SH3C2SHSHC2H6SC2H3C3H5SC2FeC2SCS3NCHNHC4HFeC2H3C3HCH4CFeHSHCH4C2H
_chemical_formula_sum              "H960 C600 Fe120 S240 N60"
_cell_length_a       34.6259
_cell_length_b       28.7167
_cell_length_c       34.8253
_cell_angle_alpha    77.5416
_cell_angle_beta     75.4949
_cell_angle_gamma    113.233

_space_group_name_H-M_alt    "P 1"
_space_group_IT_number       1

loop_
  _space_group_symop_operation_xyz
  'x, y, z'

loop_
  _atom_site_type_symbol
  _atom_site_label
  _atom_site_symmetry_multiplicity
  _atom_site_fract_x
  _atom_site_fract_y
  _atom_site_fract_z
  _atom_site_occupancy
  H   H1        1.0  0.20680  0.46143  0.41521  1.0000
  H   H2        1.0  0.33887  0.25676  0.49613  1.0000
  C   C1        1.0  0.36765  0.27746  0.46637  1.0000
  H   H3        1.0  0.56568  0.41828  0.40665  1.0000
  Fe  Fe1       1.0  0.52257  0.15699  0.45970  1.0000
  S   S1        1.0  0.54971  0.45704  0.61718  1.0000
  C   C2        1.0  0.40046  0.26969  0.61626  1.0000
  C   C3        1.0  0.41291  0.35345  0.39986  1.0000
  S   S2        1.0  0.57547  0.20862  0.47963  1.0000
  S   S3        1.0  0.32359  0.43220  0.59008  1.0000
  C   C4        1.0  0.55984  0.13745  0.59331  1.0000
  C   C5        1.0  0.18155  0.22211  0.50923  1.0000
  H   H4        1.0  0.50933  0.38761  0.40715  1.0000
  H   H5        1.0  0.62898  0.30274  0.48797  1.0000
  S   S4        1.0  0.61737  0.36205  0.41677  1.0000
  C   C6        1.0  0.24277  0.31351  0.39263  1.0000
  H   H6        1.0  0.51305  0.27126  0.62136  1.0000
  H   H7        1.0  0.34774  0.14893  0.60431  1.0000
  H   H8        1.0  0.42960  0.29071  0.58540  1.0000
  Fe  Fe2       1.0  0.51728  0.18722  0.53820  1.0000
  C   C7        1.0  0.60158  0.31136  0.60871  1.0000
  H   H9        1.0  0.45441  0.39107  0.51222  1.0000
  H   H10       1.0  0.44419  0.37308  0.46832  1.0000
  C   C8        1.0  0.46633  0.37622  0.48697  1.0000
  N   N1        1.0  0.51447  0.41325  0.45963  1.0000
  C   C9        1.0  0.52721  0.30445  0.63365  1.0000
  H   H11       1.0  0.58953  0.27884  0.59529  1.0000
  S   S5        1.0  0.34202  0.41582  0.49762  1.0000
  C   C10       1.0  0.37518  0.32589  0.43796  1.0000
  H   H12       1.0  0.46065  0.33464  0.50230  1.0000
  H   H13       1.0  0.54056  0.37908  0.50129  1.0000
  C   C11       1.0  0.17509  0.25833  0.52771  1.0000
  H   H14       1.0  0.35250  0.34261  0.44613  1.0000
  H   H15       1.0  0.21521  0.17334  0.50357  1.0000
  C   C12       1.0  0.51959  0.46676  0.43787  1.0000
  N   N2        1.0  0.36197  0.22402  0.61474  1.0000
  C   C13       1.0  0.22795  0.25627  0.56143  1.0000
  S   S6        1.0  0.26054  0.28315  0.58995  1.0000
  H   H16       1.0  0.25721  0.20475  0.54914  1.0000
  C   C14       1.0  0.44109  0.33064  0.38912  1.0000
  H   H17       1.0  0.31913  0.21088  0.57862  1.0000
  H   H18       1.0  0.25549  0.28356  0.39764  1.0000
  H   H19       1.0  0.37698  0.26140  0.54876  1.0000
  C   C15       1.0  0.65346  0.38284  0.44411  1.0000
  H   H20       1.0  0.33991  0.27634  0.58389  1.0000
  C   C16       1.0  0.47252  0.44864  0.60300  1.0000
  H   H21       1.0  0.40543  0.20025  0.57741  1.0000
  S   S7        1.0  0.50793  0.25832  0.51186  1.0000
  H   H22       1.0  0.23219  0.17642  0.42408  1.0000
  S   S8        1.0  0.24662  0.41342  0.54662  1.0000
  Fe  Fe3       1.0  0.46066  0.20417  0.48799  1.0000
  H   H23       1.0  0.63050  0.31081  0.61695  1.0000
  H   H24       1.0  0.53854  0.34376  0.60872  1.0000
  H   H25       1.0  0.61508  0.35092  0.58305  1.0000
  H   H26       1.0  0.33779  0.21827  0.39272  1.0000
  H   H27       1.0  0.39071  0.30007  0.62430  1.0000
  H   H28       1.0  0.57899  0.44724  0.46625  1.0000
  H   H29       1.0  0.52532  0.35064  0.44230  1.0000
  S   S9        1.0  0.39379  0.20264  0.49528  1.0000
  C   C17       1.0  0.19797  0.27500  0.55404  1.0000
  C   C18       1.0  0.34893  0.24407  0.57998  1.0000
  S   S10       1.0  0.51499  0.22687  0.42584  1.0000
  Fe  Fe4       1.0  0.28735  0.37291  0.56240  1.0000
  C   C19       1.0  0.23389  0.21918  0.54359  1.0000
  C   C20       1.0  0.21043  0.20179  0.51759  1.0000
  H   H30       1.0  0.53159  0.43355  0.51109  1.0000
  Fe  Fe5       1.0  0.56276  0.27614  0.45193  1.0000
  C   C21       1.0  0.54258  0.41858  0.48575  1.0000
  S   S11       1.0  0.52559  0.16857  0.60018  1.0000
  H   H31       1.0  0.19230  0.30229  0.56880  1.0000
  C   C22       1.0  0.43452  0.28347  0.41796  1.0000
  C   C23       1.0  0.52937  0.39147  0.42755  1.0000
  H   H32       1.0  0.45752  0.26742  0.40978  1.0000
  C   C24       1.0  0.37544  0.18292  0.60725  1.0000
  H   H33       1.0  0.23132  0.31833  0.42371  1.0000
  C   C25       1.0  0.39856  0.25759  0.45710  1.0000
  H   H34       1.0  0.30686  0.39343  0.40316  1.0000
  C   C26       1.0  0.65184  0.34519  0.47843  1.0000
  H   H35       1.0  0.41354  0.44382  0.58977  1.0000
  H   H36       1.0  0.49921  0.46391  0.41738  1.0000
  C   C27       1.0  0.45015  0.46307  0.57769  1.0000
  Fe  Fe6       1.0  0.30432  0.46083  0.48362  1.0000
  C   C28       1.0  0.23176  0.14882  0.40715  1.0000
  H   H37       1.0  0.38413  0.16551  0.63354  1.0000
  C   C29       1.0  0.58804  0.14039  0.61614  1.0000
  H   H38       1.0  0.45307  0.41872  0.63473  1.0000
  C   C30       1.0  0.28011  0.30482  0.79959  1.0000
  H   H39       1.0  0.21882  0.19970  0.67454  1.0000
  H   H40       1.0  0.39396  0.25486  0.70907  1.0000
  H   H41       1.0  0.23739  0.25799  0.86517  1.0000
  C   C31       1.0  0.39568  0.26242  0.76860  1.0000
  H   H42       1.0  0.19186  0.30204  0.70893  1.0000
  H   H43       1.0  0.25512  0.16684  0.78568  1.0000
  C   C32       1.0  0.63053  0.17212  0.85964  1.0000
  C   C33       1.0  0.19289  0.41577  0.66535  1.0000
  H   H44       1.0  0.53423  0.21664  0.66783  1.0000
  C   C34       1.0  0.54809  0.25073  0.67931  1.0000
  H   H45       1.0  0.43648  0.15396  0.77822  1.0000
  Fe  Fe7       1.0  0.33199  0.44693  0.82530  1.0000
  C   C35       1.0  0.26205  0.20534  0.78963  1.0000
  C   C36       1.0  0.40093  0.24065  0.73652  1.0000
  S   S12       1.0  0.37328  0.40802  0.80232  1.0000
  H   H46       1.0  0.38477  0.29313  0.76567  1.0000
  H   H47       1.0  0.53356  0.45605  0.83771  1.0000
  H   H48       1.0  0.41280  0.25530  0.64049  1.0000
  H   H49       1.0  0.42825  0.19323  0.83437  1.0000
  C   C37       1.0  0.20851  0.27657  0.70424  1.0000
  H   H50       1.0  0.55501  0.34277  0.69086  1.0000
  Fe  Fe8       1.0  0.36217  0.43059  0.74211  1.0000
  C   C38       1.0  0.16119  0.30576  0.81431  1.0000
  H   H51       1.0  0.53728  0.42929  0.77257  1.0000
  H   H52       1.0  0.65555  0.18874  0.82663  1.0000
  H   H53       1.0  0.16815  0.23002  0.65531  1.0000
  H   H54       1.0  0.62250  0.28589  0.86253  1.0000
  H   H55       1.0  0.16484  0.34837  0.87597  1.0000
  H   H56       1.0  0.23235  0.45451  0.82986  1.0000
  C   C39       1.0  0.32295  0.19944  0.65537  1.0000
  S   S13       1.0  0.51117  0.26643  0.84549  1.0000
  C   C40       1.0  0.56374  0.41605  0.76703  1.0000
  C   C41       1.0  0.41569  0.20157  0.73989  1.0000
  H   H57       1.0  0.57556  0.24853  0.68948  1.0000
  N   N3        1.0  0.17495  0.21930  0.71594  1.0000
  C   C42       1.0  0.58214  0.34747  0.66277  1.0000
  C   C43       1.0  0.42022  0.20626  0.80734  1.0000
  H   H58       1.0  0.56161  0.39409  0.79862  1.0000
  H   H59       1.0  0.28614  0.34302  0.80354  1.0000
  C   C44       1.0  0.60794  0.20896  0.76223  1.0000
  H   H60       1.0  0.63659  0.41583  0.71529  1.0000
  H   H61       1.0  0.23157  0.29407  0.67033  1.0000
  C   C45       1.0  0.62245  0.25326  0.85009  1.0000
  S   S14       1.0  0.60047  0.38038  0.86073  1.0000
  H   H62       1.0  0.33702  0.16714  0.88365  1.0000
  C   C46       1.0  0.64679  0.25845  0.73787  1.0000
  H   H63       1.0  0.55448  0.38620  0.75087  1.0000
  H   H64       1.0  0.19173  0.30645  0.87773  1.0000
  H   H65       1.0  0.58712  0.15954  0.63965  1.0000
  H   H66       1.0  0.64205  0.41870  0.76463  1.0000
  H   H67       1.0  0.23021  0.28102  0.72339  1.0000
  C   C47       1.0  0.25178  0.25649  0.83450  1.0000
  C   C48       1.0  0.29110  0.25373  0.75492  1.0000
  H   H68       1.0  0.52023  0.24358  0.70794  1.0000
  Fe  Fe9       1.0  0.44322  0.25762  0.87829  1.0000
  S   S15       1.0  0.33713  0.36405  0.71637  1.0000
  H   H69       1.0  0.58876  0.23193  0.84812  1.0000
  C   C49       1.0  0.19893  0.18738  0.70886  1.0000
  H   H70       1.0  0.64800  0.27331  0.81724  1.0000
  H   H71       1.0  0.17038  0.34932  0.80409  1.0000
  H   H72       1.0  0.59653  0.14894  0.85889  1.0000
  C   C50       1.0  0.24241  0.20666  0.82951  1.0000
  H   H73       1.0  0.19326  0.30307  0.80595  1.0000
  H   H74       1.0  0.31018  0.22848  0.66054  1.0000
  H   H75       1.0  0.16507  0.20051  0.78209  1.0000
  C   C51       1.0  0.60985  0.16051  0.76556  1.0000
  S   S16       1.0  0.40376  0.27678  0.84176  1.0000
  H   H76       1.0  0.33237  0.18685  0.68266  1.0000
  H   H77       1.0  0.17480  0.14342  0.72034  1.0000
  H   H78       1.0  0.16604  0.42692  0.80660  1.0000
  C   C52       1.0  0.42459  0.18368  0.77567  1.0000
  C   C53       1.0  0.40626  0.24611  0.80356  1.0000
  S   S17       1.0  0.64657  0.31894  0.73839  1.0000
  H   H79       1.0  0.57702  0.20807  0.78012  1.0000
  H   H80       1.0  0.61040  0.34771  0.67267  1.0000
  H   H81       1.0  0.30705  0.25266  0.72444  1.0000
  C   C54       1.0  0.30035  0.30358  0.75985  1.0000
  N   N4        1.0  0.63251  0.21552  0.87673  1.0000
  H   H82       1.0  0.22247  0.19213  0.72602  1.0000
  C   C55       1.0  0.15797  0.45420  0.82129  1.0000
  C   C56       1.0  0.64988  0.16155  0.74274  1.0000
  S   S18       1.0  0.42848  0.18030  0.69716  1.0000
  S   S19       1.0  0.20545  0.14530  0.87205  1.0000
  N   N5        1.0  0.56477  0.30351  0.64611  1.0000
  H   H83       1.0  0.29425  0.16287  0.65606  1.0000
  H   H84       1.0  0.40304  0.38141  0.86657  1.0000
  H   H85       1.0  0.49887  0.29867  0.66119  1.0000
  C   C57       1.0  0.64310  0.44264  0.73422  1.0000
  H   H86       1.0  0.63652  0.14210  0.87983  1.0000
  H   H87       1.0  0.59502  0.38787  0.63846  1.0000
  H   H88       1.0  0.20682  0.39890  0.64419  1.0000
  H   H89       1.0  0.60107  0.46434  0.68253  1.0000
  N   N6        1.0  0.60948  0.46249  0.74187  1.0000
  H   H90       1.0  0.20297  0.46585  0.87437  1.0000
  S   S20       1.0  0.31852  0.46647  0.76592  1.0000
  C   C58       1.0  0.15828  0.30565  0.88425  1.0000
  C   C59       1.0  0.59719  0.23171  0.07392  1.0000
  C   C60       1.0  0.44373  0.42864  0.09811  1.0000
  S   S21       1.0  0.17950  0.21993  0.95188  1.0000
  C   C61       1.0  0.58888  0.17759  0.08398  1.0000
  H   H91       1.0  0.60386  0.25519  0.04198  1.0000
  C   C62       1.0  0.30134  0.13773  0.90457  1.0000
  N   N7        1.0  0.35889  0.36209  0.93010  1.0000
  H   H92       1.0  0.59824  0.22344  0.93362  1.0000
  C   C63       1.0  0.62746  0.41444  0.89026  1.0000
  C   C64       1.0  0.34272  0.23462  0.06169  1.0000
  C   C65       1.0  0.51615  0.28394  0.05904  1.0000
  H   H93       1.0  0.36196  0.25126  0.07996  1.0000
  C   C66       1.0  0.19584  0.43724  0.96736  1.0000
  H   H94       1.0  0.32751  0.33946  0.99745  1.0000
  H   H95       1.0  0.50728  0.37826  0.09998  1.0000
  N   N8        1.0  0.26012  0.40372  0.07535  1.0000
  C   C67       1.0  0.59853  0.25587  0.10491  1.0000
  H   H96       1.0  0.51984  0.25957  0.08613  1.0000
  H   H97       1.0  0.47162  0.37002  0.04569  1.0000
  H   H98       1.0  0.56451  0.16549  0.92239  1.0000
  Fe  Fe10      1.0  0.48744  0.18673  0.89512  1.0000
  H   H99       1.0  0.42691  0.24992  0.09544  1.0000
  H   H100      1.0  0.29529  0.26358  0.08101  1.0000
  C   C68       1.0  0.21083  0.40779  0.94599  1.0000
  C   C69       1.0  0.35727  0.20954  0.03535  1.0000
  H   H101      1.0  0.61963  0.40678  0.99122  1.0000
  C   C70       1.0  0.59922  0.19165  0.92063  1.0000
  S   S22       1.0  0.36344  0.33733  0.12340  1.0000
  H   H102      1.0  0.28008  0.15599  0.89662  1.0000
  H   H103      1.0  0.27662  0.45328  0.01156  1.0000
  S   S23       1.0  0.51397  0.22578  0.93918  1.0000
  H   H104      1.0  0.31659  0.27973  0.93729  1.0000
  S   S24       1.0  0.41722  0.17490  0.92485  1.0000
  Fe  Fe11      1.0  0.18775  0.18289  0.01085  1.0000
  C   C71       1.0  0.35887  0.41467  0.91901  1.0000
  H   H105      1.0  0.58848  0.15904  0.06005  1.0000
  H   H106      1.0  0.25772  0.43931  0.12379  1.0000
  H   H107      1.0  0.57811  0.35696  0.95159  1.0000
  S   S25       1.0  0.46694  0.30268  0.91967  1.0000
  C   C72       1.0  0.30672  0.41188  0.06760  1.0000
  H   H108      1.0  0.44443  0.43274  0.06627  1.0000
  C   C73       1.0  0.29332  0.19438  0.01329  1.0000
  S   S26       1.0  0.40689  0.20470  0.03222  1.0000
  H   H109      1.0  0.38834  0.37952  0.97627  1.0000
  C   C74       1.0  0.40678  0.38557  0.13277  1.0000
  H   H110      1.0  0.32723  0.41178  0.93986  1.0000
  C   C75       1.0  0.30437  0.24088  0.06288  1.0000
  H   H111      1.0  0.36314  0.30999  0.98109  1.0000
  H   H112      1.0  0.39833  0.32599  0.90554  1.0000
  H   H113      1.0  0.22679  0.44504  0.05016  1.0000
  C   C76       1.0  0.44950  0.27880  0.10664  1.0000
  H   H114      1.0  0.28636  0.31616  0.95023  1.0000
  C   C77       1.0  0.60957  0.39434  0.93464  1.0000
  H   H115      1.0  0.32775  0.44918  0.07269  1.0000
  C   C78       1.0  0.52294  0.35399  0.08884  1.0000
  C   C79       1.0  0.33260  0.18956  0.01102  1.0000
  C   C80       1.0  0.23291  0.35263  0.07005  1.0000
  C   C81       1.0  0.31801  0.32013  0.92837  1.0000
  C   C82       1.0  0.27923  0.22032  0.03913  1.0000
  H   H116      1.0  0.30685  0.37741  0.08953  1.0000
  H   H117      1.0  0.27487  0.17958  0.99402  1.0000
  C   C83       1.0  0.35934  0.34714  0.97322  1.0000
  H   H118      1.0  0.34348  0.16988  0.99078  1.0000
  H   H119      1.0  0.43220  0.30127  0.11836  1.0000
  H   H120      1.0  0.55073  0.31057  0.03432  1.0000
  H   H121      1.0  0.18785  0.36589  0.95227  1.0000
  H   H122      1.0  0.55724  0.38249  0.06412  1.0000
  C   C84       1.0  0.39963  0.36623  0.89996  1.0000
  C   C85       1.0  0.25474  0.43303  0.91543  1.0000
  Fe  Fe12      1.0  0.44542  0.22050  0.96467  1.0000
  H   H123      1.0  0.49586  0.25530  0.04600  1.0000
  S   S27       1.0  0.23305  0.23209  0.03936  1.0000
  H   H124      1.0  0.60760  0.16581  0.94214  1.0000
  H   H125      1.0  0.46756  0.31857  0.02326  1.0000
  Fe  Fe13      1.0  0.17483  0.14634  0.93674  1.0000
  S   S28       1.0  0.61451  0.32500  0.09190  1.0000
  N   N9        1.0  0.49439  0.31587  0.07263  1.0000
  H   H126      1.0  0.52199  0.37513  0.01005  1.0000
  C   C86       1.0  0.48879  0.34636  0.03626  1.0000
  H   H127      1.0  0.16170  0.41771  0.99046  1.0000
  C   C87       1.0  0.63297  0.42255  0.95692  1.0000
  C   C88       1.0  0.26140  0.44964  0.04495  1.0000
  H   H128      1.0  0.31739  0.32985  0.89587  1.0000
  C   C89       1.0  0.23940  0.40065  0.11907  1.0000
  H   H129      1.0  0.23122  0.31717  0.09259  1.0000
  H   H130      1.0  0.52814  0.33204  0.11601  1.0000
  H   H131      1.0  0.38782  0.44642  0.92224  1.0000
  H   H132      1.0  0.32397  0.41575  0.03465  1.0000
  H   H133      1.0  0.24749  0.35333  0.03743  1.0000
  H   H134      1.0  0.35489  0.15925  0.12383  1.0000
  C   C90       1.0  0.58115  0.14775  0.12519  1.0000
  H   H135      1.0  0.45246  0.25441  0.13410  1.0000
  Fe  Fe14      1.0  0.53320  0.30476  0.89100  1.0000
  H   H136      1.0  0.19748  0.34507  0.07587  1.0000
  H   H137      1.0  0.43090  0.39377  0.90294  1.0000
  H   H138      1.0  0.20347  0.39189  0.12695  1.0000
  H   H139      1.0  0.52441  0.44871  0.91191  1.0000
  C   C91       1.0  0.47960  0.46690  0.10440  1.0000
  S   S29       1.0  0.27059  0.39716  0.88568  1.0000
  H   H140      1.0  0.36130  0.42888  0.88579  1.0000
  C   C92       1.0  0.25903  0.40374  0.35377  1.0000
  Fe  Fe15      1.0  0.54948  0.40418  0.26917  1.0000
  H   H141      1.0  0.39924  0.27546  0.25747  1.0000
  C   C93       1.0  0.31700  0.38827  0.37205  1.0000
  C   C94       1.0  0.59002  0.22554  0.14607  1.0000
  C   C95       1.0  0.47882  0.27814  0.20944  1.0000
  H   H142      1.0  0.26371  0.34030  0.30855  1.0000
  S   S30       1.0  0.55109  0.44293  0.31845  1.0000
  H   H143      1.0  0.36442  0.28937  0.36243  1.0000
  H   H144      1.0  0.51976  0.21580  0.29030  1.0000
  C   C96       1.0  0.29270  0.35780  0.31874  1.0000
  H   H145      1.0  0.28454  0.44366  0.32892  1.0000
  Fe  Fe16      1.0  0.29918  0.27878  0.17947  1.0000
  C   C97       1.0  0.51008  0.31176  0.22321  1.0000
  S   S31       1.0  0.65421  0.38142  0.18200  1.0000
  C   C98       1.0  0.40552  0.38111  0.17393  1.0000
  C   C99       1.0  0.58119  0.17162  0.15613  1.0000
  H   H146      1.0  0.63608  0.20625  0.24450  1.0000
  S   S32       1.0  0.55442  0.32776  0.27822  1.0000
  H   H147      1.0  0.44006  0.41652  0.21198  1.0000
  H   H148      1.0  0.52204  0.35495  0.21182  1.0000
  H   H149      1.0  0.30722  0.32953  0.32157  1.0000
  Fe  Fe17      1.0  0.22551  0.16034  0.21945  1.0000
  H   H150      1.0  0.33586  0.15340  0.35661  1.0000
  H   H151      1.0  0.61902  0.38931  0.32783  1.0000
  C   C100      1.0  0.34516  0.18483  0.32600  1.0000
  C   C101      1.0  0.46251  0.22204  0.22495  1.0000
  H   H152      1.0  0.34633  0.27375  0.28209  1.0000
  Fe  Fe18      1.0  0.24277  0.22899  0.27408  1.0000
  C   C102      1.0  0.50994  0.23347  0.26644  1.0000
  H   H153      1.0  0.33237  0.36097  0.37564  1.0000
  H   H154      1.0  0.31253  0.24393  0.36053  1.0000
  S   S33       1.0  0.18005  0.17721  0.26591  1.0000
  H   H155      1.0  0.31899  0.39671  0.29300  1.0000
  H   H156      1.0  0.59044  0.24386  0.17018  1.0000
  Fe  Fe19      1.0  0.19970  0.25112  0.21198  1.0000
  H   H157      1.0  0.36469  0.17687  0.29991  1.0000
  H   H158      1.0  0.43304  0.23704  0.30356  1.0000
  H   H159      1.0  0.58458  0.21984  0.30020  1.0000
  C   C103      1.0  0.22817  0.15931  0.36745  1.0000
  S   S34       1.0  0.42605  0.41692  0.36617  1.0000
  H   H160      1.0  0.24002  0.36832  0.14276  1.0000
  S   S35       1.0  0.28787  0.20733  0.23131  1.0000
  C   C104      1.0  0.62684  0.16750  0.26900  1.0000
  H   H161      1.0  0.39713  0.32186  0.28431  1.0000
  H   H162      1.0  0.63143  0.14021  0.25225  1.0000
  H   H163      1.0  0.59913  0.18770  0.34003  1.0000
  S   S36       1.0  0.48601  0.40350  0.26527  1.0000
  S   S37       1.0  0.23985  0.23012  0.16459  1.0000
  H   H164      1.0  0.31367  0.17933  0.32085  1.0000
  N   N10       1.0  0.57989  0.14297  0.29974  1.0000
  C   C105      1.0  0.47893  0.46213  0.14540  1.0000
  H   H165      1.0  0.54084  0.16255  0.34590  1.0000
  N   N11       1.0  0.37100  0.24003  0.32552  1.0000
  C   C106      1.0  0.37890  0.27964  0.28556  1.0000
  H   H166      1.0  0.55671  0.17242  0.25295  1.0000
  H   H167      1.0  0.65578  0.35954  0.32928  1.0000
  C   C107      1.0  0.64927  0.38834  0.30825  1.0000
  C   C108      1.0  0.47963  0.20007  0.25193  1.0000
  H   H168      1.0  0.46801  0.15698  0.26306  1.0000
  N   N12       1.0  0.27789  0.36584  0.35928  1.0000
  C   C109      1.0  0.44162  0.41945  0.18023  1.0000
  C   C110      1.0  0.52432  0.28907  0.25297  1.0000
  C   C111      1.0  0.41463  0.24718  0.32843  1.0000
  S   S38       1.0  0.25976  0.30473  0.22342  1.0000
  H   H169      1.0  0.46555  0.29538  0.18871  1.0000
  H   H170      1.0  0.22917  0.38765  0.34450  1.0000
  H   H171      1.0  0.37681  0.34809  0.20076  1.0000
  H   H172      1.0  0.46899  0.35011  0.35904  1.0000
  S   S39       1.0  0.41595  0.17873  0.21629  1.0000
  S   S40       1.0  0.23462  0.22239  0.34081  1.0000
  C   C112      1.0  0.34530  0.24820  0.36193  1.0000
  H   H173      1.0  0.64013  0.37074  0.28432  1.0000
  H   H174      1.0  0.65168  0.17700  0.28492  1.0000
  Fe  Fe20      1.0  0.49009  0.44731  0.31088  1.0000
  H   H175      1.0  0.34399  0.42862  0.34856  1.0000
  H   H176      1.0  0.40984  0.22051  0.35952  1.0000
  H   H177      1.0  0.43719  0.28963  0.32408  1.0000
  C   C113      1.0  0.57586  0.17979  0.32244  1.0000
  H   H178      1.0  0.57515  0.14850  0.18777  1.0000
  H   H179      1.0  0.16060  0.30784  0.33281  1.0000
  H   H180      1.0  0.16066  0.21350  0.14225  1.0000
  H   H181      1.0  0.15779  0.25904  0.28270  1.0000
  H   H182      1.0  0.24777  0.41108  0.38358  1.0000
  H   H183      1.0  0.21241  0.29505  0.38452  1.0000
  C   C114      1.0  0.55247  0.58402  0.62786  1.0000
  N   N13       1.0  0.19465  0.52545  0.42709  1.0000
  H   H184      1.0  0.61021  0.64871  0.39345  1.0000
  C   C115      1.0  0.47548  0.50275  0.53704  1.0000
  C   C116      1.0  0.50041  0.75611  0.42143  1.0000
  H   H185      1.0  0.18294  0.68110  0.41627  1.0000
  H   H186      1.0  0.48103  0.63470  0.51306  1.0000
  C   C117      1.0  0.44988  0.66890  0.47746  1.0000
  S   S41       1.0  0.65548  0.59696  0.54070  1.0000
  H   H187      1.0  0.50575  0.79031  0.39626  1.0000
  H   H188      1.0  0.57046  0.79038  0.41451  1.0000
  C   C118      1.0  0.21824  0.69063  0.40659  1.0000
  H   H189      1.0  0.35087  0.77021  0.44539  1.0000
  H   H190      1.0  0.31136  0.67781  0.63252  1.0000
  H   H191      1.0  0.40927  0.63869  0.56669  1.0000
  C   C119      1.0  0.52283  0.61104  0.40464  1.0000
  H   H192      1.0  0.50753  0.48377  0.46104  1.0000
  H   H193      1.0  0.41630  0.63483  0.49467  1.0000
  C   C120      1.0  0.52987  0.71259  0.46499  1.0000
  C   C121      1.0  0.34938  0.67358  0.55598  1.0000
  C   C122      1.0  0.18057  0.47494  0.41772  1.0000
  C   C123      1.0  0.23577  0.67763  0.43709  1.0000
  S   S42       1.0  0.34142  0.52707  0.50504  1.0000
  H   H194      1.0  0.38838  0.74976  0.58753  1.0000
  H   H195      1.0  0.29500  0.68057  0.44802  1.0000
  Fe  Fe21      1.0  0.37511  0.47852  0.52387  1.0000
  Fe  Fe22      1.0  0.28698  0.47606  0.56941  1.0000
  C   C124      1.0  0.51511  0.61952  0.58935  1.0000
  H   H196      1.0  0.60430  0.66189  0.55030  1.0000
  H   H197      1.0  0.16651  0.48538  0.60368  1.0000
  H   H198      1.0  0.42968  0.73412  0.55916  1.0000
  H   H199      1.0  0.33591  0.70298  0.55425  1.0000
  H   H200      1.0  0.51392  0.63154  0.42637  1.0000
  H   H201      1.0  0.58074  0.52980  0.53288  1.0000
  C   C125      1.0  0.37891  0.62526  0.59523  1.0000
  H   H202      1.0  0.16717  0.57823  0.43958  1.0000
  N   N14       1.0  0.36280  0.66603  0.59301  1.0000
  H   H203      1.0  0.59542  0.70130  0.39613  1.0000
  H   H204      1.0  0.22831  0.50328  0.46630  1.0000
  S   S43       1.0  0.20085  0.64334  0.49066  1.0000
  N   N15       1.0  0.54907  0.63299  0.60939  1.0000
  S   S44       1.0  0.41111  0.71390  0.43287  1.0000
  C   C126      1.0  0.45683  0.71285  0.44470  1.0000
  H   H205      1.0  0.29602  0.75816  0.53505  1.0000
  H   H206      1.0  0.59275  0.71312  0.56311  1.0000
  H   H207      1.0  0.49190  0.58887  0.39844  1.0000
  H   H208      1.0  0.37401  0.78784  0.48397  1.0000
  C   C127      1.0  0.53690  0.75621  0.43187  1.0000
  H   H209      1.0  0.56428  0.56895  0.60294  1.0000
  H   H210      1.0  0.37858  0.68904  0.52576  1.0000
  H   H211      1.0  0.27351  0.74012  0.49598  1.0000
  H   H212      1.0  0.17493  0.48001  0.38730  1.0000
  H   H213      1.0  0.24827  0.60722  0.39780  1.0000
  H   H214      1.0  0.35234  0.58578  0.59744  1.0000
  H   H215      1.0  0.53188  0.68986  0.63044  1.0000
  C   C128      1.0  0.54459  0.51194  0.54627  1.0000
  H   H216      1.0  0.21372  0.55434  0.47505  1.0000
  H   H217      1.0  0.55552  0.49626  0.41763  1.0000
  S   S45       1.0  0.29260  0.47719  0.42264  1.0000
  C   C129      1.0  0.59369  0.67516  0.57704  1.0000
  H   H218      1.0  0.53019  0.58061  0.42234  1.0000
  C   C130      1.0  0.39954  0.71816  0.58875  1.0000
  C   C131      1.0  0.52264  0.52754  0.52178  1.0000
  C   C132      1.0  0.51996  0.47311  0.58705  1.0000
  S   S46       1.0  0.25865  0.51667  0.60773  1.0000
  H   H219      1.0  0.32256  0.63473  0.55750  1.0000
  S   S47       1.0  0.18728  0.76850  0.45713  1.0000
  C   C133      1.0  0.20206  0.51659  0.46749  1.0000
  H   H220      1.0  0.38655  0.50821  0.41075  1.0000
  C   C134      1.0  0.23722  0.56830  0.39241  1.0000
  H   H221      1.0  0.17052  0.48479  0.49435  1.0000
  C   C135      1.0  0.28127  0.69054  0.42462  1.0000
  H   H222      1.0  0.52494  0.60498  0.56320  1.0000
  H   H223      1.0  0.54249  0.55843  0.49051  1.0000
  Fe  Fe23      1.0  0.62307  0.50762  0.57473  1.0000
  C   C136      1.0  0.48649  0.66865  0.48759  1.0000
  S   S48       1.0  0.45051  0.52113  0.50281  1.0000
  H   H224      1.0  0.48111  0.58712  0.61258  1.0000
  H   H225      1.0  0.41093  0.71383  0.61588  1.0000
  C   C137      1.0  0.32324  0.64703  0.63214  1.0000
  H   H226      1.0  0.63933  0.52981  0.40844  1.0000
  S   S49       1.0  0.55153  0.78377  0.56057  1.0000
  H   H227      1.0  0.51157  0.65557  0.57517  1.0000
  H   H228      1.0  0.62053  0.68552  0.59067  1.0000
  Fe  Fe24      1.0  0.16162  0.68687  0.50455  1.0000
  S   S50       1.0  0.64657  0.49156  0.51566  1.0000
  H   H229      1.0  0.38817  0.61763  0.62349  1.0000
  S   S51       1.0  0.57445  0.71648  0.48104  1.0000
  C   C138      1.0  0.28858  0.77399  0.50724  1.0000
  S   S52       1.0  0.31613  0.78532  0.61006  1.0000
  S   S53       1.0  0.63043  0.79751  0.62156  1.0000
  Fe  Fe25      1.0  0.17617  0.79489  0.51279  1.0000
  Fe  Fe26      1.0  0.59259  0.79175  0.49648  1.0000
  H   H230      1.0  0.26213  0.78588  0.51900  1.0000
  C   C139      1.0  0.15863  0.54149  0.43080  1.0000
  H   H231      1.0  0.26532  0.55800  0.39012  1.0000
  S   S54       1.0  0.39404  0.62563  0.70746  1.0000
  H   H232      1.0  0.58645  0.76123  0.71392  1.0000
  H   H233      1.0  0.59718  0.51685  0.77074  1.0000
  H   H234      1.0  0.65606  0.53434  0.74782  1.0000
  C   C140      1.0  0.34485  0.75959  0.86550  1.0000
  C   C141      1.0  0.51748  0.47652  0.85252  1.0000
  C   C142      1.0  0.35489  0.68962  0.71902  1.0000
  N   N16       1.0  0.18990  0.78651  0.85832  1.0000
  H   H235      1.0  0.56063  0.66479  0.65830  1.0000
  H   H236      1.0  0.25984  0.56692  0.76478  1.0000
  Fe  Fe27      1.0  0.38332  0.54393  0.74305  1.0000
  C   C143      1.0  0.47778  0.52942  0.85081  1.0000
  S   S55       1.0  0.18199  0.72779  0.67478  1.0000
  H   H237      1.0  0.50190  0.62232  0.66832  1.0000
  H   H238      1.0  0.17174  0.55735  0.81187  1.0000
  C   C144      1.0  0.22882  0.52970  0.77014  1.0000
  H   H239      1.0  0.37433  0.75372  0.85118  1.0000
  C   C145      1.0  0.22379  0.48466  0.83981  1.0000
  C   C146      1.0  0.59073  0.72902  0.73385  1.0000
  H   H240      1.0  0.21083  0.54225  0.75108  1.0000
  H   H241      1.0  0.48581  0.66431  0.81186  1.0000
  S   S56       1.0  0.39342  0.52775  0.80462  1.0000
  C   C147      1.0  0.47692  0.76413  0.87532  1.0000
  C   C148      1.0  0.49930  0.50412  0.83092  1.0000
  H   H242      1.0  0.29271  0.61416  0.84038  1.0000
  C   C149      1.0  0.19366  0.49375  0.68184  1.0000
  C   C150      1.0  0.36149  0.64729  0.73890  1.0000
  C   C151      1.0  0.30156  0.67586  0.78596  1.0000
  S   S57       1.0  0.42626  0.51008  0.71332  1.0000
  H   H243      1.0  0.43431  0.72382  0.80324  1.0000
  H   H244      1.0  0.58659  0.69773  0.71892  1.0000
  H   H245      1.0  0.33148  0.63835  0.66085  1.0000
  H   H246      1.0  0.25603  0.51939  0.83544  1.0000
  C   C152      1.0  0.62109  0.49988  0.76534  1.0000
  H   H247      1.0  0.62633  0.74813  0.73221  1.0000
  H   H248      1.0  0.31821  0.73466  0.72616  1.0000
  H   H249      1.0  0.50434  0.64824  0.76590  1.0000
  S   S58       1.0  0.22853  0.66110  0.71615  1.0000
  H   H250      1.0  0.34498  0.58843  0.79873  1.0000
  C   C153      1.0  0.17272  0.72806  0.88024  1.0000
  H   H251      1.0  0.20774  0.53722  0.67333  1.0000
  H   H252      1.0  0.35835  0.80225  0.86449  1.0000
  C   C154      1.0  0.33990  0.62099  0.78295  1.0000
  H   H253      1.0  0.38436  0.79064  0.64418  1.0000
  C   C155      1.0  0.32451  0.70335  0.74229  1.0000
  H   H254      1.0  0.16118  0.51824  0.86458  1.0000
  C   C156      1.0  0.56541  0.74927  0.79600  1.0000
  Fe  Fe28      1.0  0.22739  0.70187  0.76425  1.0000
  S   S59       1.0  0.50138  0.50501  0.77998  1.0000
  H   H255      1.0  0.57682  0.59217  0.64429  1.0000
  C   C157      1.0  0.53524  0.65326  0.64318  1.0000
  Fe  Fe29      1.0  0.43368  0.49032  0.77604  1.0000
  H   H256      1.0  0.54134  0.73375  0.82931  1.0000
  H   H257      1.0  0.32490  0.75445  0.84467  1.0000
  H   H258      1.0  0.23977  0.50288  0.75707  1.0000
  S   S60       1.0  0.25541  0.78364  0.71610  1.0000
  S   S61       1.0  0.25730  0.68630  0.81287  1.0000
  C   C158      1.0  0.51126  0.68159  0.77889  1.0000
  N   N17       1.0  0.19944  0.50211  0.81561  1.0000
  H   H259      1.0  0.55912  0.62968  0.79106  1.0000
  C   C159      1.0  0.45497  0.75015  0.81629  1.0000
  H   H260      1.0  0.64415  0.52662  0.68101  1.0000
  H   H261      1.0  0.46476  0.55199  0.83406  1.0000
  H   H262      1.0  0.60004  0.68022  0.80310  1.0000
  C   C160      1.0  0.20038  0.79792  0.81251  1.0000
  H   H263      1.0  0.60026  0.76827  0.79596  1.0000
  H   H264      1.0  0.16985  0.77467  0.80635  1.0000
  H   H265      1.0  0.58499  0.50691  0.70585  1.0000
  H   H266      1.0  0.51916  0.55028  0.65118  1.0000
  C   C161      1.0  0.18663  0.53954  0.83168  1.0000
  Fe  Fe30      1.0  0.25232  0.74254  0.66842  1.0000
  H   H267      1.0  0.61980  0.47885  0.79688  1.0000
  H   H268      1.0  0.54139  0.64605  0.83717  1.0000
  C   C162      1.0  0.45093  0.72997  0.85822  1.0000
  H   H269      1.0  0.29433  0.60904  0.63521  1.0000
  H   H270      1.0  0.21623  0.57352  0.83210  1.0000
  H   H271      1.0  0.50490  0.71230  0.75986  1.0000
  C   C163      1.0  0.61007  0.49147  0.70094  1.0000
  C   C164      1.0  0.31046  0.63588  0.80661  1.0000
  C   C165      1.0  0.56495  0.66351  0.80344  1.0000
  N   N18       1.0  0.55804  0.70577  0.77805  1.0000
  H   H272      1.0  0.37194  0.71036  0.68524  1.0000
  H   H273      1.0  0.19813  0.71486  0.86837  1.0000
  Fe  Fe31      1.0  0.15805  0.64918  0.72670  1.0000
  Fe  Fe32      1.0  0.18360  0.76356  0.72602  1.0000
  H   H274      1.0  0.22687  0.78719  0.79864  1.0000
  H   H275      1.0  0.56146  0.78236  0.77705  1.0000
  C   C166      1.0  0.21240  0.47207  0.65498  1.0000
  H   H276      1.0  0.31862  0.50650  0.88456  1.0000
  H   H277      1.0  0.60586  0.51038  0.94318  1.0000
  H   H278      1.0  0.44992  0.75421  0.09610  1.0000
  S   S62       1.0  0.25922  0.78859  0.00891  1.0000
  S   S63       1.0  0.45431  0.56817  0.03967  1.0000
  C   C167      1.0  0.48477  0.76393  0.08031  1.0000
  H   H279      1.0  0.61005  0.58633  0.89182  1.0000
  S   S64       1.0  0.41561  0.66123  0.88790  1.0000
  H   H280      1.0  0.47459  0.56346  0.12066  1.0000
  H   H281      1.0  0.32861  0.65748  0.89406  1.0000
  H   H282      1.0  0.60978  0.59225  0.01344  1.0000
  H   H283      1.0  0.28168  0.48885  0.04815  1.0000
  S   S65       1.0  0.24122  0.69034  0.12190  1.0000
  H   H284      1.0  0.40760  0.60822  0.12956  1.0000
  C   C168      1.0  0.26987  0.51583  0.93024  1.0000
  C   C169      1.0  0.59933  0.60363  0.98669  1.0000
  H   H285      1.0  0.34299  0.63805  0.03844  1.0000
  H   H286      1.0  0.61294  0.64848  0.97520  1.0000
  N   N19       1.0  0.31706  0.72067  0.90935  1.0000
  Fe  Fe33      1.0  0.26892  0.77064  0.07080  1.0000
  C   C170      1.0  0.51200  0.47198  0.89472  1.0000
  H   H287      1.0  0.60915  0.51284  0.99331  1.0000
  Fe  Fe34      1.0  0.45635  0.54701  0.98147  1.0000
  H   H288      1.0  0.56232  0.58265  0.92975  1.0000
  Fe  Fe35      1.0  0.43358  0.63341  0.94289  1.0000
  S   S66       1.0  0.49948  0.63293  0.93680  1.0000
  C   C171      1.0  0.57453  0.78809  0.04036  1.0000
  H   H289      1.0  0.45514  0.54421  0.90792  1.0000
  H   H290      1.0  0.25599  0.72260  0.90838  1.0000
  S   S67       1.0  0.55269  0.70730  0.00768  1.0000
  C   C172      1.0  0.28449  0.48690  0.90783  1.0000
  H   H291      1.0  0.16347  0.71771  0.91511  1.0000
  C   C173      1.0  0.59634  0.52573  0.96888  1.0000
  C   C174      1.0  0.22511  0.49151  0.95915  1.0000
  H   H292      1.0  0.27708  0.65633  0.89148  1.0000
  H   H293      1.0  0.46724  0.69801  0.05686  1.0000
  H   H294      1.0  0.32481  0.69968  0.96906  1.0000
  H   H295      1.0  0.48903  0.63320  0.09921  1.0000
  H   H296      1.0  0.61152  0.62610  0.10702  1.0000
  H   H297      1.0  0.28978  0.77171  0.92694  1.0000
  H   H298      1.0  0.29302  0.55740  0.92435  1.0000
  H   H299      1.0  0.25682  0.70123  0.96039  1.0000
  C   C175      1.0  0.48878  0.49559  0.91499  1.0000
  H   H300      1.0  0.47328  0.74895  0.90796  1.0000
  N   N20       1.0  0.61521  0.58527  0.95226  1.0000
  S   S68       1.0  0.47751  0.48581  0.96873  1.0000
  H   H301      1.0  0.30848  0.69789  0.04812  1.0000
  H   H302      1.0  0.28102  0.63450  0.94193  1.0000
  C   C176      1.0  0.59983  0.60069  0.91793  1.0000
  C   C177      1.0  0.30779  0.58361  0.10342  1.0000
  S   S69       1.0  0.39071  0.54569  0.98381  1.0000
  C   C178      1.0  0.34485  0.72854  0.93578  1.0000
  C   C179      1.0  0.31937  0.62912  0.06915  1.0000
  Fe  Fe36      1.0  0.39291  0.57588  0.03777  1.0000
  C   C180      1.0  0.53957  0.74473  0.03751  1.0000
  H   H303      1.0  0.35824  0.77031  0.93659  1.0000
  C   C181      1.0  0.49456  0.73223  0.05796  1.0000
  C   C182      1.0  0.30024  0.66484  0.90915  1.0000
  S   S70       1.0  0.43174  0.66381  0.99710  1.0000
  C   C183      1.0  0.26707  0.64981  0.11384  1.0000
  C   C184      1.0  0.27816  0.72954  0.92706  1.0000
  H   H304      1.0  0.49626  0.79800  0.98556  1.0000
  C   C185      1.0  0.29941  0.66265  0.07447  1.0000
  S   S71       1.0  0.20593  0.52918  0.98454  1.0000
  H   H305      1.0  0.50790  0.50017  0.07737  1.0000
  H   H306      1.0  0.56166  0.58528  0.99967  1.0000
  H   H307      1.0  0.55868  0.50488  0.98353  1.0000
  H   H308      1.0  0.65353  0.65238  0.05441  1.0000
  H   H309      1.0  0.37432  0.72179  0.92339  1.0000
  Fe  Fe37      1.0  0.49318  0.65410  0.99552  1.0000
  S   S72       1.0  0.33376  0.54238  0.09852  1.0000
  H   H310      1.0  0.61394  0.64550  0.90423  1.0000
  C   C186      1.0  0.47301  0.52573  0.89257  1.0000
  C   C187      1.0  0.48312  0.60133  0.12791  1.0000
  H   H311      1.0  0.51574  0.61334  0.13278  1.0000
  H   H312      1.0  0.60914  0.79681  0.02562  1.0000
  C   C188      1.0  0.64833  0.65195  0.08735  1.0000
  H   H313      1.0  0.62533  0.54890  0.12523  1.0000
  H   H314      1.0  0.65760  0.69426  0.08605  1.0000
  C   C189      1.0  0.55075  0.69029  0.34339  1.0000
  H   H315      1.0  0.39364  0.53857  0.15102  1.0000
  H   H316      1.0  0.45765  0.57140  0.34857  1.0000
  S   S73       1.0  0.39383  0.68437  0.33541  1.0000
  H   H317      1.0  0.54295  0.60060  0.32785  1.0000
  H   H318      1.0  0.62480  0.51432  0.34423  1.0000
  Fe  Fe38      1.0  0.43297  0.74154  0.36241  1.0000
  Fe  Fe39      1.0  0.53106  0.48493  0.21459  1.0000
  H   H319      1.0  0.34400  0.72534  0.37308  1.0000
  S   S74       1.0  0.50017  0.76336  0.31486  1.0000
  S   S75       1.0  0.45574  0.77875  0.24175  1.0000
  C   C190      1.0  0.25520  0.71181  0.22711  1.0000
  H   H320      1.0  0.57960  0.72073  0.31361  1.0000
  H   H321      1.0  0.26568  0.53536  0.16905  1.0000
  H   H322      1.0  0.37563  0.57094  0.18517  1.0000
  H   H323      1.0  0.22669  0.68602  0.25822  1.0000
  C   C191      1.0  0.27522  0.57079  0.14258  1.0000
  H   H324      1.0  0.41339  0.54444  0.23179  1.0000
  C   C192      1.0  0.42382  0.58917  0.30797  1.0000
  H   H325      1.0  0.23196  0.72219  0.33977  1.0000
  S   S76       1.0  0.32563  0.74917  0.29667  1.0000
  C   C193      1.0  0.57198  0.62105  0.33717  1.0000
  H   H326      1.0  0.22944  0.59333  0.17810  1.0000
  H   H327      1.0  0.43273  0.64052  0.20217  1.0000
  H   H328      1.0  0.63226  0.70694  0.34667  1.0000
  N   N21       1.0  0.44666  0.59360  0.16550  1.0000
  C   C194      1.0  0.34164  0.54163  0.33954  1.0000
  C   C195      1.0  0.44043  0.55111  0.20272  1.0000
  H   H329      1.0  0.54244  0.71249  0.36394  1.0000
  H   H330      1.0  0.49143  0.65867  0.17952  1.0000
  C   C196      1.0  0.40404  0.57712  0.15757  1.0000
  H   H331      1.0  0.18390  0.73037  0.23405  1.0000
  N   N22       1.0  0.25648  0.76442  0.20995  1.0000
  H   H332      1.0  0.47208  0.56245  0.20945  1.0000
  C   C197      1.0  0.45922  0.64490  0.17376  1.0000
  H   H333      1.0  0.20839  0.73324  0.18118  1.0000
  H   H334      1.0  0.59932  0.76779  0.15358  1.0000
  S   S77       1.0  0.52451  0.51116  0.15205  1.0000
  C   C198      1.0  0.42538  0.56254  0.34580  1.0000
  H   H335      1.0  0.65022  0.48399  0.27966  1.0000
  H   H336      1.0  0.56782  0.76885  0.22616  1.0000
  H   H337      1.0  0.52080  0.67043  0.33501  1.0000
  H   H338      1.0  0.29214  0.77686  0.14543  1.0000
  Fe  Fe40      1.0  0.59104  0.52136  0.26412  1.0000
  H   H339      1.0  0.28702  0.71735  0.23216  1.0000
  H   H340      1.0  0.43122  0.51188  0.19750  1.0000
  Fe  Fe41      1.0  0.46020  0.71181  0.28448  1.0000
  C   C199      1.0  0.34324  0.51762  0.37820  1.0000
  C   C200      1.0  0.25480  0.60369  0.14774  1.0000
  C   C201      1.0  0.21372  0.75516  0.20371  1.0000
  C   C202      1.0  0.29142  0.72555  0.35069  1.0000
  C   C203      1.0  0.60171  0.67803  0.37573  1.0000
  H   H341      1.0  0.46387  0.67777  0.14665  1.0000
  S   S78       1.0  0.59481  0.48247  0.21496  1.0000
  C   C204      1.0  0.38510  0.52707  0.38107  1.0000
  H   H342      1.0  0.38029  0.59968  0.27612  1.0000
  H   H343      1.0  0.23283  0.77055  0.27108  1.0000
  H   H344      1.0  0.21363  0.79407  0.19066  1.0000
  C   C205      1.0  0.38185  0.57786  0.30465  1.0000
  S   S79       1.0  0.53026  0.52965  0.25995  1.0000
  C   C206      1.0  0.24594  0.71392  0.36328  1.0000
  H   H345      1.0  0.57949  0.58957  0.35304  1.0000
  H   H346      1.0  0.30942  0.53468  0.33718  1.0000
  Fe  Fe42      1.0  0.39246  0.75575  0.29598  1.0000
  S   S80       1.0  0.47285  0.64597  0.26939  1.0000
  N   N23       1.0  0.56187  0.65010  0.36521  1.0000
  H   H347      1.0  0.25093  0.68879  0.20511  1.0000
  S   S81       1.0  0.65322  0.59188  0.25915  1.0000
  C   C207      1.0  0.29515  0.79749  0.16897  1.0000
  C   C208      1.0  0.26186  0.79342  0.24006  1.0000
  C   C209      1.0  0.64554  0.55476  0.34279  1.0000
  H   H348      1.0  0.29289  0.79973  0.24668  1.0000
  H   H349      1.0  0.60200  0.64918  0.30742  1.0000
  H   H350      1.0  0.62466  0.80235  0.22423  1.0000
  C   C210      1.0  0.65370  0.56344  0.37905  1.0000
  C   C211      1.0  0.30910  0.71546  0.38169  1.0000
  H   H351      1.0  0.63329  0.60853  0.16969  1.0000
  H   H352      1.0  0.23347  0.57517  0.36119  1.0000
  H   H353      1.0  0.65595  0.80285  0.15207  1.0000
  C   C212      1.0  0.17378  0.90813  0.49258  1.0000
  H   H354      1.0  0.35812  0.84979  0.51688  1.0000
  C   C213      1.0  0.52404  0.03923  0.46241  1.0000
  C   C214      1.0  0.53784  0.96175  0.47478  1.0000
  H   H355      1.0  0.56952  0.02757  0.41527  1.0000
  H   H356      1.0  0.24281  0.96147  0.54303  1.0000
  H   H357      1.0  0.31033  0.97312  0.48212  1.0000
  H   H358      1.0  0.65045  0.90852  0.60392  1.0000
  C   C215      1.0  0.48342  0.96628  0.53095  1.0000
  C   C216      1.0  0.33382  0.07886  0.46581  1.0000
  H   H359      1.0  0.34950  0.01246  0.42883  1.0000
  C   C217      1.0  0.31785  0.84098  0.43763  1.0000
  H   H360      1.0  0.54410  0.87406  0.61511  1.0000
  H   H361      1.0  0.54555  0.96195  0.58240  1.0000
  C   C218      1.0  0.49278  0.01680  0.50417  1.0000
  H   H362      1.0  0.43125  0.07096  0.45452  1.0000
  H   H363      1.0  0.60695  0.96394  0.60528  1.0000
  C   C219      1.0  0.35437  0.03664  0.51937  1.0000
  S   S82       1.0  0.49737  0.87796  0.55070  1.0000
  C   C220      1.0  0.16033  0.97653  0.51423  1.0000
  H   H364      1.0  0.55528  0.94073  0.46318  1.0000
  C   C221      1.0  0.52523  0.95604  0.61505  1.0000
  H   H365      1.0  0.42087  0.12764  0.45460  1.0000
  C   C222      1.0  0.24161  0.07177  0.39998  1.0000
  N   N24       1.0  0.32973  0.82046  0.47325  1.0000
  C   C223      1.0  0.21807  0.95612  0.52839  1.0000
  H   H366      1.0  0.37473  0.01670  0.52683  1.0000
  S   S83       1.0  0.26319  0.02790  0.41374  1.0000
  H   H367      1.0  0.19500  0.10960  0.58997  1.0000
  H   H368      1.0  0.32169  0.88771  0.61230  1.0000
  H   H369      1.0  0.45865  0.94860  0.56302  1.0000
  C   C224      1.0  0.20667  0.91595  0.51034  1.0000
  H   H370      1.0  0.29695  0.05096  0.48320  1.0000
  H   H371      1.0  0.24379  0.09832  0.45312  1.0000
  H   H372      1.0  0.31826  0.00804  0.53996  1.0000
  S   S84       1.0  0.46487  0.13073  0.52027  1.0000
  C   C225      1.0  0.23838  0.10475  0.42354  1.0000
  Fe  Fe43      1.0  0.55651  0.86315  0.52817  1.0000
  S   S85       1.0  0.59140  0.86697  0.46304  1.0000
  H   H373      1.0  0.32316  0.87698  0.50251  1.0000
  H   H374      1.0  0.64882  0.02837  0.43359  1.0000
  H   H375      1.0  0.17093  0.84857  0.40778  1.0000
  Fe  Fe44      1.0  0.61823  0.83185  0.56430  1.0000
  C   C226      1.0  0.34854  0.86385  0.49007  1.0000
  C   C227      1.0  0.25067  0.05219  0.63266  1.0000
  H   H376      1.0  0.63119  0.12679  0.41676  1.0000
  C   C228      1.0  0.61916  0.12096  0.60703  1.0000
  C   C229      1.0  0.19588  0.98789  0.52899  1.0000
  S   S86       1.0  0.22916  0.87104  0.51375  1.0000
  C   C230      1.0  0.35112  0.83544  0.62532  1.0000
  C   C231      1.0  0.34648  0.00274  0.46250  1.0000
  H   H377      1.0  0.34815  0.87606  0.41133  1.0000
  C   C232      1.0  0.23951  0.07804  0.60175  1.0000
  C   C233      1.0  0.56133  0.11270  0.56285  1.0000
  C   C234      1.0  0.50652  0.93914  0.51644  1.0000
  H   H378      1.0  0.30314  0.80902  0.42446  1.0000
  H   H379      1.0  0.41600  0.09972  0.41350  1.0000
  H   H380      1.0  0.29228  0.85466  0.44794  1.0000
  H   H381      1.0  0.48885  0.93250  0.62013  1.0000
  H   H382      1.0  0.47525  0.03771  0.51578  1.0000
  H   H383      1.0  0.20415  0.01854  0.54335  1.0000
  C   C235      1.0  0.59410  0.09582  0.55227  1.0000
  H   H384      1.0  0.25850  0.08898  0.56848  1.0000
  H   H385      1.0  0.37939  0.89987  0.46519  1.0000
  S   S87       1.0  0.62078  0.91171  0.53637  1.0000
  H   H386      1.0  0.36721  0.98230  0.46707  1.0000
  N   N25       1.0  0.36102  0.05185  0.47393  1.0000
  H   H387      1.0  0.39525  0.83728  0.43216  1.0000
  C   C236      1.0  0.54593  0.01113  0.44761  1.0000
  S   S88       1.0  0.29608  0.03882  0.61752  1.0000
  H   H388      1.0  0.53101  0.99659  0.61606  1.0000
  H   H389      1.0  0.36410  0.07268  0.52931  1.0000
  S   S89       1.0  0.53649  0.10216  0.42792  1.0000
  H   H390      1.0  0.18174  0.95301  0.61506  1.0000
  C   C237      1.0  0.40946  0.08925  0.44798  1.0000
  H   H391      1.0  0.53789  0.10766  0.54668  1.0000
  H   H392      1.0  0.34196  0.11432  0.47624  1.0000
  H   H393      1.0  0.62683  0.05326  0.47209  1.0000
  H   H394      1.0  0.16715  0.87984  0.47617  1.0000
  H   H395      1.0  0.59624  0.07876  0.52755  1.0000
  C   C238      1.0  0.34379  0.87974  0.62672  1.0000
  H   H396      1.0  0.33952  0.09305  0.43160  1.0000
  C   C239      1.0  0.20404  0.09033  0.61389  1.0000
  C   C240      1.0  0.62406  0.10163  0.57349  1.0000
  H   H397      1.0  0.64009  0.12234  0.62532  1.0000
  Fe  Fe45      1.0  0.65549  0.91060  0.47324  1.0000
  C   C241      1.0  0.36391  0.80319  0.45808  1.0000
  H   H398      1.0  0.17088  0.03823  0.72111  1.0000
  N   N26       1.0  0.53732  0.92803  0.64715  1.0000
  C   C242      1.0  0.48920  0.08519  0.76523  1.0000
  C   C243      1.0  0.37865  0.82466  0.64515  1.0000
  H   H399      1.0  0.49747  0.07921  0.79406  1.0000
  S   S90       1.0  0.22542  0.96436  0.82198  1.0000
  H   H400      1.0  0.53447  0.85058  0.67057  1.0000
  C   C244      1.0  0.49204  0.03055  0.87113  1.0000
  H   H401      1.0  0.52234  0.90730  0.71407  1.0000
  H   H402      1.0  0.51777  0.96539  0.68976  1.0000
  C   C245      1.0  0.39573  0.85504  0.66920  1.0000
  H   H403      1.0  0.23341  0.01615  0.69961  1.0000
  S   S91       1.0  0.56526  0.89625  0.77221  1.0000
  C   C246      1.0  0.36215  0.91136  0.64962  1.0000
  H   H404      1.0  0.50666  0.10511  0.68390  1.0000
  S   S92       1.0  0.40363  0.93170  0.70657  1.0000
  S   S93       1.0  0.16551  0.83038  0.72503  1.0000
  H   H405      1.0  0.32558  0.12169  0.83138  1.0000
  Fe  Fe46      1.0  0.29055  0.99404  0.76805  1.0000
  S   S94       1.0  0.60862  0.83937  0.85474  1.0000
  C   C247      1.0  0.29086  0.09166  0.85462  1.0000
  C   C248      1.0  0.51626  0.83631  0.80659  1.0000
  H   H406      1.0  0.56865  0.10433  0.71279  1.0000
  Fe  Fe47      1.0  0.31874  0.02869  0.67206  1.0000
  H   H407      1.0  0.47820  0.94943  0.87451  1.0000
  S   S95       1.0  0.29432  0.94969  0.72274  1.0000
  C   C249      1.0  0.23173  0.81820  0.86462  1.0000
  H   H408      1.0  0.45109  0.04960  0.71050  1.0000
  H   H409      1.0  0.41365  0.84319  0.68719  1.0000
  H   H410      1.0  0.25801  0.80598  0.85326  1.0000
  C   C250      1.0  0.38674  0.89782  0.67227  1.0000
  H   H411      1.0  0.48894  0.84873  0.65358  1.0000
  S   S96       1.0  0.36167  0.01905  0.76518  1.0000
  S   S97       1.0  0.65165  0.10088  0.74639  1.0000
  H   H412      1.0  0.52924  0.84422  0.86254  1.0000
  H   H413      1.0  0.47341  0.98196  0.79881  1.0000
  H   H414      1.0  0.43007  0.98305  0.77981  1.0000
  C   C251      1.0  0.46626  0.99245  0.76969  1.0000
  H   H415      1.0  0.35546  0.94472  0.65115  1.0000
  C   C252      1.0  0.58640  0.95872  0.63760  1.0000
  H   H416      1.0  0.51084  0.12882  0.74522  1.0000
  H   H417      1.0  0.21293  0.84162  0.79483  1.0000
  C   C253      1.0  0.50898  0.81766  0.84959  1.0000
  H   H418      1.0  0.59693  0.93811  0.66073  1.0000
  H   H419      1.0  0.26732  0.10621  0.84711  1.0000
  C   C254      1.0  0.54448  0.06079  0.73139  1.0000
  H   H420      1.0  0.49327  0.81719  0.75710  1.0000
  S   S98       1.0  0.31009  0.07129  0.71761  1.0000
  H   H421      1.0  0.17292  0.92627  0.73917  1.0000
  C   C255      1.0  0.52574  0.87285  0.64674  1.0000
  H   H422      1.0  0.55251  0.03717  0.71228  1.0000
  H   H423      1.0  0.46977  0.96468  0.75293  1.0000
  Fe  Fe48      1.0  0.38126  0.09328  0.71094  1.0000
  H   H424      1.0  0.59592  0.99996  0.63894  1.0000
  S   S99       1.0  0.39190  0.05709  0.66101  1.0000
  H   H425      1.0  0.45330  0.07689  0.77528  1.0000
  C   C256      1.0  0.17978  0.07681  0.65682  1.0000
  H   H426      1.0  0.55202  0.04979  0.76030  1.0000
  H   H427      1.0  0.47480  0.89936  0.69903  1.0000
  H   H428      1.0  0.52845  0.04671  0.85805  1.0000
  H   H429      1.0  0.24662  0.86208  0.84623  1.0000
  C   C257      1.0  0.22586  0.03781  0.67565  1.0000
  C   C258      1.0  0.21603  0.93650  0.87534  1.0000
  H   H430      1.0  0.28173  0.05276  0.84887  1.0000
  N   N27       1.0  0.49685  0.04988  0.74238  1.0000
  H   H431      1.0  0.16548  0.88662  0.64871  1.0000
  H   H432      1.0  0.49581  0.03873  0.68323  1.0000
  Fe  Fe49      1.0  0.36738  0.98094  0.71502  1.0000
  C   C259      1.0  0.48738  0.06129  0.70330  1.0000
  Fe  Fe50      1.0  0.62218  0.90235  0.79494  1.0000
  H   H433      1.0  0.28278  0.94475  0.86519  1.0000
  C   C260      1.0  0.19021  0.04987  0.68782  1.0000
  C   C261      1.0  0.51187  0.92471  0.68944  1.0000
  H   H434      1.0  0.58040  0.12240  0.78619  1.0000
  S   S100      1.0  0.51041  0.13254  0.86942  1.0000
  H   H435      1.0  0.16497  0.84444  0.85686  1.0000
  Fe  Fe51      1.0  0.65436  0.90842  0.86833  1.0000
  H   H436      1.0  0.16943  0.93859  0.67050  1.0000
  C   C262      1.0  0.47360  0.06424  0.88045  1.0000
  C   C263      1.0  0.46359  0.97546  0.88042  1.0000
  C   C264      1.0  0.15879  0.92171  0.64685  1.0000
  C   C265      1.0  0.48792  0.80330  0.79030  1.0000
  C   C266      1.0  0.29288  0.06765  0.12166  1.0000
  C   C267      1.0  0.44568  0.02814  0.05306  1.0000
  C   C268      1.0  0.56497  0.82116  0.06116  1.0000
  H   H437      1.0  0.31736  0.05837  0.94064  1.0000
  H   H438      1.0  0.21665  0.06100  0.92219  1.0000
  Fe  Fe52      1.0  0.23925  0.84746  0.02884  1.0000
  S   S101      1.0  0.61169  0.98434  0.10142  1.0000
  Fe  Fe53      1.0  0.58419  0.03590  0.00603  1.0000
  C   C269      1.0  0.42661  0.04338  0.89681  1.0000
  C   C270      1.0  0.42069  0.97562  0.01023  1.0000
  C   C271      1.0  0.46513  0.00029  0.98112  1.0000
  H   H439      1.0  0.51754  0.08317  0.02877  1.0000
  H   H440      1.0  0.30890  0.02342  0.90410  1.0000
  H   H441      1.0  0.22510  0.81312  0.89863  1.0000
  H   H442      1.0  0.58775  0.86867  0.12653  1.0000
  S   S102      1.0  0.55639  0.05665  0.95781  1.0000
  H   H443      1.0  0.43873  0.82162  0.97398  1.0000
  H   H444      1.0  0.43846  0.03839  0.08118  1.0000
  N   N28       1.0  0.50669  0.87950  0.96283  1.0000
  C   C272      1.0  0.36289  0.07021  0.12363  1.0000
  H   H445      1.0  0.52405  0.89515  0.01536  1.0000
  H   H446      1.0  0.28194  0.02872  0.11575  1.0000
  S   S103      1.0  0.64793  0.92259  0.92937  1.0000
  H   H447      1.0  0.48373  0.91541  0.00563  1.0000
  H   H448      1.0  0.31111  0.10097  0.09026  1.0000
  H   H449      1.0  0.26458  0.89926  0.94149  1.0000
  C   C273      1.0  0.16322  0.89408  0.94836  1.0000
  H   H450      1.0  0.53115  0.96393  0.92891  1.0000
  H   H451      1.0  0.55382  0.93064  0.89904  1.0000
  H   H452      1.0  0.29825  0.13394  0.93780  1.0000
  H   H453      1.0  0.57316  0.94778  0.93976  1.0000
  H   H454      1.0  0.65665  0.82901  0.92235  1.0000
  C   C274      1.0  0.19603  0.88710  0.96161  1.0000
  C   C275      1.0  0.23920  0.90513  0.93157  1.0000
  C   C276      1.0  0.24945  0.93062  0.88838  1.0000
  C   C277      1.0  0.54272  0.93274  0.93122  1.0000
  H   H455      1.0  0.41231  0.06953  0.90304  1.0000
  C   C278      1.0  0.46617  0.86229  0.95150  1.0000
  H   H456      1.0  0.46676  0.84490  0.02976  1.0000
  H   H457      1.0  0.35389  0.03122  0.11812  1.0000
  C   C279      1.0  0.50029  0.03808  0.98805  1.0000
  S   S104      1.0  0.18900  0.11287  0.99303  1.0000
  H   H458      1.0  0.47246  0.98749  0.95461  1.0000
  S   S105      1.0  0.53312  0.99303  0.07215  1.0000
  N   N29       1.0  0.28781  0.08485  0.89880  1.0000
  H   H459      1.0  0.22944  0.00619  0.92498  1.0000
  C   C280      1.0  0.52002  0.80874  0.08152  1.0000
  H   H460      1.0  0.47413  0.86044  0.91903  1.0000
  S   S106      1.0  0.60987  0.97541  0.00977  1.0000
  S   S107      1.0  0.34202  0.83333  0.04281  1.0000
  C   C281      1.0  0.49468  0.88389  0.00524  1.0000
  C   C282      1.0  0.52314  0.83911  0.96353  1.0000
  C   C283      1.0  0.31843  0.06360  0.90770  1.0000
  S   S108      1.0  0.18210  0.85615  0.01581  1.0000
  Fe  Fe54      1.0  0.58721  0.04574  0.09005  1.0000
  Fe  Fe55      1.0  0.33009  0.85753  0.98276  1.0000
  Fe  Fe56      1.0  0.56146  0.93584  0.07739  1.0000
  H   H461      1.0  0.38239  0.10307  0.09197  1.0000
  H   H462      1.0  0.23699  0.04035  0.96198  1.0000
  H   H463      1.0  0.55240  0.84961  0.97399  1.0000
  H   H464      1.0  0.36203  0.97287  0.91679  1.0000
  S   S109      1.0  0.35610  0.94956  0.08645  1.0000
  H   H465      1.0  0.45205  0.89097  0.95241  1.0000
  C   C284      1.0  0.41093  0.98790  0.04702  1.0000
  H   H466      1.0  0.53478  0.83659  0.93165  1.0000
  C   C285      1.0  0.49039  0.05359  0.02330  1.0000
  S   S110      1.0  0.24415  0.82546  0.09252  1.0000
  H   H467      1.0  0.39446  0.94574  0.00450  1.0000
  C   C286      1.0  0.41659  0.95378  0.89921  1.0000
  S   S111      1.0  0.38158  0.88310  0.91769  1.0000
  H   H468      1.0  0.59255  0.85618  0.06122  1.0000
  S   S112      1.0  0.63676  0.09325  0.02332  1.0000
  Fe  Fe57      1.0  0.31676  0.88944  0.06087  1.0000
  C   C287      1.0  0.17309  0.91851  0.90537  1.0000
  S   S113      1.0  0.50737  0.84901  0.10830  1.0000
  S   S114      1.0  0.30905  0.91713  0.99961  1.0000
  C   C288      1.0  0.39819  0.98838  0.90548  1.0000
  C   C289      1.0  0.24072  0.04647  0.92833  1.0000
  H   H469      1.0  0.64026  0.83032  0.11075  1.0000
  H   H470      1.0  0.35416  0.09147  0.88559  1.0000
  H   H471      1.0  0.63222  0.99458  0.18268  1.0000
  H   H472      1.0  0.60690  0.03667  0.19141  1.0000
  S   S115      1.0  0.39854  0.03076  0.26099  1.0000
  C   C290      1.0  0.63923  0.03737  0.17528  1.0000
  C   C291      1.0  0.52636  0.94661  0.27395  1.0000
  H   H473      1.0  0.42970  0.89905  0.14055  1.0000
  C   C292      1.0  0.57674  0.84569  0.16066  1.0000
  H   H474      1.0  0.37950  0.95993  0.20796  1.0000
  H   H475      1.0  0.32784  0.80497  0.17257  1.0000
  H   H476      1.0  0.48148  0.93163  0.37753  1.0000
  C   C293      1.0  0.29659  0.02701  0.18800  1.0000
  S   S116      1.0  0.32252  0.95736  0.35708  1.0000
  C   C294      1.0  0.62793  0.80863  0.14552  1.0000
  S   S117      1.0  0.57126  0.08051  0.13991  1.0000
  H   H477      1.0  0.55043  0.10578  0.26003  1.0000
  S   S118      1.0  0.42859  0.81182  0.32553  1.0000
  H   H478      1.0  0.45748  0.88090  0.17359  1.0000
  C   C295      1.0  0.38264  0.92985  0.19372  1.0000
  H   H479      1.0  0.56494  0.86817  0.17882  1.0000
  H   H480      1.0  0.64385  0.91646  0.17723  1.0000
  H   H481      1.0  0.30531  0.12757  0.17125  1.0000
  H   H482      1.0  0.38424  0.94355  0.16063  1.0000
  Fe  Fe58      1.0  0.49207  0.82871  0.27532  1.0000
  H   H483      1.0  0.24305  0.91324  0.34963  1.0000
  H   H484      1.0  0.59101  0.09608  0.34849  1.0000
  H   H485      1.0  0.57051  0.06147  0.31469  1.0000
  S   S119      1.0  0.44144  0.99975  0.35775  1.0000
  C   C296      1.0  0.46376  0.97710  0.17232  1.0000
  Fe  Fe59      1.0  0.31080  0.02852  0.35678  1.0000
  H   H486      1.0  0.26561  0.02740  0.20671  1.0000
  C   C297      1.0  0.23322  0.07903  0.36251  1.0000
  N   N30       1.0  0.32192  0.07233  0.14686  1.0000
  S   S120      1.0  0.54665  0.91439  0.24328  1.0000
  H   H487      1.0  0.51273  0.11565  0.29920  1.0000
  C   C298      1.0  0.33538  0.12428  0.15421  1.0000
  C   C299      1.0  0.51528  0.92834  0.31782  1.0000
  N   N31       1.0  0.42282  0.92385  0.19492  1.0000
  H   H488      1.0  0.53294  0.07104  0.35417  1.0000
  C   C300      1.0  0.17671  0.84581  0.37657  1.0000
  S   S121      1.0  0.28255  0.91768  0.26506  1.0000
  H   H489      1.0  0.35093  0.89107  0.21191  1.0000
  H   H490      1.0  0.35684  0.12884  0.17359  1.0000
  S   S122      1.0  0.20963  0.07847  0.21498  1.0000
  C   C301      1.0  0.49080  0.94661  0.34350  1.0000
  Fe  Fe60      1.0  0.38246  0.09750  0.26780  1.0000
  H   H491      1.0  0.19880  0.83779  0.26411  1.0000
  S   S123      1.0  0.38454  0.08724  0.33286  1.0000
  H   H492      1.0  0.41563  0.93150  0.25616  1.0000
  S   S124      1.0  0.30746  0.04498  0.29232  1.0000
  H   H493      1.0  0.49505  0.97341  0.16979  1.0000
  C   C302      1.0  0.56825  0.09059  0.33049  1.0000
  H   H494      1.0  0.52406  0.89852  0.33217  1.0000
  H   H495      1.0  0.28561  0.98708  0.18373  1.0000
  N   N32       1.0  0.61391  0.83914  0.17010  1.0000
  H   H496      1.0  0.62757  0.05193  0.24969  1.0000
  C   C303      1.0  0.65282  0.89315  0.15818  1.0000
  H   H497      1.0  0.47818  0.02910  0.26717  1.0000
  C   C304      1.0  0.22584  0.12245  0.34648  1.0000
  H   H498      1.0  0.46652  0.99575  0.13959  1.0000
  C   C305      1.0  0.51439  0.98449  0.25572  1.0000
  C   C306      1.0  0.19284  0.83996  0.29546  1.0000
  H   H499      1.0  0.64858  0.00420  0.24902  1.0000
  C   C307      1.0  0.22734  0.87781  0.30359  1.0000
  C   C308      1.0  0.21814  0.88228  0.34358  1.0000
  H   H500      1.0  0.39706  0.84421  0.19112  1.0000
  C   C309      1.0  0.42679  0.88530  0.17411  1.0000
  Fe  Fe61      1.0  0.32319  0.97683  0.29073  1.0000
  H   H501      1.0  0.44804  0.89804  0.24129  1.0000
  H   H502      1.0  0.52280  0.99848  0.22197  1.0000
  H   H503      1.0  0.26452  0.83404  0.22736  1.0000
  C   C310      1.0  0.47608  0.98155  0.32539  1.0000
  H   H504      1.0  0.38746  0.86343  0.25767  1.0000
  H   H505      1.0  0.26181  0.06958  0.13814  1.0000
  H   H506      1.0  0.31761  0.02908  0.20765  1.0000
  H   H507      1.0  0.65171  0.10163  0.37754  1.0000
  H   H508      1.0  0.23424  0.05248  0.34498  1.0000
  C   C311      1.0  0.41830  0.90333  0.23943  1.0000
  H   H509      1.0  0.46380  0.00627  0.18883  1.0000
  H   H510      1.0  0.16920  0.96564  0.22680  1.0000
  C   C312      1.0  0.48850  0.00113  0.28145  1.0000
  Fe  Fe62      1.0  0.39610  0.01721  0.32789  1.0000
  C   C313      1.0  0.54850  0.13386  0.27695  1.0000
  H   H511      1.0  0.29725  0.83757  0.15501  1.0000
  H   H512      1.0  0.64885  0.05590  0.14059  1.0000
  H   H513      1.0  0.22196  0.12952  0.31630  1.0000
  C   C314      1.0  0.59792  0.80924  0.21595  1.0000
  H   H514      1.0  0.58834  0.83216  0.23517  1.0000
  H   H515      1.0  0.38595  0.07458  0.14138  1.0000
  H   H516      1.0  0.54691  0.80590  0.16854  1.0000
  H   H517      1.0  0.00306  0.32442  0.59940  1.0000
  H   H518      1.0  0.80084  0.39405  0.51159  1.0000
  S   S125      1.0  0.15375  0.20311  0.47532  1.0000
  C   C315      1.0  0.95535  0.16151  0.59652  1.0000
  H   H519      1.0  0.80653  0.34545  0.63414  1.0000
  C   C316      1.0  0.09361  0.30138  0.58842  1.0000
  H   H520      1.0  0.09459  0.23617  0.63173  1.0000
  H   H521      1.0  0.79741  0.29951  0.60582  1.0000
  H   H522      1.0  0.75366  0.31591  0.62652  1.0000
  S   S126      1.0  0.08976  0.25216  0.41430  1.0000
  C   C317      1.0  0.85900  0.39903  0.55129  1.0000
  H   H523      1.0  0.88579  0.17334  0.58365  1.0000
  H   H524      1.0  0.96485  0.14838  0.56938  1.0000
  H   H525      1.0  0.08757  0.16992  0.58040  1.0000
  H   H526      1.0  0.67661  0.33349  0.52877  1.0000
  H   H527      1.0  0.75035  0.34519  0.55609  1.0000
  H   H528      1.0  0.15241  0.27358  0.52177  1.0000
  C   C318      1.0  0.05800  0.44564  0.61097  1.0000
  C   C319      1.0  0.79091  0.33292  0.61126  1.0000
  Fe  Fe63      1.0  0.12013  0.25412  0.46362  1.0000
  S   S127      1.0  0.15399  0.34436  0.44295  1.0000
  C   C320      1.0  0.67909  0.36262  0.50148  1.0000
  H   H529      1.0  0.96384  0.20480  0.58292  1.0000
  H   H530      1.0  0.14839  0.44186  0.44314  1.0000
  S   S128      1.0  0.05897  0.24229  0.51369  1.0000
  S   S129      1.0  0.85619  0.25726  0.57918  1.0000
  H   H531      1.0  0.79320  0.32703  0.53499  1.0000
  C   C321      1.0  0.94114  0.36567  0.61531  1.0000
  S   S130      1.0  0.96141  0.17848  0.47607  1.0000
  S   S131      1.0  0.73059  0.44118  0.52622  1.0000
  Fe  Fe64      1.0  0.11816  0.34176  0.39758  1.0000
  C   C322      1.0  0.70964  0.45546  0.45591  1.0000
  Fe  Fe65      1.0  0.09000  0.33292  0.48858  1.0000
  C   C323      1.0  0.02312  0.30547  0.60663  1.0000
  H   H532      1.0  0.87652  0.41149  0.57298  1.0000
  C   C324      1.0  0.96792  0.16220  0.43008  1.0000
  C   C325      1.0  0.07426  0.25459  0.62430  1.0000
  H   H533      1.0  0.03299  0.46075  0.61852  1.0000
  S   S132      1.0  0.05556  0.33509  0.44239  1.0000
  C   C326      1.0  0.68296  0.43797  0.43250  1.0000
  S   S133      1.0  0.72411  0.17361  0.62430  1.0000
  H   H534      1.0  0.72339  0.19398  0.42055  1.0000
  C   C327      1.0  0.78759  0.36036  0.54215  1.0000
  H   H535      1.0  0.97102  0.40468  0.59956  1.0000
  H   H536      1.0  0.97687  0.15983  0.61515  1.0000
  H   H537      1.0  0.03976  0.14357  0.62912  1.0000
  C   C328      1.0  0.80111  0.42264  0.58006  1.0000
  H   H538      1.0  0.13624  0.18750  0.39413  1.0000
  C   C329      1.0  0.88162  0.28845  0.61090  1.0000
  H   H539      1.0  0.07290  0.14181  0.46430  1.0000
  C   C330      1.0  0.06812  0.32692  0.57986  1.0000
  Fe  Fe66      1.0  0.02988  0.24533  0.46328  1.0000
  H   H540      1.0  0.12836  0.31806  0.56734  1.0000
  C   C331      1.0  0.92033  0.33910  0.59113  1.0000
  H   H541      1.0  0.67115  0.14960  0.46524  1.0000
  N   N33       1.0  0.80967  0.37879  0.57118  1.0000
  C   C332      1.0  0.99861  0.20247  0.39078  1.0000
  H   H542      1.0  0.09042  0.14126  0.63005  1.0000
  Fe  Fe67      1.0  0.79226  0.17810  0.61232  1.0000
  H   H543      1.0  0.81801  0.43830  0.60119  1.0000
  H   H544      1.0  0.86647  0.36717  0.54336  1.0000
  H   H545      1.0  0.81392  0.45748  0.55041  1.0000
  C   C333      1.0  0.70701  0.41792  0.49091  1.0000
  H   H546      1.0  0.76424  0.40844  0.59579  1.0000
  H   H547      1.0  0.11961  0.41776  0.62915  1.0000
  H   H548      1.0  0.87463  0.43468  0.52163  1.0000
  S   S134      1.0  0.09006  0.37962  0.53187  1.0000
  H   H549      1.0  0.93440  0.35794  0.55695  1.0000
  C   C334      1.0  0.70124  0.15128  0.44262  1.0000
  H   H550      1.0  0.72007  0.14066  0.46158  1.0000
  H   H551      1.0  0.01453  0.24451  0.38811  1.0000
  H   H552      1.0  0.13759  0.45244  0.57356  1.0000
  H   H553      1.0  0.06293  0.44341  0.57872  1.0000
  C   C335      1.0  0.13260  0.45810  0.60470  1.0000
  H   H554      1.0  0.68390  0.46756  0.40666  1.0000
  C   C336      1.0  0.06766  0.13686  0.61194  1.0000
  H   H555      1.0  0.04238  0.40340  0.63350  1.0000
  C   C337      1.0  0.92419  0.34114  0.65941  1.0000
  C   C338      1.0  0.13756  0.40327  0.73078  1.0000
  H   H556      1.0  0.05479  0.45075  0.76620  1.0000
  C   C339      1.0  0.79680  0.30274  0.86279  1.0000
  C   C340      1.0  0.73656  0.14352  0.85753  1.0000
  S   S135      1.0  0.09487  0.36120  0.78083  1.0000
  H   H557      1.0  0.13990  0.33788  0.71139  1.0000
  C   C341      1.0  0.88561  0.29013  0.67934  1.0000
  H   H558      1.0  0.12480  0.21855  0.76742  1.0000
  C   C342      1.0  0.04457  0.42913  0.83279  1.0000
  S   S136      1.0  0.71517  0.40670  0.79370  1.0000
  H   H559      1.0  0.71716  0.29795  0.69764  1.0000
  Fe  Fe68      1.0  0.77016  0.38491  0.79781  1.0000
  C   C343      1.0  0.68704  0.25955  0.71583  1.0000
  H   H560      1.0  0.12068  0.17316  0.69835  1.0000
  C   C344      1.0  0.08987  0.27860  0.86941  1.0000
  S   S137      1.0  0.76297  0.34205  0.75135  1.0000
  C   C345      1.0  0.82642  0.30400  0.82639  1.0000
  H   H561      1.0  0.71970  0.21210  0.70051  1.0000
  C   C346      1.0  0.89444  0.45286  0.80758  1.0000
  H   H562      1.0  0.73751  0.15842  0.77785  1.0000
  S   S138      1.0  0.03027  0.31211  0.71168  1.0000
  C   C347      1.0  0.02919  0.23320  0.65124  1.0000
  H   H563      1.0  0.96932  0.24343  0.66380  1.0000
  H   H564      1.0  0.87193  0.27139  0.71345  1.0000
  Fe  Fe69      1.0  0.92818  0.23121  0.81725  1.0000
  S   S139      1.0  0.00644  0.18022  0.69945  1.0000
  H   H565      1.0  0.09469  0.32060  0.86237  1.0000
  H   H566      1.0  0.07808  0.44264  0.68132  1.0000
  H   H567      1.0  0.14224  0.28835  0.79511  1.0000
  H   H568      1.0  0.07115  0.25992  0.85039  1.0000
  C   C348      1.0  0.12493  0.22089  0.87266  1.0000
  H   H569      1.0  0.12042  0.15388  0.77115  1.0000
  Fe  Fe70      1.0  0.98641  0.22202  0.74142  1.0000
  C   C349      1.0  0.89532  0.14727  0.65808  1.0000
  H   H570      1.0  0.89274  0.43377  0.83978  1.0000
  H   H571      1.0  0.94797  0.40607  0.80625  1.0000
  H   H572      1.0  0.83407  0.33129  0.79549  1.0000
  H   H573      1.0  0.03037  0.38611  0.83878  1.0000
  S   S140      1.0  0.96915  0.32131  0.79348  1.0000
  S   S141      1.0  0.86541  0.19576  0.87530  1.0000
  C   C350      1.0  0.00375  0.25882  0.64248  1.0000
  S   S142      1.0  0.95251  0.37369  0.68899  1.0000
  N   N34       1.0  0.13360  0.27775  0.86016  1.0000
  C   C351      1.0  0.83814  0.23586  0.86996  1.0000
  H   H574      1.0  0.13622  0.43051  0.85542  1.0000
  H   H575      1.0  0.70442  0.26422  0.84399  1.0000
  H   H576      1.0  0.91498  0.14481  0.67864  1.0000
  H   H577      1.0  0.90242  0.19013  0.64570  1.0000
  C   C352      1.0  0.94812  0.42579  0.77496  1.0000
  H   H578      1.0  0.81126  0.18654  0.78779  1.0000
  C   C353      1.0  0.86397  0.26406  0.65513  1.0000
  Fe  Fe71      1.0  0.96577  0.31648  0.73126  1.0000
  S   S143      1.0  0.92172  0.22690  0.75562  1.0000
  Fe  Fe72      1.0  0.81451  0.42319  0.70226  1.0000
  S   S144      1.0  0.87258  0.43528  0.64854  1.0000
  H   H579      1.0  0.83382  0.22528  0.67070  1.0000
  S   S145      1.0  0.77397  0.34790  0.86015  1.0000
  H   H580      1.0  0.86710  0.42229  0.80160  1.0000
  H   H581      1.0  0.12929  0.24024  0.69335  1.0000
  C   C354      1.0  0.68845  0.21110  0.71758  1.0000
  Fe  Fe73      1.0  0.02986  0.30853  0.77601  1.0000
  C   C355      1.0  0.84749  0.27109  0.83005  1.0000
  Fe  Fe74      1.0  0.71237  0.36997  0.74320  1.0000
  H   H582      1.0  0.74755  0.18644  0.83921  1.0000
  C   C356      1.0  0.79829  0.14326  0.80677  1.0000
  H   H583      1.0  0.92208  0.39451  0.76804  1.0000
  S   S146      1.0  0.98946  0.21793  0.80564  1.0000
  H   H584      1.0  0.98160  0.43885  0.75029  1.0000
  H   H585      1.0  0.10699  0.19917  0.85455  1.0000
  H   H586      1.0  0.87105  0.27327  0.80183  1.0000
  S   S147      1.0  0.82521  0.46464  0.74923  1.0000
  C   C357      1.0  0.05246  0.44889  0.86505  1.0000
  C   C358      1.0  0.67826  0.24549  0.87662  1.0000
  S   S148      1.0  0.76358  0.44716  0.69019  1.0000
  C   C359      1.0  0.66821  0.46284  0.86838  1.0000
  H   H587      1.0  0.81605  0.14215  0.82919  1.0000
  C   C360      1.0  0.14709  0.21564  0.68959  1.0000
  C   C361      1.0  0.14524  0.19743  0.76116  1.0000
  C   C362      1.0  0.05828  0.46572  0.79177  1.0000
  H   H588      1.0  0.91566  0.46651  0.72348  1.0000
  C   C363      1.0  0.15513  0.38132  0.70321  1.0000
  H   H589      1.0  0.13696  0.46622  0.80641  1.0000
  H   H590      1.0  0.15678  0.21801  0.86727  1.0000
  H   H591      1.0  0.75313  0.14383  0.88116  1.0000
  C   C364      1.0  0.15636  0.45946  0.71956  1.0000
  H   H592      1.0  0.68501  0.36500  0.96644  1.0000
  C   C365      1.0  0.89033  0.36626  0.05493  1.0000
  Fe  Fe75      1.0  0.06280  0.45471  0.95606  1.0000
  H   H593      1.0  0.85850  0.19820  0.98718  1.0000
  H   H594      1.0  0.71172  0.33099  0.94160  1.0000
  C   C366      1.0  0.89065  0.37519  0.13330  1.0000
  H   H595      1.0  0.09426  0.23104  0.04441  1.0000
  C   C367      1.0  0.05799  0.21517  0.05871  1.0000
  H   H596      1.0  0.76245  0.26357  0.93067  1.0000
  Fe  Fe76      1.0  0.03359  0.44942  0.04784  1.0000
  C   C368      1.0  0.03085  0.19934  0.03539  1.0000
  H   H597      1.0  0.95621  0.31232  0.99194  1.0000
  H   H598      1.0  0.00136  0.17005  0.89493  1.0000
  H   H599      1.0  0.75928  0.20950  0.05077  1.0000
  S   S149      1.0  0.81562  0.21724  0.09849  1.0000
  H   H600      1.0  0.89250  0.16923  0.00189  1.0000
  H   H601      1.0  0.96299  0.16716  0.03575  1.0000
  H   H602      1.0  0.80939  0.41690  0.92097  1.0000
  H   H603      1.0  0.89067  0.36352  0.02438  1.0000
  C   C369      1.0  0.96453  0.17618  0.09517  1.0000
  C   C370      1.0  0.92559  0.29212  0.93046  1.0000
  H   H604      1.0  0.72612  0.14253  0.01861  1.0000
  N   N35       1.0  0.74680  0.37560  0.97518  1.0000
  H   H605      1.0  0.72114  0.42124  0.00465  1.0000
  H   H606      1.0  0.10313  0.19788  0.90676  1.0000
  C   C371      1.0  0.85353  0.37075  0.12191  1.0000
  C   C372      1.0  0.99130  0.18926  0.11923  1.0000
  C   C373      1.0  0.98422  0.18066  0.05333  1.0000
  H   H607      1.0  0.06753  0.25565  0.90336  1.0000
  C   C374      1.0  0.89181  0.19888  0.97586  1.0000
  H   H608      1.0  0.95364  0.33410  0.92012  1.0000
  N   N36       1.0  0.92969  0.25389  0.96315  1.0000
  C   C375      1.0  0.79591  0.17145  0.07316  1.0000
  C   C376      1.0  0.78634  0.26615  0.90245  1.0000
  H   H609      1.0  0.97771  0.22573  0.96941  1.0000
  S   S150      1.0  0.72878  0.43000  0.08571  1.0000
  C   C377      1.0  0.97319  0.25374  0.94562  1.0000
  C   C378      1.0  0.85450  0.36913  0.08178  1.0000
  C   C379      1.0  0.71833  0.36827  0.94938  1.0000
  H   H610      1.0  0.81344  0.38735  0.97007  1.0000
  Fe  Fe77      1.0  0.10489  0.16893  0.98864  1.0000
  H   H611      1.0  0.95451  0.36730  0.04588  1.0000
  H   H612      1.0  0.00249  0.29452  0.93575  1.0000
  S   S151      1.0  0.07817  0.42201  0.01154  1.0000
  H   H613      1.0  0.78751  0.34514  0.94312  1.0000
  H   H614      1.0  0.69057  0.32328  0.03408  1.0000
  H   H615      1.0  0.89561  0.27117  0.01473  1.0000
  C   C380      1.0  0.92670  0.36914  0.06683  1.0000
  S   S152      1.0  0.05476  0.19895  0.98519  1.0000
  Fe  Fe78      1.0  0.75917  0.37998  0.10985  1.0000
  H   H616      1.0  0.05897  0.22260  0.11864  1.0000
  C   C381      1.0  0.79128  0.38154  0.95126  1.0000
  H   H617      1.0  0.89307  0.29309  0.94264  1.0000
  C   C382      1.0  0.76744  0.17659  0.05223  1.0000
  H   H618      1.0  0.92851  0.16079  0.10907  1.0000
  H   H619      1.0  0.89299  0.18390  0.94889  1.0000
  S   S153      1.0  0.97954  0.39776  0.11275  1.0000
  C   C383      1.0  0.74822  0.13831  0.03445  1.0000
  H   H620      1.0  0.12976  0.19565  0.10899  1.0000
  S   S154      1.0  0.04354  0.40629  0.91431  1.0000
  H   H621      1.0  0.92662  0.28048  0.90187  1.0000
  C   C384      1.0  0.75386  0.42492  0.98530  1.0000
  S   S155      1.0  0.11319  0.13773  0.04904  1.0000
  C   C385      1.0  0.92810  0.27083  0.00050  1.0000
  C   C386      1.0  0.03815  0.21027  0.10062  1.0000
  H   H622      1.0  0.93113  0.24296  0.02587  1.0000
  H   H623      1.0  0.79881  0.20498  0.93687  1.0000
  H   H624      1.0  0.73492  0.40306  0.91882  1.0000
  S   S156      1.0  0.81487  0.37799  0.06222  1.0000
  H   H625      1.0  0.77667  0.43294  0.00332  1.0000
  H   H626      1.0  0.68720  0.21871  0.89663  1.0000
  H   H627      1.0  0.74423  0.33193  0.03513  1.0000
  H   H628      1.0  0.71743  0.28993  0.00849  1.0000
  C   C387      1.0  0.92818  0.37694  0.10478  1.0000
  C   C388      1.0  0.80675  0.23267  0.90600  1.0000
  C   C389      1.0  0.72374  0.32805  0.01489  1.0000
  H   H629      1.0  0.97550  0.24116  0.91742  1.0000
  H   H630      1.0  0.76942  0.46112  0.95599  1.0000
  H   H631      1.0  0.68070  0.27872  0.88906  1.0000
  H   H632      1.0  0.13856  0.28540  0.91900  1.0000
  Fe  Fe79      1.0  0.66217  0.35582  0.12505  1.0000
  H   H633      1.0  0.98542  0.37640  0.20160  1.0000
  C   C390      1.0  0.11454  0.15691  0.38332  1.0000
  S   S157      1.0  0.77927  0.15862  0.22061  1.0000
  Fe  Fe80      1.0  0.72366  0.45110  0.14437  1.0000
  H   H634      1.0  0.71357  0.15093  0.18346  1.0000
  C   C391      1.0  0.00978  0.18845  0.35498  1.0000
  C   C392      1.0  0.02850  0.32725  0.23367  1.0000
  H   H635      1.0  0.80841  0.27305  0.21299  1.0000
  Fe  Fe81      1.0  0.83750  0.20145  0.23864  1.0000
  C   C393      1.0  0.01186  0.30970  0.17337  1.0000
  H   H636      1.0  0.89120  0.37997  0.16317  1.0000
  H   H637      1.0  0.77068  0.26357  0.34285  1.0000
  H   H638      1.0  0.94658  0.23981  0.27816  1.0000
  C   C394      1.0  0.15437  0.29533  0.27559  1.0000
  C   C395      1.0  0.14911  0.31497  0.23789  1.0000
  H   H639      1.0  0.93479  0.22694  0.23320  1.0000
  H   H640      1.0  0.12380  0.16113  0.22008  1.0000
  C   C396      1.0  0.76517  0.26972  0.31335  1.0000
  C   C397      1.0  0.75105  0.28551  0.23691  1.0000
  H   H641      1.0  0.98518  0.29288  0.16044  1.0000
  H   H642      1.0  0.70937  0.43721  0.34130  1.0000
  S   S158      1.0  0.15229  0.40349  0.33192  1.0000
  H   H643      1.0  0.03408  0.35302  0.15267  1.0000
  H   H644      1.0  0.70721  0.28155  0.33734  1.0000
  N   N37       1.0  0.68918  0.44278  0.28773  1.0000
  S   S159      1.0  0.83314  0.24547  0.28395  1.0000
  C   C398      1.0  0.14615  0.38986  0.25770  1.0000
  S   S160      1.0  0.96621  0.17491  0.17343  1.0000
  H   H645      1.0  0.04952  0.30613  0.23204  1.0000
  H   H646      1.0  0.03428  0.13831  0.17696  1.0000
  Fe  Fe82      1.0  0.89528  0.16266  0.18941  1.0000
  H   H647      1.0  0.75137  0.15928  0.36585  1.0000
  N   N38       1.0  0.99185  0.30383  0.21809  1.0000
  S   S161      1.0  0.67661  0.29736  0.26859  1.0000
  H   H648      1.0  0.01463  0.32360  0.26731  1.0000
  C   C399      1.0  0.14469  0.36211  0.22899  1.0000
  C   C400      1.0  0.12600  0.19516  0.14177  1.0000
  S   S162      1.0  0.88766  0.23734  0.17201  1.0000
  Fe  Fe83      1.0  0.83048  0.18744  0.15526  1.0000
  H   H649      1.0  0.09497  0.17353  0.36936  1.0000
  H   H650      1.0  0.13784  0.15285  0.35743  1.0000
  S   S163      1.0  0.15279  0.28312  0.20053  1.0000
  H   H651      1.0  0.11159  0.22235  0.14825  1.0000
  H   H652      1.0  0.94805  0.32824  0.25434  1.0000
  H   H653      1.0  0.82537  0.37127  0.14336  1.0000
  H   H654      1.0  0.98196  0.22271  0.24272  1.0000
  Fe  Fe84      1.0  0.69137  0.33731  0.20024  1.0000
  C   C401      1.0  0.79299  0.26604  0.27857  1.0000
  C   C402      1.0  0.78631  0.27467  0.24023  1.0000
  S   S164      1.0  0.69312  0.30483  0.14710  1.0000
  C   C403      1.0  0.72767  0.43903  0.26128  1.0000
  C   C404      1.0  0.96257  0.24581  0.24427  1.0000
  H   H655      1.0  0.70350  0.14287  0.13702  1.0000
  C   C405      1.0  0.96446  0.33247  0.22103  1.0000
  H   H656      1.0  0.93684  0.31611  0.20900  1.0000
  H   H657      1.0  0.05147  0.37098  0.21454  1.0000
  C   C406      1.0  0.72224  0.28724  0.27208  1.0000
  H   H658      1.0  0.67242  0.46665  0.34110  1.0000
  H   H659      1.0  0.71898  0.42265  0.23680  1.0000
  H   H660      1.0  0.74579  0.29148  0.20729  1.0000
  C   C407      1.0  0.72934  0.27968  0.31026  1.0000
  H   H661      1.0  0.03462  0.21957  0.32492  1.0000
  H   H662      1.0  0.03218  0.28790  0.16990  1.0000
  C   C408      1.0  0.70114  0.46408  0.32041  1.0000
  H   H663      1.0  0.73643  0.41120  0.28049  1.0000
  S   S165      1.0  0.76052  0.40805  0.16461  1.0000
  H   H664      1.0  0.07370  0.16655  0.22320  1.0000
  C   C409      1.0  0.09094  0.14195  0.21644  1.0000
  H   H665      1.0  0.68317  0.17114  0.37196  1.0000
  H   H666      1.0  0.14324  0.42665  0.25072  1.0000
  N   N39       1.0  0.09753  0.13967  0.17345  1.0000
  H   H667      1.0  0.14143  0.37800  0.19954  1.0000
  C   C410      1.0  0.15123  0.36985  0.29551  1.0000
  H   H668      1.0  0.66894  0.46418  0.23601  1.0000
  C   C411      1.0  0.15542  0.32265  0.30432  1.0000
  C   C412      1.0  0.96134  0.51258  0.61754  1.0000
  H   H669      1.0  0.12783  0.53517  0.54950  1.0000
  Fe  Fe85      1.0  0.08582  0.69374  0.56356  1.0000
  C   C413      1.0  0.99625  0.56225  0.61286  1.0000
  H   H670      1.0  0.91872  0.65734  0.39703  1.0000
  S   S166      1.0  0.68417  0.63185  0.42263  1.0000
  H   H671      1.0  0.09857  0.55425  0.58831  1.0000
  N   N40       1.0  0.97289  0.73281  0.39017  1.0000
  Fe  Fe86      1.0  0.71633  0.60190  0.55397  1.0000
  H   H672      1.0  0.96926  0.48327  0.60756  1.0000
  Fe  Fe87      1.0  0.70833  0.50368  0.53110  1.0000
  H   H673      1.0  0.68997  0.69925  0.46995  1.0000
  H   H674      1.0  0.90877  0.72973  0.41915  1.0000
  H   H675      1.0  0.89794  0.70522  0.49479  1.0000
  H   H676      1.0  0.75312  0.73713  0.39760  1.0000
  C   C414      1.0  0.69796  0.74149  0.46719  1.0000
  C   C415      1.0  0.97585  0.71063  0.43117  1.0000
  H   H677      1.0  0.94233  0.67812  0.45491  1.0000
  H   H678      1.0  0.81863  0.72129  0.63403  1.0000
  H   H679      1.0  0.73080  0.49837  0.44800  1.0000
  H   H680      1.0  0.81155  0.79274  0.44112  1.0000
  C   C416      1.0  0.83070  0.69067  0.52833  1.0000
  C   C417      1.0  0.12125  0.53574  0.58231  1.0000
  N   N41       1.0  0.10111  0.48070  0.61373  1.0000
  H   H681      1.0  0.67495  0.75097  0.45353  1.0000
  H   H682      1.0  0.76876  0.72283  0.46286  1.0000
  C   C418      1.0  0.87791  0.72250  0.50828  1.0000
  H   H683      1.0  0.15420  0.56335  0.58308  1.0000
  S   S167      1.0  0.15643  0.71494  0.55974  1.0000
  S   S168      1.0  0.08925  0.65866  0.51184  1.0000
  C   C419      1.0  0.89926  0.77545  0.50790  1.0000
  S   S169      1.0  0.74590  0.67186  0.57511  1.0000
  S   S170      1.0  0.74714  0.59287  0.49295  1.0000
  H   H684      1.0  0.76859  0.76686  0.49241  1.0000
  Fe  Fe88      1.0  0.68316  0.58124  0.48232  1.0000
  C   C420      1.0  0.87315  0.79660  0.52748  1.0000
  H   H685      1.0  0.81461  0.64929  0.52957  1.0000
  H   H686      1.0  0.80604  0.78158  0.56259  1.0000
  H   H687      1.0  0.03117  0.57141  0.59902  1.0000
  H   H688      1.0  0.15316  0.55030  0.40048  1.0000
  S   S171      1.0  0.68176  0.51313  0.59308  1.0000
  H   H689      1.0  0.99923  0.69275  0.42768  1.0000
  C   C421      1.0  0.80476  0.71168  0.54842  1.0000
  C   C422      1.0  0.94363  0.75888  0.39582  1.0000
  H   H690      1.0  0.91593  0.72385  0.62457  1.0000
  S   S172      1.0  0.02878  0.65847  0.62576  1.0000
  H   H691      1.0  0.95742  0.79284  0.40740  1.0000
  C   C423      1.0  0.75603  0.77709  0.39746  1.0000
  H   H692      1.0  0.12581  0.50883  0.45588  1.0000
  C   C424      1.0  0.98575  0.59886  0.62792  1.0000
  C   C425      1.0  0.82600  0.76476  0.54778  1.0000
  Fe  Fe89      1.0  0.11408  0.74290  0.46806  1.0000
  H   H693      1.0  0.68952  0.74279  0.49980  1.0000
  S   S173      1.0  0.09332  0.75785  0.41209  1.0000
  C   C426      1.0  0.77499  0.76476  0.45998  1.0000
  N   N42       1.0  0.74609  0.77957  0.44060  1.0000
  S   S174      1.0  0.10438  0.77556  0.52059  1.0000
  H   H694      1.0  0.98877  0.74265  0.44485  1.0000
  H   H695      1.0  0.76059  0.70598  0.64602  1.0000
  S   S175      1.0  0.84337  0.73837  0.79508  1.0000
  H   H696      1.0  0.83068  0.59520  0.77269  1.0000
  H   H697      1.0  0.68214  0.47872  0.83404  1.0000
  H   H698      1.0  0.09668  0.58232  0.81186  1.0000
  H   H699      1.0  0.06807  0.49917  0.66493  1.0000
  N   N43       1.0  0.93926  0.47200  0.77479  1.0000
  H   H700      1.0  0.03789  0.77217  0.85708  1.0000
  H   H701      1.0  0.97746  0.49351  0.81410  1.0000
  H   H702      1.0  0.98458  0.52826  0.87737  1.0000
  H   H703      1.0  0.97621  0.66747  0.70815  1.0000
  H   H704      1.0  0.87106  0.52961  0.66284  1.0000
  C   C427      1.0  0.83030  0.61571  0.71005  1.0000
  C   C428      1.0  0.78651  0.70921  0.66024  1.0000
  C   C429      1.0  0.09710  0.79595  0.80236  1.0000
  H   H705      1.0  0.03565  0.74875  0.76608  1.0000
  C   C430      1.0  0.75528  0.79790  0.80426  1.0000
  C   C431      1.0  0.85470  0.65168  0.66804  1.0000
  H   H706      1.0  0.01791  0.63092  0.79384  1.0000
  C   C432      1.0  0.91502  0.70579  0.68827  1.0000
  H   H707      1.0  0.95766  0.62133  0.76067  1.0000
  C   C433      1.0  0.97456  0.51217  0.78413  1.0000
  H   H708      1.0  0.84060  0.64532  0.64403  1.0000
  C   C434      1.0  0.09248  0.48334  0.65681  1.0000
  S   S176      1.0  0.10320  0.56898  0.73189  1.0000
  H   H709      1.0  0.97400  0.51391  0.70727  1.0000
  H   H710      1.0  0.67955  0.66399  0.84025  1.0000
  H   H711      1.0  0.12199  0.77549  0.87441  1.0000
  C   C435      1.0  0.07941  0.52168  0.78356  1.0000
  S   S177      1.0  0.81756  0.58633  0.85650  1.0000
  H   H712      1.0  0.07673  0.51944  0.88150  1.0000
  H   H713      1.0  0.93102  0.53015  0.73156  1.0000
  H   H714      1.0  0.88121  0.78515  0.88390  1.0000
  C   C436      1.0  0.90585  0.53794  0.64981  1.0000
  C   C437      1.0  0.91615  0.50002  0.63681  1.0000
  C   C438      1.0  0.89717  0.69645  0.65709  1.0000
  C   C439      1.0  0.07081  0.50413  0.85701  1.0000
  H   H715      1.0  0.93255  0.61574  0.65707  1.0000
  H   H716      1.0  0.08977  0.75484  0.80528  1.0000
  C   C440      1.0  0.74971  0.73029  0.71748  1.0000
  C   C441      1.0  0.84942  0.62321  0.74051  1.0000
  Fe  Fe90      1.0  0.77017  0.48301  0.74067  1.0000
  H   H717      1.0  0.05740  0.63767  0.74548  1.0000
  C   C442      1.0  0.96618  0.59048  0.88364  1.0000
  H   H718      1.0  0.73936  0.69062  0.74144  1.0000
  C   C443      1.0  0.79325  0.74270  0.80632  1.0000
  C   C444      1.0  0.89146  0.66836  0.72984  1.0000
  H   H719      1.0  0.88650  0.48676  0.80829  1.0000
  C   C445      1.0  0.94002  0.49687  0.73256  1.0000
  H   H720      1.0  0.00830  0.53074  0.75825  1.0000
  S   S178      1.0  0.77406  0.56505  0.72565  1.0000
  H   H721      1.0  0.96670  0.54507  0.78810  1.0000
  H   H722      1.0  0.75318  0.75999  0.73399  1.0000
  C   C446      1.0  0.94063  0.58695  0.64613  1.0000
  C   C447      1.0  0.79522  0.79357  0.79677  1.0000
  H   H723      1.0  0.83513  0.78314  0.71525  1.0000
  C   C448      1.0  0.00820  0.71727  0.76092  1.0000
  S   S179      1.0  0.66326  0.75500  0.82735  1.0000
  S   S180      1.0  0.15536  0.68485  0.77840  1.0000
  H   H724      1.0  0.12417  0.51062  0.65970  1.0000
  H   H725      1.0  0.04816  0.74708  0.67617  1.0000
  H   H726      1.0  0.09065  0.75695  0.69963  1.0000
  S   S181      1.0  0.96570  0.76486  0.67620  1.0000
  H   H727      1.0  0.99828  0.62135  0.71623  1.0000
  C   C449      1.0  0.98763  0.64741  0.73063  1.0000
  H   H728      1.0  0.69637  0.80219  0.65948  1.0000
  C   C450      1.0  0.08338  0.54016  0.81684  1.0000
  S   S182      1.0  0.92576  0.57036  0.86023  1.0000
  C   C451      1.0  0.04400  0.66019  0.76231  1.0000
  H   H729      1.0  0.75011  0.65646  0.82983  1.0000
  Fe  Fe91      1.0  0.87604  0.60123  0.87787  1.0000
  H   H730      1.0  0.77564  0.66803  0.68218  1.0000
  Fe  Fe92      1.0  0.83736  0.67336  0.84778  1.0000
  H   H731      1.0  0.07452  0.70464  0.67764  1.0000
  N   N44       1.0  0.02528  0.68775  0.73750  1.0000
  H   H732      1.0  0.98142  0.68934  0.79264  1.0000
  H   H733      1.0  0.90474  0.67539  0.75422  1.0000
  H   H734      1.0  0.67832  0.47665  0.71686  1.0000
  C   C452      1.0  0.75145  0.69581  0.82322  1.0000
  C   C453      1.0  0.82824  0.75237  0.69967  1.0000
  S   S183      1.0  0.89867  0.68961  0.86405  1.0000
  H   H735      1.0  0.07243  0.68982  0.76785  1.0000
  C   C454      1.0  0.71163  0.70009  0.82932  1.0000
  H   H736      1.0  0.72273  0.52824  0.87319  1.0000
  H   H737      1.0  0.81874  0.71293  0.72345  1.0000
  H   H738      1.0  0.72182  0.72572  0.70578  1.0000
  C   C455      1.0  0.06131  0.72608  0.69599  1.0000
  H   H739      1.0  0.86082  0.76429  0.67457  1.0000
  C   C456      1.0  0.71348  0.75104  0.82023  1.0000
  H   H740      1.0  0.99298  0.73763  0.74352  1.0000
  N   N45       1.0  0.79267  0.74850  0.68239  1.0000
  H   H741      1.0  0.14170  0.47686  0.73948  1.0000
  H   H742      1.0  0.14173  0.70302  0.87515  1.0000
  C   C457      1.0  0.15505  0.80198  0.87548  1.0000
  H   H743      1.0  0.77930  0.80126  0.63988  1.0000
  C   C458      1.0  0.80611  0.80218  0.65235  1.0000
  H   H744      1.0  0.79113  0.77097  0.88440  1.0000
  H   H745      1.0  0.67820  0.59755  0.90967  1.0000
  C   C459      1.0  0.83369  0.66377  0.02398  1.0000
  H   H746      1.0  0.91183  0.60845  0.99158  1.0000
  Fe  Fe93      1.0  0.85192  0.66444  0.93042  1.0000
  H   H747      1.0  0.01142  0.68173  0.92937  1.0000
  N   N46       1.0  0.90763  0.54468  0.04098  1.0000
  C   C460      1.0  0.00568  0.64838  0.91790  1.0000
  C   C461      1.0  0.81461  0.63132  0.09989  1.0000
  S   S184      1.0  0.12143  0.53834  0.93426  1.0000
  C   C462      1.0  0.67422  0.47057  0.93479  1.0000
  H   H748      1.0  0.95587  0.65660  0.89449  1.0000
  H   H749      1.0  0.80053  0.74977  0.93233  1.0000
  Fe  Fe94      1.0  0.07313  0.55733  0.97551  1.0000
  S   S185      1.0  0.79205  0.65515  0.91321  1.0000
  C   C463      1.0  0.77910  0.58273  0.10369  1.0000
  H   H750      1.0  0.85519  0.55679  0.02547  1.0000
  C   C464      1.0  0.02841  0.61818  0.92417  1.0000
  H   H751      1.0  0.95012  0.59943  0.06438  1.0000
  H   H752      1.0  0.97651  0.60828  0.01009  1.0000
  H   H753      1.0  0.78834  0.61116  0.00129  1.0000
  C   C465      1.0  0.97932  0.77338  0.02129  1.0000
  C   C466      1.0  0.80115  0.78423  0.90977  1.0000
  S   S186      1.0  0.87063  0.71000  0.97318  1.0000
  H   H754      1.0  0.73176  0.66280  0.04529  1.0000
  H   H755      1.0  0.92400  0.48462  0.02507  1.0000
  Fe  Fe95      1.0  0.13357  0.50702  0.99230  1.0000
  C   C467      1.0  0.02083  0.57545  0.90910  1.0000
  H   H756      1.0  0.93663  0.54048  0.98036  1.0000
  S   S187      1.0  0.01401  0.47598  0.99373  1.0000
  C   C468      1.0  0.95248  0.57753  0.04188  1.0000
  H   H757      1.0  0.69340  0.78162  0.95377  1.0000
  H   H758      1.0  0.82114  0.63738  0.12772  1.0000
  S   S188      1.0  0.73872  0.79860  0.01177  1.0000
  H   H759      1.0  0.87914  0.48936  0.01059  1.0000
  H   H760      1.0  0.68068  0.55846  0.12190  1.0000
  H   H761      1.0  0.88735  0.60597  0.04447  1.0000
  H   H762      1.0  0.95729  0.74231  0.01106  1.0000
  C   C469      1.0  0.87606  0.50687  0.08433  1.0000
  S   S189      1.0  0.77068  0.78273  0.11159  1.0000
  C   C470      1.0  0.79665  0.61643  0.02839  1.0000
  H   H763      1.0  0.06105  0.79962  0.96726  1.0000
  S   S190      1.0  0.70349  0.50521  0.96278  1.0000
  H   H764      1.0  0.87018  0.70907  0.05669  1.0000
  H   H765      1.0  0.03809  0.55223  0.91412  1.0000
  H   H766      1.0  0.95657  0.77925  0.04637  1.0000
  C   C471      1.0  0.91207  0.51349  0.01300  1.0000
  H   H767      1.0  0.74661  0.65668  0.09137  1.0000
  C   C472      1.0  0.84218  0.67190  0.05982  1.0000
  H   H768      1.0  0.84280  0.47905  0.08434  1.0000
  H   H769      1.0  0.73487  0.71014  0.07168  1.0000
  H   H770      1.0  0.67807  0.60012  0.96050  1.0000
  C   C473      1.0  0.88980  0.58060  0.02487  1.0000
  H   H771      1.0  0.96802  0.55185  0.05160  1.0000
  Fe  Fe96      1.0  0.77615  0.56899  0.92375  1.0000
  C   C474      1.0  0.97408  0.63401  0.89821  1.0000
  H   H772      1.0  0.68084  0.65601  0.92232  1.0000
  C   C475      1.0  0.76988  0.57557  0.06803  1.0000
  S   S191      1.0  0.06353  0.63070  0.95358  1.0000
  H   H773      1.0  0.77471  0.79266  0.92762  1.0000
  H   H774      1.0  0.74141  0.53902  0.07107  1.0000
  N   N47       1.0  0.67604  0.63207  0.10472  1.0000
  H   H775      1.0  0.86959  0.52876  0.10587  1.0000
  S   S192      1.0  0.08979  0.53276  0.03248  1.0000
  S   S193      1.0  0.83331  0.57651  0.94595  1.0000
  C   C476      1.0  0.72436  0.66676  0.07705  1.0000
  H   H776      1.0  0.99822  0.75673  0.03622  1.0000
  C   C477      1.0  0.69150  0.49082  0.89055  1.0000
  H   H777      1.0  0.02194  0.78634  0.94014  1.0000
  H   H778      1.0  0.14925  0.79864  0.90910  1.0000
  C   C478      1.0  0.99036  0.56195  0.88842  1.0000
  H   H779      1.0  0.88978  0.48129  0.09831  1.0000
  C   C479      1.0  0.66526  0.61102  0.93546  1.0000
  C   C480      1.0  0.66222  0.57564  0.10659  1.0000
  H   H780      1.0  0.96186  0.80131  0.12620  1.0000
  H   H781      1.0  0.66927  0.57288  0.07443  1.0000
  H   H782      1.0  0.94084  0.77623  0.36542  1.0000
  C   C481      1.0  0.01873  0.77328  0.35910  1.0000
  H   H783      1.0  0.04191  0.75523  0.35439  1.0000
  H   H784      1.0  0.73083  0.50538  0.30595  1.0000
  H   H785      1.0  0.71756  0.70072  0.33782  1.0000
  C   C482      1.0  0.66415  0.59889  0.30481  1.0000
  C   C483      1.0  0.69796  0.65976  0.33934  1.0000
  H   H786      1.0  0.68013  0.67600  0.14780  1.0000
  C   C484      1.0  0.66940  0.63398  0.14789  1.0000
  H   H787      1.0  0.70819  0.52090  0.24404  1.0000
  C   C485      1.0  0.67928  0.61628  0.37740  1.0000
  H   H788      1.0  0.70552  0.68529  0.27397  1.0000
  C   C486      1.0  0.95348  0.68848  0.37443  1.0000
  S   S194      1.0  0.74526  0.53135  0.15291  1.0000
  H   H789      1.0  0.12444  0.77373  0.32251  1.0000
  C   C487      1.0  0.69103  0.65104  0.30314  1.0000
  H   H790      1.0  0.01796  0.79083  0.32766  1.0000
  H   H791      1.0  0.97469  0.66784  0.37000  1.0000
  H   H792      1.0  0.95111  0.70401  0.34336  1.0000
  H   H793      1.0  0.75831  0.47942  0.24450  1.0000
  H   H794      1.0  0.68960  0.61882  0.16214  1.0000
  C   C488      1.0  0.67862  0.47953  0.26072  1.0000
  H   H795      1.0  0.73242  0.78398  0.38330  1.0000
  H   H796      1.0  0.07593  0.03413  0.58402  1.0000
  N   N48       1.0  0.09580  0.92388  0.39723  1.0000
  S   S195      1.0  0.91884  0.96427  0.59910  1.0000
  C   C489      1.0  0.14918  0.93645  0.49641  1.0000
  H   H797      1.0  0.74711  0.94326  0.54245  1.0000
  C   C490      1.0  0.75508  0.83507  0.43799  1.0000
  H   H798      1.0  0.13578  0.07940  0.41198  1.0000
  H   H799      1.0  0.70768  0.98447  0.61391  1.0000
  H   H800      1.0  0.10236  0.97299  0.43626  1.0000
  N   N49       1.0  0.68775  0.11398  0.41943  1.0000
  C   C491      1.0  0.76787  0.96209  0.50795  1.0000
  C   C492      1.0  0.05382  0.92386  0.39473  1.0000
  H   H801      1.0  0.11219  0.08030  0.60226  1.0000
  H   H802      1.0  0.10275  0.84115  0.63042  1.0000
  C   C493      1.0  0.83011  0.90166  0.54716  1.0000
  C   C494      1.0  0.67295  0.90184  0.61810  1.0000
  Fe  Fe97      1.0  0.05364  0.93735  0.54775  1.0000
  H   H803      1.0  0.83735  0.81632  0.62451  1.0000
  C   C495      1.0  0.08380  0.87414  0.43148  1.0000
  S   S196      1.0  0.83937  0.88739  0.47118  1.0000
  Fe  Fe98      1.0  0.98048  0.83084  0.61793  1.0000
  H   H804      1.0  0.00992  0.04083  0.57636  1.0000
  C   C496      1.0  0.02074  0.07931  0.58288  1.0000
  N   N50       1.0  0.79733  0.02098  0.49523  1.0000
  H   H805      1.0  0.10776  0.10502  0.55286  1.0000
  H   H806      1.0  0.95662  0.00607  0.50903  1.0000
  C   C497      1.0  0.87971  0.13106  0.59709  1.0000
  C   C498      1.0  0.11188  0.08476  0.43624  1.0000
  S   S197      1.0  0.92719  0.83254  0.59338  1.0000
  H   H807      1.0  0.94236  0.05209  0.40030  1.0000
  H   H808      1.0  0.80304  0.01472  0.55614  1.0000
  H   H809      1.0  0.06425  0.83708  0.42541  1.0000
  C   C499      1.0  0.85906  0.91817  0.50514  1.0000
  S   S198      1.0  0.00754  0.91754  0.61341  1.0000
  Fe  Fe99      1.0  0.89147  0.92309  0.40540  1.0000
  H   H810      1.0  0.13281  0.11378  0.44858  1.0000
  H   H811      1.0  0.11530  0.90280  0.59244  1.0000
  H   H812      1.0  0.79017  0.86568  0.41584  1.0000
  C   C500      1.0  0.09640  0.87663  0.62627  1.0000
  H   H813      1.0  0.74875  0.10652  0.40678  1.0000
  S   S199      1.0  0.71541  0.98630  0.42419  1.0000
  C   C501      1.0  0.65861  0.05789  0.45003  1.0000
  H   H814      1.0  0.80807  0.03550  0.42929  1.0000
  S   S200      1.0  0.66846  0.08654  0.55747  1.0000
  C   C502      1.0  0.94676  0.10811  0.43320  1.0000
  H   H815      1.0  0.03110  0.07304  0.47939  1.0000
  H   H816      1.0  0.11439  0.87277  0.43501  1.0000
  H   H817      1.0  0.12532  0.98269  0.61172  1.0000
  H   H818      1.0  0.84674  0.01143  0.51828  1.0000
  H   H819      1.0  0.75078  0.83955  0.46949  1.0000
  C   C503      1.0  0.05728  0.06486  0.40236  1.0000
  H   H820      1.0  0.88925  0.83781  0.52664  1.0000
  N   N51       1.0  0.08432  0.10447  0.41849  1.0000
  C   C504      1.0  0.76891  0.04808  0.50077  1.0000
  C   C505      1.0  0.95759  0.09411  0.39734  1.0000
  H   H821      1.0  0.84298  0.10494  0.61625  1.0000
  H   H822      1.0  0.84737  0.07515  0.51311  1.0000
  Fe  Fe100     1.0  0.97877  0.85634  0.52952  1.0000
  H   H823      1.0  0.90435  0.05402  0.61581  1.0000
  H   H824      1.0  0.73160  0.84570  0.42641  1.0000
  Fe  Fe101     1.0  0.95860  0.92093  0.58356  1.0000
  S   S201      1.0  0.65914  0.83542  0.50186  1.0000
  H   H825      1.0  0.74505  0.03190  0.53427  1.0000
  H   H826      1.0  0.68714  0.89336  0.39735  1.0000
  S   S202      1.0  0.03092  0.85015  0.55460  1.0000
  H   H827      1.0  0.06220  0.87091  0.46254  1.0000
  H   H828      1.0  0.79500  0.87129  0.55812  1.0000
  C   C506      1.0  0.84722  0.92268  0.57554  1.0000
  H   H829      1.0  0.82560  0.90859  0.60841  1.0000
  S   S203      1.0  0.77820  0.11564  0.58132  1.0000
  S   S204      1.0  0.12441  0.00484  0.52471  1.0000
  H   H830      1.0  0.74445  0.95332  0.49060  1.0000
  H   H831      1.0  0.03219  0.92244  0.42506  1.0000
  S   S205      1.0  0.00601  0.94525  0.51714  1.0000
  C   C507      1.0  0.90402  0.95801  0.49085  1.0000
  C   C508      1.0  0.08803  0.07524  0.58583  1.0000
  H   H832      1.0  0.85066  0.08699  0.43933  1.0000
  H   H833      1.0  0.09046  0.04560  0.46312  1.0000
  C   C509      1.0  0.89333  0.95845  0.56209  1.0000
  H   H834      1.0  0.78803  0.94094  0.50086  1.0000
  C   C510      1.0  0.92118  0.97791  0.51945  1.0000
  H   H835      1.0  0.92620  0.97132  0.45840  1.0000
  H   H836      1.0  0.12109  0.92661  0.48620  1.0000
  C   C511      1.0  0.12229  0.97202  0.40623  1.0000
  H   H837      1.0  0.84943  0.02268  0.44501  1.0000
  H   H838      1.0  0.03334  0.02502  0.42813  1.0000
  C   C512      1.0  0.82772  0.04264  0.45023  1.0000
  C   C513      1.0  0.82477  0.03104  0.52186  1.0000
  H   H839      1.0  0.74818  0.04187  0.48073  1.0000
  N   N52       1.0  0.04986  0.08299  0.60788  1.0000
  H   H840      1.0  0.15367  0.97241  0.40949  1.0000
  H   H841      1.0  0.03673  0.07925  0.38820  1.0000
  Fe  Fe102     1.0  0.70796  0.10507  0.59931  1.0000
  H   H842      1.0  0.92386  0.07683  0.46368  1.0000
  S   S206      1.0  0.95866  0.81411  0.48511  1.0000
  C   C514      1.0  0.05361  0.11149  0.45199  1.0000
  H   H843      1.0  0.88811  0.11741  0.57001  1.0000
  N   N53       1.0  0.90677  0.12757  0.62323  1.0000
  H   H844      1.0  0.98940  0.07991  0.60019  1.0000
  C   C515      1.0  0.72867  0.11763  0.38973  1.0000
  H   H845      1.0  0.67619  0.04558  0.46969  1.0000
  H   H846      1.0  0.03882  0.11326  0.55177  1.0000
  H   H847      1.0  0.78997  0.09250  0.49200  1.0000
  H   H848      1.0  0.05968  0.86134  0.63269  1.0000
  C   C516      1.0  0.70497  0.94474  0.62438  1.0000
  C   C517      1.0  0.66231  0.12908  0.39533  1.0000
  C   C518      1.0  0.66980  0.85049  0.63068  1.0000
  H   H849      1.0  0.03186  0.12571  0.43992  1.0000
  H   H850      1.0  0.03285  0.88780  0.38830  1.0000
  H   H851      1.0  0.99563  0.04734  0.66912  1.0000
  H   H852      1.0  0.87603  0.07852  0.76675  1.0000
  C   C519      1.0  0.87970  0.82076  0.86537  1.0000
  C   C520      1.0  0.82192  0.96633  0.74417  1.0000
  H   H853      1.0  0.83492  0.87023  0.83867  1.0000
  C   C521      1.0  0.11412  0.90233  0.79348  1.0000
  H   H854      1.0  0.82785  0.82946  0.78363  1.0000
  N   N54       1.0  0.11068  0.90611  0.65432  1.0000
  H   H855      1.0  0.69533  0.03609  0.87133  1.0000
  Fe  Fe103     1.0  0.67127  0.83902  0.81763  1.0000
  C   C522      1.0  0.83031  0.01397  0.75257  1.0000
  H   H856      1.0  0.69938  0.12291  0.87563  1.0000
  H   H857      1.0  0.81310  0.83342  0.66758  1.0000
  C   C523      1.0  0.89864  0.01894  0.76252  1.0000
  H   H858      1.0  0.11716  0.97875  0.66552  1.0000
  H   H859      1.0  0.04467  0.04016  0.66937  1.0000
  H   H860      1.0  0.74266  0.03657  0.83528  1.0000
  Fe  Fe104     1.0  0.08475  0.04378  0.73742  1.0000
  H   H861      1.0  0.83822  0.99187  0.85795  1.0000
  C   C524      1.0  0.72655  0.11637  0.79816  1.0000
  H   H862      1.0  0.04526  0.85491  0.70474  1.0000
  C   C525      1.0  0.13427  0.83954  0.76815  1.0000
  S   S207      1.0  0.98090  0.96496  0.84362  1.0000
  H   H863      1.0  0.06939  0.94538  0.65277  1.0000
  S   S208      1.0  0.03528  0.11617  0.84649  1.0000
  H   H864      1.0  0.88258  0.10512  0.86164  1.0000
  H   H865      1.0  0.08915  0.89298  0.72090  1.0000
  S   S209      1.0  0.13508  0.09156  0.67099  1.0000
  C   C526      1.0  0.02305  0.04070  0.65063  1.0000
  H   H866      1.0  0.75698  0.83741  0.79660  1.0000
  H   H867      1.0  0.08828  0.83572  0.70793  1.0000
  C   C527      1.0  0.08203  0.87074  0.69894  1.0000
  H   H868      1.0  0.91441  0.85575  0.85176  1.0000
  S   S210      1.0  0.66287  0.97154  0.81213  1.0000
  Fe  Fe105     1.0  0.70230  0.10973  0.68684  1.0000
  Fe  Fe106     1.0  0.98207  0.97842  0.77750  1.0000
  H   H869      1.0  0.87822  0.91569  0.85143  1.0000
  C   C528      1.0  0.14356  0.89252  0.76484  1.0000
  C   C529      1.0  0.73291  0.05868  0.85517  1.0000
  C   C530      1.0  0.10538  0.95543  0.64546  1.0000
  H   H870      1.0  0.00628  0.99962  0.64909  1.0000
  C   C531      1.0  0.06777  0.80579  0.83163  1.0000
  C   C532      1.0  0.85210  0.94544  0.74428  1.0000
  H   H871      1.0  0.79253  0.94606  0.73668  1.0000
  S   S211      1.0  0.03661  0.95609  0.75652  1.0000
  Fe  Fe107     1.0  0.72310  0.96362  0.77908  1.0000
  S   S212      1.0  0.71607  0.90307  0.83646  1.0000
  H   H872      1.0  0.68895  0.09558  0.81391  1.0000
  H   H873      1.0  0.84618  0.90960  0.73623  1.0000
  H   H874      1.0  0.90678  0.06004  0.86495  1.0000
  C   C533      1.0  0.89652  0.07054  0.64112  1.0000
  S   S213      1.0  0.09279  0.03523  0.80016  1.0000
  S   S214      1.0  0.77196  0.11914  0.67666  1.0000
  S   S215      1.0  0.03609  0.87178  0.85845  1.0000
  S   S216      1.0  0.92282  0.93870  0.75990  1.0000
  H   H875      1.0  0.87124  0.81232  0.83795  1.0000
  H   H876      1.0  0.85985  0.04409  0.66102  1.0000
  C   C534      1.0  0.88961  0.97059  0.75473  1.0000
  S   S217      1.0  0.02986  0.06675  0.75399  1.0000
  H   H877      1.0  0.75284  0.87839  0.67134  1.0000
  C   C535      1.0  0.73373  0.93633  0.64361  1.0000
  S   S218      1.0  0.68198  0.04130  0.66256  1.0000
  Fe  Fe108     1.0  0.75355  0.05615  0.64637  1.0000
  H   H878      1.0  0.74716  0.05613  0.88034  1.0000
  H   H879      1.0  0.81553  0.03807  0.85574  1.0000
  C   C536      1.0  0.86919  0.04114  0.76082  1.0000
  Fe  Fe109     1.0  0.03399  0.05228  0.81834  1.0000
  H   H880      1.0  0.92814  0.03913  0.76983  1.0000
  C   C537      1.0  0.73069  0.88489  0.65625  1.0000
  C   C538      1.0  0.69853  0.84182  0.64996  1.0000
  H   H881      1.0  0.73482  0.09519  0.77656  1.0000
  Fe  Fe110     1.0  0.03919  0.94840  0.82103  1.0000
  S   S219      1.0  0.77319  0.99015  0.65186  1.0000
  H   H882      1.0  0.91569  0.06580  0.66167  1.0000
  H   H883      1.0  0.85882  0.12269  0.67867  1.0000
  C   C539      1.0  0.07564  0.85905  0.82628  1.0000
  C   C540      1.0  0.81747  0.00550  0.87787  1.0000
  S   S220      1.0  0.68320  0.89882  0.75675  1.0000
  H   H884      1.0  0.12100  0.94355  0.78975  1.0000
  N   N55       1.0  0.74860  0.11548  0.82939  1.0000
  S   S221      1.0  0.79094  0.03777  0.75415  1.0000
  C   C541      1.0  0.84460  0.87867  0.86559  1.0000
  H   H885      1.0  0.80858  0.12411  0.78438  1.0000
  C   C542      1.0  0.88331  0.07152  0.88390  1.0000
  H   H886      1.0  0.81932  0.88791  0.88438  1.0000
  N   N56       1.0  0.83742  0.02496  0.90786  1.0000
  H   H887      1.0  0.78245  0.97088  0.89484  1.0000
  C   C543      1.0  0.95135  0.10833  0.95457  1.0000
  Fe  Fe111     1.0  0.11364  0.06983  0.02793  1.0000
  H   H888      1.0  0.77349  0.00827  0.95216  1.0000
  Fe  Fe112     1.0  0.77410  0.83553  0.05184  1.0000
  Fe  Fe113     1.0  0.84569  0.83489  0.08766  1.0000
  H   H889      1.0  0.68930  0.93752  0.99085  1.0000
  S   S222      1.0  0.84971  0.88191  0.02541  1.0000
  C   C544      1.0  0.97241  0.84327  0.10928  1.0000
  H   H890      1.0  0.06573  0.85383  0.92626  1.0000
  H   H891      1.0  0.79704  0.05904  0.05664  1.0000
  C   C545      1.0  0.78866  0.09177  0.05546  1.0000
  S   S223      1.0  0.84099  0.89367  0.11883  1.0000
  C   C546      1.0  0.67162  0.88730  0.95369  1.0000
  C   C547      1.0  0.71268  0.83287  0.98997  1.0000
  S   S224      1.0  0.89467  0.80448  0.09379  1.0000
  H   H892      1.0  0.90621  0.00380  0.10559  1.0000
  H   H893      1.0  0.86220  0.81108  0.94687  1.0000
  H   H894      1.0  0.83481  0.85257  0.94806  1.0000
  Fe  Fe114     1.0  0.84101  0.93862  0.05770  1.0000
  H   H895      1.0  0.06374  0.90383  0.97342  1.0000
  H   H896      1.0  0.97030  0.01590  0.12706  1.0000
  H   H897      1.0  0.98448  0.00969  0.91235  1.0000
  S   S225      1.0  0.76506  0.89561  0.07998  1.0000
  H   H898      1.0  0.80653  0.94427  0.95322  1.0000
  N   N57       1.0  0.84641  0.83227  0.89185  1.0000
  C   C548      1.0  0.95851  0.91116  0.06939  1.0000
  H   H899      1.0  0.12662  0.10508  0.13331  1.0000
  H   H900      1.0  0.96404  0.81536  0.95271  1.0000
  H   H901      1.0  0.03523  0.87333  0.11942  1.0000
  C   C549      1.0  0.97479  0.03712  0.92372  1.0000
  C   C550      1.0  0.69325  0.81607  0.96150  1.0000
  H   H902      1.0  0.92690  0.97640  0.98411  1.0000
  S   S226      1.0  0.08163  0.98729  0.07727  1.0000
  H   H903      1.0  0.72588  0.88998  0.02233  1.0000
  C   C551      1.0  0.75811  0.09533  0.03664  1.0000
  H   H904      1.0  0.85298  0.99343  0.96030  1.0000
  S   S227      1.0  0.73057  0.04487  0.01774  1.0000
  C   C552      1.0  0.71123  0.87670  0.00046  1.0000
  S   S228      1.0  0.88286  0.02928  0.02728  1.0000
  H   H905      1.0  0.95883  0.84954  0.98980  1.0000
  Fe  Fe115     1.0  0.65850  0.02879  0.03320  1.0000
  H   H906      1.0  0.93742  0.92172  0.05498  1.0000
  C   C553      1.0  0.03754  0.86587  0.00026  1.0000
  H   H907      1.0  0.90713  0.06261  0.11536  1.0000
  S   S229      1.0  0.09939  0.09716  0.97030  1.0000
  C   C554      1.0  0.98485  0.12764  0.91423  1.0000
  C   C555      1.0  0.00066  0.95201  0.06476  1.0000
  C   C556      1.0  0.98359  0.84433  0.96600  1.0000
  H   H908      1.0  0.05493  0.85078  0.01863  1.0000
  C   C557      1.0  0.69049  0.90374  0.98255  1.0000
  C   C558      1.0  0.99590  0.09184  0.89837  1.0000
  N   N58       1.0  0.01042  0.82478  0.98524  1.0000
  H   H909      1.0  0.14745  0.92369  0.89524  1.0000
  H   H910      1.0  0.00584  0.88406  0.93960  1.0000
  C   C559      1.0  0.94471  0.85667  0.09124  1.0000
  C   C560      1.0  0.84031  0.98083  0.93590  1.0000
  C   C561      1.0  0.80861  0.04204  0.93398  1.0000
  H   H911      1.0  0.86385  0.96888  0.91777  1.0000
  C   C562      1.0  0.92894  0.05330  0.97938  1.0000
  H   H912      1.0  0.01176  0.99393  0.04716  1.0000
  H   H913      1.0  0.80643  0.07630  0.91434  1.0000
  H   H914      1.0  0.89851  0.08830  0.90558  1.0000
  C   C563      1.0  0.85990  0.84514  0.92687  1.0000
  H   H915      1.0  0.82216  0.05589  0.95763  1.0000
  H   H916      1.0  0.89362  0.88158  0.91476  1.0000
  C   C564      1.0  0.02841  0.93827  0.08272  1.0000
  C   C565      1.0  0.01389  0.88400  0.10542  1.0000
  C   C566      1.0  0.67279  0.84329  0.94335  1.0000
  H   H917      1.0  0.01598  0.87741  0.02125  1.0000
  C   C567      1.0  0.80732  0.12965  0.07404  1.0000
  C   C568      1.0  0.94177  0.01808  0.96437  1.0000
  H   H918      1.0  0.13022  0.88076  0.97152  1.0000
  H   H919      1.0  0.83056  0.12651  0.08878  1.0000
  C   C569      1.0  0.04110  0.81555  0.95344  1.0000
  C   C570      1.0  0.89329  0.01821  0.13065  1.0000
  H   H920      1.0  0.94215  0.13575  0.96632  1.0000
  H   H921      1.0  0.66480  0.91751  0.12401  1.0000
  H   H922      1.0  0.77715  0.93038  0.16595  1.0000
  H   H923      1.0  0.84934  0.92548  0.19798  1.0000
  C   C571      1.0  0.07456  0.99519  0.28355  1.0000
  S   S230      1.0  0.84164  0.11506  0.16762  1.0000
  Fe  Fe116     1.0  0.96192  0.02767  0.33184  1.0000
  Fe  Fe117     1.0  0.96183  0.92321  0.33205  1.0000
  S   S231      1.0  0.71325  0.81668  0.20264  1.0000
  H   H924      1.0  0.15340  0.12265  0.16968  1.0000
  H   H925      1.0  0.13204  0.96208  0.32984  1.0000
  H   H926      1.0  0.09035  0.89112  0.26527  1.0000
  C   C572      1.0  0.09829  0.93181  0.26449  1.0000
  C   C573      1.0  0.14321  0.80604  0.36930  1.0000
  S   S232      1.0  0.00880  0.88924  0.31345  1.0000
  H   H927      1.0  0.74413  0.08590  0.17851  1.0000
  S   S233      1.0  0.88627  0.87434  0.36294  1.0000
  H   H928      1.0  0.68206  0.88972  0.16349  1.0000
  C   C574      1.0  0.88706  0.94597  0.18688  1.0000
  C   C575      1.0  0.78728  0.00995  0.35476  1.0000
  H   H929      1.0  0.90005  0.92831  0.16456  1.0000
  H   H930      1.0  0.89540  0.93513  0.21529  1.0000
  H   H931      1.0  0.90136  0.01999  0.22569  1.0000
  H   H932      1.0  0.78445  0.00569  0.19225  1.0000
  H   H933      1.0  0.68448  0.07016  0.24750  1.0000
  H   H934      1.0  0.66332  0.81888  0.28095  1.0000
  S   S234      1.0  0.82754  0.92197  0.29539  1.0000
  C   C576      1.0  0.74687  0.90828  0.34742  1.0000
  C   C577      1.0  0.75839  0.96515  0.21180  1.0000
  H   H935      1.0  0.80325  0.04928  0.35745  1.0000
  H   H936      1.0  0.03127  0.07305  0.19302  1.0000
  H   H937      1.0  0.70700  0.01724  0.18668  1.0000
  C   C578      1.0  0.69350  0.90247  0.27611  1.0000
  C   C579      1.0  0.72025  0.86967  0.22199  1.0000
  C   C580      1.0  0.68979  0.85964  0.26156  1.0000
  H   H938      1.0  0.04831  0.00370  0.29919  1.0000
  H   H939      1.0  0.85242  0.00682  0.21227  1.0000
  H   H940      1.0  0.73136  0.86880  0.34488  1.0000
  H   H941      1.0  0.66993  0.89471  0.30675  1.0000
  H   H942      1.0  0.06975  0.10093  0.24138  1.0000
  S   S235      1.0  0.00653  0.11607  0.31468  1.0000
  C   C581      1.0  0.79262  0.94435  0.32284  1.0000
  C   C582      1.0  0.75434  0.92245  0.19695  1.0000
  Fe  Fe118     1.0  0.88481  0.94219  0.31864  1.0000
  C   C583      1.0  0.06408  0.94241  0.28484  1.0000
  C   C584      1.0  0.72806  0.95521  0.25145  1.0000
  S   S236      1.0  0.96022  0.98732  0.28350  1.0000
  C   C585      1.0  0.81216  0.99591  0.32536  1.0000
  S   S237      1.0  0.84786  0.12917  0.25710  1.0000
  S   S238      1.0  0.88671  0.98856  0.36263  1.0000
  S   S239      1.0  0.73089  0.00826  0.26983  1.0000
  N   N59       1.0  0.90674  0.00530  0.16699  1.0000
  C   C586      1.0  0.89016  0.02680  0.19865  1.0000
  H   H943      1.0  0.96778  0.02002  0.17823  1.0000
  N   N60       1.0  0.67515  0.06802  0.18903  1.0000
  H   H944      1.0  0.84715  0.02443  0.30559  1.0000
  C   C587      1.0  0.15349  0.02664  0.24187  1.0000
  C   C588      1.0  0.72194  0.92214  0.37720  1.0000
  C   C589      1.0  0.14289  0.97397  0.24275  1.0000
  C   C590      1.0  0.71469  0.05993  0.17214  1.0000
  H   H945      1.0  0.07936  0.05845  0.37709  1.0000
  Fe  Fe119     1.0  0.79328  0.08853  0.23386  1.0000
  C   C591      1.0  0.15055  0.80416  0.32837  1.0000
  C   C592      1.0  0.11932  0.03707  0.26257  1.0000
  H   H946      1.0  0.09907  0.06374  0.18848  1.0000
  H   H947      1.0  0.12719  0.07741  0.26202  1.0000
  H   H948      1.0  0.06125  0.96037  0.36908  1.0000
  C   C593      1.0  0.12343  0.92575  0.35643  1.0000
  C   C594      1.0  0.68804  0.12619  0.17231  1.0000
  C   C595      1.0  0.95665  0.03037  0.15181  1.0000
  H   H949      1.0  0.90281  0.07098  0.18454  1.0000
  C   C596      1.0  0.12010  0.10635  0.16595  1.0000
  H   H950      1.0  0.10550  0.88939  0.34881  1.0000
  H   H951      1.0  0.03410  0.80736  0.36994  1.0000
  H   H952      1.0  0.05613  0.11412  0.13760  1.0000
  H   H953      1.0  0.71973  0.08949  0.37200  1.0000
  C   C597      1.0  0.05284  0.11521  0.16994  1.0000
  Fe  Fe120     1.0  0.76604  0.84536  0.13819  1.0000
  H   H954      1.0  0.72530  0.06966  0.13735  1.0000
  S   S240      1.0  0.96762  0.96612  0.37862  1.0000
  H   H955      1.0  0.79092  0.80847  0.37555  1.0000
  C   C598      1.0  0.74277  0.97227  0.38190  1.0000
  H   H956      1.0  0.13320  0.01008  0.38015  1.0000
  H   H957      1.0  0.15607  0.92790  0.35689  1.0000
  H   H958      1.0  0.85585  0.99947  0.14056  1.0000
  H   H959      1.0  0.65811  0.13301  0.18156  1.0000
  C   C599      1.0  0.65820  0.04796  0.23586  1.0000
  C   C600      1.0  0.98961  0.13417  0.35837  1.0000
  H   H960      1.0  0.97249  0.07530  0.13764  1.0000
