data_image0
_chemical_formula_structural       FeS2FeS2FeSFeS3FeS2FeS2FeSFeS3FeS2FeS2FeSFeS3FeS2FeS2FeSFeS3FeS2FeS2FeSFeS3FeS2FeS2FeSFeS3FeS2FeS2FeSFeS3FeS2FeS2FeSFeS3FeS2FeS2FeSFeS3FeS2FeS2FeSFeS3FeS2FeS2FeSFeS3FeS2FeS2FeSFeS3FeS2FeS2FeSFeS3FeS2FeS2FeSFeS3FeS2FeS2FeSFeS3FeS2FeS2FeSFeS3FeS2FeS2FeSFeS3FeS2FeS2FeSFeS3FeS2FeS2FeSFeS3FeS2FeS2FeSFeS3FeS2FeS2FeSFeS3FeS2FeS2FeSFeS3FeS2FeS2FeSFeS3FeS2FeS2FeSFeS3C6H4C6H4C6H4C6H4C6H4C6H4C6H4C6H4C6H4C6H4C6H4C6H4C6H4C6H4C6H4C6H4C6H4C6H4C6H4C6H4C6H4C6H4C6H4C6H4C6H4C6H4C6H4C6H4C6H4C6H4C6H4C6H4C6H4C6H4C6H4C6H4C6H4C6H4C6H4C6H4C6H4C6H4C6H4C6H4C6H4C6H4C6H4C6H4NC4H12NC4H12NC4H12NC4H12NC4H12NC4H12NC4H12NC4H12NC4H12NC4H12NC4H12NC4H12NC4H12NC4H12NC4H12NC4H12NC4H12NC4H12NC4H12NC4H12NC4H12NC4H12NC4H12NC4H12NC4H12NC4H12NC4H12NC4H12NC4H12NC4H12NC4H12NC4H12NC4H12NC4H12NC4H12NC4H12NC4H12NC4H12NC4H12NC4H12NC4H12NC4H12NC4H12NC4H12NC4H12NC4H12NC4H12NC4H12
_chemical_formula_sum              "Fe96 S192 C480 H768 N48"
_cell_length_a       71.02216254022946
_cell_length_b       71.2503638009475
_cell_length_c       30.219730976653278
_cell_angle_alpha    91.0458432732886
_cell_angle_beta     90.98293446248479
_cell_angle_gamma    117.74670989681248

_space_group_name_H-M_alt    "P 1"
_space_group_IT_number       1

loop_
  _space_group_symop_operation_xyz
  'x, y, z'

loop_
  _atom_site_type_symbol
  _atom_site_label
  _atom_site_symmetry_multiplicity
  _atom_site_fract_x
  _atom_site_fract_y
  _atom_site_fract_z
  _atom_site_occupancy
  Fe  Fe1       1.0  0.5849754002460466  0.5779092663148319  0.7186774518106339  1.0000
  S   S1        1.0  0.5504370793759882  0.5559879001686829  0.7277712612238841  1.0000
  S   S2        1.0  0.5948551754556991  0.5994091708446563  0.6600026850441182  1.0000
  Fe  Fe2       1.0  0.598143243720255  0.5635738341609507  0.8027970033925231  1.0000
  S   S3        1.0  0.5646001883814858  0.5401125646981029  0.8180984503168619  1.0000
  S   S4        1.0  0.6269729894089693  0.570594913336094  0.8467209009638511  1.0000
  Fe  Fe3       1.0  0.5615127454785936  0.5322990583047666  0.7450367205484136  1.0000
  S   S5        1.0  0.5436135010734489  0.5004172808024923  0.7109126819664685  1.0000
  Fe  Fe4       1.0  0.556420599272351  0.5659843294006609  0.7997998125735605  1.0000
  S   S6        1.0  0.5306143913188812  0.5705310492541453  0.8345074982104969  1.0000
  S   S7        1.0  0.5957078488190247  0.5534501588410163  0.7310907712970913  1.0000
  S   S8        1.0  0.590207793122544  0.5902185177133208  0.7894412042244879  1.0000
  Fe  Fe5       1.0  0.45226425163174033  0.42075018293611033  0.8293327047203013  1.0000
  S   S9        1.0  0.42634900018701355  0.4281535393009606  0.8065383899743227  1.0000
  S   S10       1.0  0.484020625661693  0.4442670632895382  0.8582757144268198  1.0000
  Fe  Fe6       1.0  0.4266082474391121  0.3736680835989139  0.8081915633258081  1.0000
  S   S11       1.0  0.398324276274028  0.3767104965683807  0.7816568295189987  1.0000
  S   S12       1.0  0.4322243196438376  0.34505609146886534  0.8124099273259106  1.0000
  Fe  Fe7       1.0  0.42246297246357845  0.40605132717437487  0.7482994275448265  1.0000
  S   S13       1.0  0.42509687459020257  0.4198378134028562  0.6796114774488551  1.0000
  Fe  Fe8       1.0  0.4044159001744155  0.39861276984034066  0.841574777507453  1.0000
  S   S14       1.0  0.38027359882753026  0.3936950624145612  0.894285572129264  1.0000
  S   S15       1.0  0.4500380937337479  0.4007629458172362  0.7697948488404863  1.0000
  S   S16       1.0  0.431076024724159  0.39337700147865123  0.869420218752191  1.0000
  Fe  Fe9       1.0  0.5945722695231888  0.5675802903763579  0.41117151094397497  1.0000
  S   S17       1.0  0.5699441350638703  0.5788505813261754  0.4047673045617759  1.0000
  S   S18       1.0  0.6145424348007941  0.5709192658380665  0.47310312244919606  1.0000
  Fe  Fe10      1.0  0.579820320428002  0.5408466106216735  0.3238828795849897  1.0000
  S   S19       1.0  0.5533414703798943  0.5492359929214173  0.31246870713168245  1.0000
  S   S20       1.0  0.5808152392271921  0.5172096910335517  0.273870881207093  1.0000
  Fe  Fe11      1.0  0.5777114090922312  0.5823272582513075  0.3321788429654755  1.0000
  S   S21       1.0  0.5836148898162277  0.6089604661632128  0.285392005927134  1.0000
  Fe  Fe12      1.0  0.5480744070483055  0.5448949640270521  0.3852794763744008  1.0000
  S   S22       1.0  0.5168128243585052  0.5260792043348111  0.4178144262175709  1.0000
  S   S23       1.0  0.6047197646217994  0.5741361709163008  0.3401325043295719  1.0000
  S   S24       1.0  0.5721987136290745  0.5334350214561184  0.39508523452107364  1.0000
  Fe  Fe13      1.0  0.41034041784517356  0.3872346169145177  0.42425426402296446  1.0000
  S   S25       1.0  0.4305007050207738  0.42221950287559634  0.41505146278026994  1.0000
  S   S26       1.0  0.39587455295388485  0.3727285856832735  0.48990141516087093  1.0000
  Fe  Fe14      1.0  0.4150337550941515  0.37588968031960723  0.3278580405423614  1.0000
  S   S27       1.0  0.4357212492890137  0.40987690056211096  0.3125664480593451  1.0000
  S   S28       1.0  0.40726332857721864  0.35397108582076664  0.2674068820824815  1.0000
  Fe  Fe15      1.0  0.4515772940312296  0.4121428394990065  0.3782551476631302  1.0000
  S   S29       1.0  0.4872375967624182  0.4290870221510456  0.37936503808760413  1.0000
  Fe  Fe16      1.0  0.412603379424185  0.41673408938002454  0.34987255806668177  1.0000
  S   S30       1.0  0.40642051949832725  0.4422801498341271  0.31968184438293185  1.0000
  S   S31       1.0  0.43285911200990873  0.3774767053067544  0.3910922106209639  1.0000
  S   S32       1.0  0.3904662197327011  0.3824219108391802  0.36134591705052554  1.0000
  Fe  Fe17      1.0  0.3365595128583429  0.8462926037835168  0.11812802092689532  1.0000
  S   S33       1.0  0.32198847910272754  0.843599167635426  0.04964052296114108  1.0000
  S   S34       1.0  0.33535927787833547  0.8687648164828344  0.1711798044389629  1.0000
  Fe  Fe18      1.0  0.3523315814942605  0.8144298198395329  0.09464414612521678  1.0000
  S   S35       1.0  0.33997412705400054  0.8101606974954267  0.024869622917966967  1.0000
  S   S36       1.0  0.3686960836287675  0.7962117550614631  0.12125674105347803  1.0000
  Fe  Fe19      1.0  0.35274330672000354  0.8455880809169737  0.025930960226408138  1.0000
  S   S37       1.0  0.37709513333215233  0.8667406342701433  0.9770585190874911  1.0000
  Fe  Fe20      1.0  0.31016911639821837  0.8080706189952354  0.05490379696294621  1.0000
  S   S38       1.0  0.2794232990387004  0.7802330817114989  0.02576450871238354  1.0000
  S   S39       1.0  0.3676213705229052  0.8498763299266346  0.09405394736928056  1.0000
  S   S40       1.0  0.3222761253014454  0.8108839020361842  0.1251853980502713  1.0000
  Fe  Fe21      1.0  0.479091311027092  0.8195948146091178  0.04438977590763836  1.0000
  S   S41       1.0  0.48386769459020057  0.8149077495535354  0.11568903376703539  1.0000
  S   S42       1.0  0.44665608816075913  0.8038981255406584  0.010292734654345811  1.0000
  Fe  Fe22      1.0  0.5264108324539997  0.8482059000509871  0.03190583975984728  1.0000
  S   S43       1.0  0.5347231073029254  0.8447192657586599  0.10269637484086531  1.0000
  S   S44       1.0  0.5530419812176383  0.8693015769643778  0.9872959973062562  1.0000
  Fe  Fe23      1.0  0.5112299563102085  0.809879971589156  0.0922937651127475  1.0000
  S   S45       1.0  0.5118671842994962  0.7809032991252306  0.12248626478104123  1.0000
  Fe  Fe24      1.0  0.5066366402656047  0.8497695351636074  0.11911239716344242  1.0000
  S   S46       1.0  0.5040397851442924  0.873230010110155  0.16724236094743647  1.0000
  S   S47       1.0  0.5053466908714425  0.8131202916714539  0.020269852149429557  1.0000
  S   S48       1.0  0.4995022970097256  0.8548489592301594  0.04902017003664903  1.0000
  Fe  Fe25      1.0  0.5276817099235674  0.6365263945212116  0.03968022534051041  1.0000
  S   S49       1.0  0.537861277364939  0.6618684427258847  0.09368316141905711  1.0000
  S   S50       1.0  0.5535199050706965  0.6343987996450497  0.00038762924293922474  1.0000
  Fe  Fe26      1.0  0.4806012827370786  0.6215113268101055  0.054407565875702266  1.0000
  S   S51       1.0  0.4870590831492014  0.646149021732279  0.10789206035392486  1.0000
  S   S52       1.0  0.4467127361400881  0.5994344155015435  0.03218734002071342  1.0000
  Fe  Fe27      1.0  0.5125452287051441  0.6691504969998012  0.0645914720695993  1.0000
  S   S53       1.0  0.5190115030175685  0.7014435213991674  0.03763066141819606  1.0000
  Fe  Fe28      1.0  0.5116851612597035  0.6367316581244445  0.13219733208671572  1.0000
  S   S54       1.0  0.5106232376769572  0.6269626625485304  0.20357958247403973  1.0000
  S   S55       1.0  0.5038642820333417  0.6449078952218215  0.00865017240141408  1.0000
  S   S56       1.0  0.5036865431472426  0.610882291899898  0.08062536955348741  1.0000
  Fe  Fe29      1.0  0.34297066039836704  0.4602827394098114  0.03852175290251325  1.0000
  S   S57       1.0  0.36454664514821594  0.4605738574572814  0.09360538399868225  1.0000
  S   S58       1.0  0.3480563837211462  0.4579409687331653  0.9653047770758729  1.0000
  Fe  Fe30      1.0  0.31666420426470043  0.47347782529749316  0.0991658328506729  1.0000
  S   S59       1.0  0.3366287803025788  0.4754773579381404  0.16000772889985662  1.0000
  S   S60       1.0  0.2918771456333047  0.48505733822016867  0.08711447739566258  1.0000
  Fe  Fe31      1.0  0.3650839851221317  0.4908625223525332  0.11693031427333518  1.0000
  S   S61       1.0  0.3977215385808678  0.5159439396276283  0.1402967270965376  1.0000
  Fe  Fe32      1.0  0.3350294667801688  0.4450745511887148  0.13315622743084124  1.0000
  S   S62       1.0  0.33121763789929676  0.4184007748539942  0.17770157215910815  1.0000
  S   S63       1.0  0.34577707194395174  0.4918854238321934  0.058911822693444194  1.0000
  S   S64       1.0  0.31290202434245273  0.44175054739028397  0.07534962577327027  1.0000
  Fe  Fe33      1.0  0.1335508914160089  0.6321655130624929  0.11405486196660697  1.0000
  S   S65       1.0  0.13948183472189404  0.6627670349161274  0.08323051279013194  1.0000
  S   S66       1.0  0.11977735038232884  0.6207494375397001  0.18125237550535156  1.0000
  Fe  Fe34      1.0  0.1563812575998624  0.6211225918267677  0.04152287290469281  1.0000
  S   S67       1.0  0.16481416086008865  0.6514420416249205  0.005826729457702573  1.0000
  S   S68       1.0  0.1641141945744979  0.5959415291110484  0.012978288450517881  1.0000
  Fe  Fe35      1.0  0.17302263124100262  0.6679918742915241  0.0731540215590639  1.0000
  S   S69       1.0  0.20086150527166188  0.6983309357136104  0.10363946483498848  1.0000
  Fe  Fe36      1.0  0.13081811008490327  0.6437103050784991  0.018788193332573592  1.0000
  S   S70       1.0  0.11027086377138696  0.6471378222670147  0.9642932656836314  1.0000
  S   S71       1.0  0.1673247887967716  0.6379752471743737  0.10735738062173208  1.0000
  S   S72       1.0  0.12215167780566835  0.6127005224996842  0.05083587943802785  1.0000
  Fe  Fe37      1.0  0.16898066575848297  0.46019616196666274  0.11279687307513467  1.0000
  S   S73       1.0  0.16787547351791612  0.4845630352009807  0.06720552081430167  1.0000
  S   S74       1.0  0.19333505346114163  0.448769748340076  0.13153463023550138  1.0000
  Fe  Fe38      1.0  0.12273141236616072  0.4443364950767671  0.1402757195945885  1.0000
  S   S75       1.0  0.11762019787910791  0.46688084065935764  0.09732127732491602  1.0000
  S   S76       1.0  0.09638247933007414  0.418348066255697  0.17784722554131777  1.0000
  Fe  Fe39      1.0  0.13522738542407872  0.4588836947560546  0.045868675596819876  1.0000
  S   S77       1.0  0.12383253867585016  0.455669022036822  0.9745548868792782  1.0000
  Fe  Fe40      1.0  0.15011746246644894  0.49115777980899167  0.12117046224273148  1.0000
  S   S78       1.0  0.15221841867452718  0.5225401955771021  0.14386735249472976  1.0000
  S   S79       1.0  0.13762453821372253  0.4340752588487576  0.08618265385347922  1.0000
  S   S80       1.0  0.1538808348113066  0.46913720394563413  0.1690658300840118  1.0000
  Fe  Fe41      1.0  0.5710898961432812  0.9634085795990724  0.8243503672099152  1.0000
  S   S81       1.0  0.6038962735449305  0.9698964282202509  0.8045219723966391  1.0000
  S   S82       1.0  0.5469330718951504  0.9400770453432613  0.8709125807159295  1.0000
  Fe  Fe42      1.0  0.5723038307038897  0.9990012868888964  0.7666776258581488  1.0000
  S   S83       1.0  0.6052834589570049  0.008801252448618933  0.7435679573252452  1.0000
  S   S84       1.0  0.5515300267405403  0.011541778354017707  0.7360742538701709  1.0000
  Fe  Fe43      1.0  0.5940946363638382  0.97383931090318  0.7348893950145258  1.0000
  S   S85       1.0  0.5953394393883459  0.9572599383716547  0.6707086719786115  1.0000
  Fe  Fe44      1.0  0.6121997718402451  0.004468060336862978  0.8148085739892996  1.0000
  S   S86       1.0  0.6414733288067229  0.026831740125204662  0.8558085836886622  1.0000
  S   S87       1.0  0.5605666647103447  0.9643553763796021  0.7543011183536833  1.0000
  S   S88       1.0  0.5799983495265207  0.9976351612418386  0.8384793077248254  1.0000
  Fe  Fe45      1.0  0.4192602141376839  0.973296909335722  0.7340603814905347  1.0000
  S   S89       1.0  0.4199274848924636  0.9512574597824689  0.7858636731466908  1.0000
  S   S90       1.0  0.42080329715657605  0.9614031474994699  0.6642696395925388  1.0000
  Fe  Fe46      1.0  0.41996877589462883  0.005100864108549042  0.8052723318045084  1.0000
  S   S91       1.0  0.4196725883879311  0.9849634901780968  0.8616864913412579  1.0000
  S   S92       1.0  0.42681793345109437  0.03925442603498255  0.8142455827594933  1.0000
  Fe  Fe47      1.0  0.44373580951413766  0.9803483852310899  0.8225730076660652  1.0000
  S   S93       1.0  0.4727371781824221  0.9828707528673122  0.8583973758204846  1.0000
  Fe  Fe48      1.0  0.39564844786920655  0.9575455282308689  0.8199410524380557  1.0000
  S   S94       1.0  0.3660124535100685  0.929741539334394  0.844573791774513  1.0000
  S   S95       1.0  0.44559567750238566  0.002017358691709381  0.7683883429538558  1.0000
  S   S96       1.0  0.3934888972859533  0.978187542811855  0.7662037845087013  1.0000
  Fe  Fe49      1.0  0.580729103462568  0.9587755652439309  0.34009535344683106  1.0000
  S   S97       1.0  0.5584117660163808  0.9725510477090092  0.3278248533264792  1.0000
  S   S98       1.0  0.5822373246994323  0.9342076999179719  0.2933930854879201  1.0000
  Fe  Fe50      1.0  0.6005889787388835  0.9863165157777359  0.42461944406480556  1.0000
  S   S99       1.0  0.5797470225339088  0.0018553909295409012  0.4173825919417693  1.0000
  S   S100      1.0  0.6233925163306981  0.0006324150931067418  0.4837308410119882  1.0000
  Fe  Fe51      1.0  0.5538480998494784  0.9693037739247843  0.40125062281566704  1.0000
  S   S101      1.0  0.5231513747293356  0.9577988136262457  0.43681112479985085  1.0000
  Fe  Fe52      1.0  0.5869676936603974  0.0038617489137600107  0.34500787959815327  1.0000
  S   S102      1.0  0.594876747069338  0.03533653526500303  0.3137293019186427  1.0000
  S   S103      1.0  0.5740441707955901  0.9532761959784711  0.41277742823738106  1.0000
  S   S104      1.0  0.6097650340503625  0.9904863778063753  0.35292078313045017  1.0000
  Fe  Fe53      1.0  0.4488356737330478  0.9967352644767759  0.3782523359269294  1.0000
  S   S105      1.0  0.4254942589272542  0.009173046194345303  0.38686798638999403  1.0000
  S   S106      1.0  0.48257884043249305  0.017891871397162085  0.4001737720804885  1.0000
  Fe  Fe54      1.0  0.41577164396556554  0.954748864685773  0.3360825424741077  1.0000
  S   S107      1.0  0.3896134489585483  0.9638461763749324  0.3435364620241656  1.0000
  S   S108      1.0  0.41437619133111947  0.9260045298534126  0.2994207533859744  1.0000
  Fe  Fe55      1.0  0.4136289369947676  0.9955166126877729  0.3186065396968988  1.0000
  S   S109      1.0  0.4064654899316678  0.01099403991697944  0.2605057534846234  1.0000
  Fe  Fe56      1.0  0.4044551954290273  0.9765825487809868  0.4117417527588183  1.0000
  S   S110      1.0  0.3881834514707132  0.9761355672588028  0.4763756152091554  1.0000
  S   S111      1.0  0.4388949864409382  0.9857185656859813  0.3079989312553946  1.0000
  S   S112      1.0  0.4286659285533447  0.9648178307134424  0.4060857908426704  1.0000
  Fe  Fe57      1.0  0.8355080743792692  0.46679493814155937  0.05268753200586293  1.0000
  S   S113      1.0  0.8258584309659652  0.4750516812765385  0.9875812157173687  1.0000
  S   S114      1.0  0.8198295887440238  0.43266081150774993  0.07381684986162021  1.0000
  Fe  Fe58      1.0  0.8652462688747059  0.512920743972941  0.07803368454580939  1.0000
  S   S115      1.0  0.8584233979827  0.5244414248632508  0.013873469733608495  1.0000
  S   S116      1.0  0.884874502476435  0.5377878086209208  0.13080900914345683  1.0000
  Fe  Fe59      1.0  0.823924863420399  0.5015693590230896  0.025498139580647505  1.0000
  S   S117      1.0  0.8004717180636886  0.5151673633928926  0.01780565510648703  1.0000
  Fe  Fe60      1.0  0.8610060895097454  0.4970753238508817  0.9819720887817993  1.0000
  S   S118      1.0  0.8768479034059999  0.4946267538550594  0.9187719261903599  1.0000
  S   S119      1.0  0.8308045087133157  0.4915140554715764  0.0911316267770729  1.0000
  S   S120      1.0  0.8706038768888628  0.48725358708946026  0.045344162799063045  1.0000
  Fe  Fe61      1.0  0.8589057179609081  0.3185705749594933  0.13996696482630286  1.0000
  S   S121      1.0  0.8810394668790412  0.3379676973839855  0.08803543622080362  1.0000
  S   S122      1.0  0.8690047752575842  0.3280250792733052  0.21196247893712042  1.0000
  Fe  Fe62      1.0  0.8221110156368931  0.2937760908163534  0.07314013343680618  1.0000
  S   S123      1.0  0.8417946889124339  0.3123398136543374  0.015985187237075538  1.0000
  S   S124      1.0  0.7874841543540181  0.269526187998107  0.05505722994805075  1.0000
  Fe  Fe63      1.0  0.8681237389706297  0.30786215144227463  0.047506396988963875  1.0000
  S   S125      1.0  0.8896337685898279  0.2994588008959109  0.00642248832313963  1.0000
  Fe  Fe64      1.0  0.8532482398029794  0.3413310586971859  0.06075332361841561  1.0000
  S   S126      1.0  0.8642679648885088  0.3750026520189964  0.03865791287884096  1.0000
  S   S127      1.0  0.8480352056361871  0.28745677618558885  0.10207844633074231  1.0000
  S   S128      1.0  0.8314931714542177  0.32357231665566316  0.11510966363427945  1.0000
  Fe  Fe65      1.0  0.45511633296754045  0.3129848235839147  0.04282736701923384  1.0000
  S   S129      1.0  0.48074893768755184  0.34097895824656116  0.07978901992264409  1.0000
  S   S130      1.0  0.42736873263433467  0.3148459663302102  0.00980821159558598  1.0000
  Fe  Fe66      1.0  0.4729942557264375  0.2826016248656464  0.06744947964251971  1.0000
  S   S131      1.0  0.5007794043118108  0.30847256365971965  0.10640372557063646  1.0000
  S   S132      1.0  0.45927569185750866  0.2466489975343623  0.05436423957280379  1.0000
  Fe  Fe67      1.0  0.4767941546596676  0.31802919000189445  0.13304788388868602  1.0000
  S   S133      1.0  0.4763354389599162  0.32691684247193387  0.20524951296786353  1.0000
  Fe  Fe68      1.0  0.5027745487144529  0.32992878001945813  0.050500255764129434  1.0000
  S   S134      1.0  0.5309078468856608  0.353913984824855  0.013541820875281774  1.0000
  S   S135      1.0  0.44912378660333757  0.2908944153695079  0.0987688583318942  1.0000
  S   S136      1.0  0.47720440717926005  0.3034412124669059  0.00919784646236943  1.0000
  Fe  Fe69      1.0  0.6448216483637823  0.4935807522706935  0.004455480663722922  1.0000
  S   S137      1.0  0.6236469765964414  0.491949228443515  0.0603346858310676  1.0000
  S   S138      1.0  0.6380345558166414  0.49507914370362743  0.9313336790042117  1.0000
  Fe  Fe70      1.0  0.6753233577080202  0.4846845075893889  0.06216666461849166  1.0000
  S   S139      1.0  0.6567407891293721  0.4824504812609168  0.12319379988398865  1.0000
  S   S140      1.0  0.7014759977670165  0.4743128826390398  0.061562073722360375  1.0000
  Fe  Fe71      1.0  0.626979486095226  0.46360120861690113  0.08168294011662937  1.0000
  S   S141      1.0  0.5999486883253965  0.43677728817435224  0.11636509045315373  1.0000
  Fe  Fe72      1.0  0.6542630339625793  0.5107989590133198  0.09907653075846884  1.0000
  S   S142      1.0  0.6585972340762  0.5363802397744558  0.1500894561552706  1.0000
  S   S143      1.0  0.645466712272213  0.46337007501846295  0.02269523196393619  1.0000
  S   S144      1.0  0.6755614233690248  0.5149925778549421  0.04121163997403082  1.0000
  Fe  Fe73      1.0  0.6601908177083045  0.10295419522251902  0.11649547571344683  1.0000
  S   S145      1.0  0.6336326922192718  0.10223396736868333  0.07418701844070417  1.0000
  S   S146      1.0  0.6554605043612575  0.07278839288279641  0.1503458472110653  1.0000
  Fe  Fe74      1.0  0.6916285252722174  0.14867027485401055  0.09168737386145925  1.0000
  S   S147      1.0  0.667159515770642  0.151383115232647  0.047805716897851847  1.0000
  S   S148      1.0  0.7264154991491052  0.17327599181899342  0.10727184177559293  1.0000
  Fe  Fe75      1.0  0.6439953381138295  0.13509614880625487  0.10128653806756271  1.0000
  S   S149      1.0  0.6200631139068115  0.14631216345725503  0.12032105250049227  1.0000
  Fe  Fe76      1.0  0.6581892973647213  0.11815584297629839  0.02313678109558963  1.0000
  S   S150      1.0  0.6455678094431203  0.10871664459101252  0.9522823351807559  1.0000
  S   S151      1.0  0.6689888207974307  0.13488107605397573  0.14799629425746802  1.0000
  S   S152      1.0  0.6843169999953737  0.11633978420470574  0.06283126045426969  1.0000
  Fe  Fe77      1.0  0.45709891931742724  0.10108811299413997  0.03903815438724982  1.0000
  S   S153      1.0  0.45677672453624635  0.1213826303970954  0.09707786513994779  1.0000
  S   S154      1.0  0.42669187752151616  0.0756414638443259  0.0073619790605032875  1.0000
  Fe  Fe78      1.0  0.5044483097893688  0.11550466824274756  0.04901810960971692  1.0000
  S   S155      1.0  0.507964343850385  0.13685820801241233  0.10715435264286258  1.0000
  S   S156      1.0  0.5290985827197535  0.10643401446937373  0.024111373088779732  1.0000
  Fe  Fe79      1.0  0.4778845430334255  0.11008026919798006  0.13079591209553076  1.0000
  S   S157      1.0  0.4777703398641438  0.10132638476939432  0.20235089726824765  1.0000
  Fe  Fe80      1.0  0.4867522033653919  0.14683962390500996  0.06854057739659966  1.0000
  S   S158      1.0  0.49917399410757757  0.18284216760206676  0.07495213864354291  1.0000
  S   S159      1.0  0.4759012974606484  0.08803812571678817  0.07554500548958477  1.0000
  S   S160      1.0  0.48556567194287337  0.1271948638439449  0.0076463756331230925  1.0000
  Fe  Fe81      1.0  0.003408460911429989  0.57328189144887  0.7091217016601592  1.0000
  S   S161      1.0  0.9689613440400251  0.5508277487425489  0.7202540323982073  1.0000
  S   S162      1.0  0.017263741552268952  0.5917680362135621  0.6468900029142962  1.0000
  Fe  Fe82      1.0  0.01856321591423823  0.5653906740340757  0.7997151100902832  1.0000
  S   S163      1.0  0.9853035401046092  0.5421615365264392  0.8172630114814406  1.0000
  S   S164      1.0  0.044088081123496735  0.5672708114558971  0.8487212033321907  1.0000
  Fe  Fe83      1.0  0.9816394292999214  0.5298002599970076  0.7474873880344618  1.0000
  S   S165      1.0  0.9651152562081736  0.494723737610024  0.7339946102566414  1.0000
  Fe  Fe84      1.0  0.975443191904313  0.5650882147794061  0.7893466164910176  1.0000
  S   S166      1.0  0.952748497712114  0.5726604842834081  0.8280016744116838  1.0000
  S   S167      1.0  0.015599302827474447  0.550919117028179  0.7314196593973945  1.0000
  S   S168      1.0  0.009109321337027687  0.5896989777163733  0.7765662669227944  1.0000
  Fe  Fe85      1.0  0.013598725554563755  0.3879964206044808  0.8635326750931149  1.0000
  S   S169      1.0  0.9896153336998347  0.3979944794390773  0.8860601364353236  1.0000
  S   S170      1.0  0.0317171605048715  0.38218143781316133  0.9195508187449287  1.0000
  Fe  Fe86      1.0  0.0037518214564766783  0.3906260305109432  0.7646844531723953  1.0000
  S   S171      1.0  0.9792089629083925  0.4010233928581029  0.7805277845059637  1.0000
  S   S172      1.0  0.017993393985664463  0.3936420234358266  0.6962064820236565  1.0000
  Fe  Fe87      1.0  0.002336379214896267  0.42189833915580877  0.833459736608683  1.0000
  S   S173      1.0  0.012213295455731243  0.4561022501014957  0.8498017427841715  1.0000
  Fe  Fe88      1.0  0.96833051276513  0.375942034986779  0.8322805568666308  1.0000
  S   S174      1.0  0.9328643895860772  0.35802842552148695  0.8436598641068485  1.0000
  S   S175      1.0  0.027848186047808293  0.41362639959069575  0.8144941010507394  1.0000
  S   S176      1.0  0.9912901513273973  0.3637209394389828  0.8128702856186854  1.0000
  Fe  Fe89      1.0  0.016278977035088182  0.552832135685978  0.3509173140313689  1.0000
  S   S177      1.0  0.9817335864020927  0.5396112572137055  0.3655871216424058  1.0000
  S   S178      1.0  0.0340426227226065  0.5350180284710587  0.37021151493416626  1.0000
  Fe  Fe90      1.0  0.01803222583299635  0.5914194109407395  0.30766613536489185  1.0000
  S   S179      1.0  0.9835075240829811  0.5816815548012075  0.3207509345623845  1.0000
  S   S180      1.0  0.036799299714788666  0.6184522550858296  0.26218493366087375  1.0000
  Fe  Fe91      1.0  0.9905331159222994  0.5728730877377906  0.38856154572437157  1.0000
  S   S181      1.0  0.9747248402897951  0.5742496352023319  0.45289299082414924  1.0000
  Fe  Fe92      1.0  0.9777197466781099  0.5493027499070257  0.29731266287396446  1.0000
  S   S182      1.0  0.9542541556666192  0.5261106862557318  0.24609670977718798  1.0000
  S   S183      1.0  0.025607030567412  0.585682950368941  0.3774647109219666  1.0000
  S   S184      1.0  0.011730671317756292  0.5595263823594006  0.2809441040486367  1.0000
  Fe  Fe93      1.0  0.9816366213761301  0.4172236959648838  0.37821254429612944  1.0000
  S   S185      1.0  0.007799857083960128  0.42185453229695513  0.4265489503416292  1.0000
  S   S186      1.0  0.9665906543330228  0.4385209964252679  0.3710956849320022  1.0000
  Fe  Fe94      1.0  0.9783704477168946  0.3765113016207592  0.33810994106970216  1.0000
  S   S187      1.0  0.004769359287514652  0.377790381907157  0.3827548802442483  1.0000
  S   S188      1.0  0.9614357419622472  0.35010227744683137  0.28663113417381736  1.0000
  Fe  Fe95      1.0  0.9888654262475043  0.3868570051285734  0.4373851636082934  1.0000
  S   S189      1.0  0.9759379864796776  0.369441493618312  0.5014194814515328  1.0000
  Fe  Fe96      1.0  0.021469277542083796  0.41264214180280373  0.36796107442342796  1.0000
  S   S190      1.0  0.05611287200554969  0.43399494559279556  0.3523220163635605  1.0000
  S   S191      1.0  0.9614813729519905  0.3831549446152239  0.392994587439023  1.0000
  S   S192      1.0  0.9963519213833443  0.4104817328199499  0.3192019506753355  1.0000
  C   C1        1.0  0.0158226840787008  0.5080516464493156  0.3692084741612329  1.0000
  C   C2        1.0  0.019970243395210474  0.49398158988035024  0.3941575975360437  1.0000
  C   C3        1.0  0.0048872937624386825  0.4725036521103545  0.3947460719695743  1.0000
  C   C4        1.0  0.9856758974666311  0.46517116443211737  0.3705171393149829  1.0000
  C   C5        1.0  0.9816939121799274  0.47923439245334526  0.34523804101176403  1.0000
  C   C6        1.0  0.996905774056545  0.5005907879905204  0.3440258167156781  1.0000
  H   H1        1.0  0.03468426418079695  0.49971275315052993  0.4134295614396868  1.0000
  H   H2        1.0  0.007963848456736589  0.46171369057818434  0.41451090970810467  1.0000
  H   H3        1.0  0.966943369366935  0.47355208927182446  0.32607327082322757  1.0000
  H   H4        1.0  0.9939745872837675  0.5112112965973764  0.3232972205861492  1.0000
  C   C7        1.0  0.0056476922181025735  0.3874178518730292  0.6425284405307548  1.0000
  C   C8        1.0  0.9836366978393213  0.375300252378523  0.6358609277568125  1.0000
  C   C9        1.0  0.9747426184814416  0.37022539455053044  0.5924497189123061  1.0000
  C   C10       1.0  0.9876459808690871  0.3776933284451641  0.5553517819917445  1.0000
  C   C11       1.0  0.009566037448302867  0.39037880698704225  0.5621035176308903  1.0000
  C   C12       1.0  0.01851684341776272  0.39494135330950697  0.6054231534622226  1.0000
  H   H5        1.0  0.9735427711497282  0.36932264836339407  0.6640451640659191  1.0000
  H   H6        1.0  0.9577796368832239  0.36029582362473184  0.5876005642274175  1.0000
  H   H7        1.0  0.019720722388655076  0.39599803050580334  0.5339161299935191  1.0000
  H   H8        1.0  0.035585371425979444  0.4041555175956708  0.6101654919778182  1.0000
  C   C13       1.0  0.005138334768669983  0.585122554342679  0.5931573236633871  1.0000
  C   C14       1.0  0.018041597170781465  0.592185052874957  0.5560604457447197  1.0000
  C   C15       1.0  0.008989671872976057  0.588584256655819  0.5128956218198114  1.0000
  C   C16       1.0  0.9868686294491367  0.5783925229191528  0.5064688448147546  1.0000
  C   C17       1.0  0.9739441954316402  0.5714326144186042  0.5436094559875697  1.0000
  C   C18       1.0  0.9830069506384903  0.5744389893939645  0.5867031016306067  1.0000
  H   H9        1.0  0.03517031312159191  0.6006786506496868  0.5607334933961746  1.0000
  H   H10       1.0  0.019129368419785298  0.5942221135055386  0.4846787220144353  1.0000
  H   H11       1.0  0.9568071419336465  0.5635899525363961  0.5389420468328213  1.0000
  H   H12       1.0  0.9728516181369051  0.5690146641666736  0.6148984139916687  1.0000
  C   C19       1.0  0.9781283602944768  0.4837947038484214  0.7656767055766899  1.0000
  C   C20       1.0  0.9691637625035664  0.4617993065750493  0.7695911779625906  1.0000
  C   C21       1.0  0.9794353270610492  0.45314284497456325  0.7959567471269008  1.0000
  C   C22       1.0  0.9987544344978366  0.4664818922993072  0.817880203628564  1.0000
  C   C23       1.0  0.0076338970215037725  0.4884433370184458  0.8140277296042737  1.0000
  C   C24       1.0  0.9973202250946771  0.4970916950169004  0.7879859332705343  1.0000
  H   H13       1.0  0.9541841741905221  0.451491286005346  0.7526877706074167  1.0000
  H   H14       1.0  0.9722107417487301  0.43620565496906283  0.7999109384042519  1.0000
  H   H15       1.0  0.02255654325815064  0.49881847259758044  0.8310915416654967  1.0000
  H   H16       1.0  0.004332683372245003  0.5140920348762841  0.7852952398046374  1.0000
  C   C25       1.0  0.5945612658902966  0.13467977327824215  0.09450875891697715  1.0000
  C   C26       1.0  0.587199815000022  0.11616651033207585  0.06811520209361087  1.0000
  C   C27       1.0  0.5669965741058427  0.10754075684170132  0.047066127468648127  1.0000
  C   C28       1.0  0.553995205293251  0.11733008410956991  0.05230331099269711  1.0000
  C   C29       1.0  0.5611940443284513  0.13567874645236908  0.07916972807869067  1.0000
  C   C30       1.0  0.5814416044010835  0.14433807817572541  0.10013514572836787  1.0000
  H   H17       1.0  0.597042715547617  0.10847968440132816  0.06385648245430808  1.0000
  H   H18       1.0  0.5614636297333241  0.09326443120914628  0.02651809737701096  1.0000
  H   H19       1.0  0.551409924917212  0.14350780392741666  0.08300761673750892  1.0000
  H   H20       1.0  0.5870761968167233  0.15873289993893017  0.1203691905424615  1.0000
  C   C31       1.0  0.48774415318410075  0.20025567935732796  0.06788316790724687  1.0000
  C   C32       1.0  0.46658160606950133  0.19304715475825676  0.053657884077035985  1.0000
  C   C33       1.0  0.45819284149730344  0.2074700104208075  0.04986941565884949  1.0000
  C   C34       1.0  0.4707883811024881  0.22925750104134815  0.060172432298300126  1.0000
  C   C35       1.0  0.49190748269531914  0.2364324975736987  0.0745853928182638  1.0000
  C   C36       1.0  0.5002956353871126  0.222014918684976  0.07836003267445356  1.0000
  H   H21       1.0  0.456724449017825  0.17641512846470747  0.04519371199624923  1.0000
  H   H22       1.0  0.44185257112670456  0.2017131313560699  0.03858203401766103  1.0000
  H   H23       1.0  0.5018310093089736  0.2531115296046953  0.08255998053310896  1.0000
  H   H24       1.0  0.5166958717073572  0.22781949569704782  0.08933589172157547  1.0000
  C   C37       1.0  0.5498509425266408  0.3770003814264858  0.04233940411469517  1.0000
  C   C38       1.0  0.5667038332642201  0.39259717494793944  0.019239618735819107  1.0000
  C   C39       1.0  0.5820737100262331  0.4111264570093208  0.04137608862893532  1.0000
  C   C40       1.0  0.5807112423795993  0.41409433201348594  0.08685380279994401  1.0000
  C   C41       1.0  0.5637216899172184  0.398590732814004  0.10983579804664267  1.0000
  C   C42       1.0  0.5482898600060241  0.3801371350106787  0.08765777178354472  1.0000
  H   H25       1.0  0.5680097800848098  0.3902544192038852  0.984181419882982  1.0000
  H   H26       1.0  0.595098135698919  0.4229683030853498  0.023385115712080816  1.0000
  H   H27       1.0  0.5625947531785994  0.40074529901470857  0.1450177909781747  1.0000
  H   H28       1.0  0.5353839855323749  0.36819133004773075  0.10573963099034578  1.0000
  C   C43       1.0  0.8953043815768058  0.33520659184633594  0.23039399530508645  1.0000
  C   C44       1.0  0.9081035107952865  0.3283955944097381  0.2076064883578252  1.0000
  C   C45       1.0  0.9284790298968184  0.3332831220150527  0.22484657798171218  1.0000
  C   C46       1.0  0.9364765417241352  0.34561387952246303  0.26407268136039225  1.0000
  C   C47       1.0  0.9239726706199057  0.35312373469710856  0.2858398835646891  1.0000
  C   C48       1.0  0.9033156707501233  0.3475570422962843  0.26956704037946133  1.0000
  H   H29       1.0  0.9020486062707266  0.3187825813403533  0.17750783448198174  1.0000
  H   H30       1.0  0.9380332519639322  0.32738141434964174  0.20785250547080958  1.0000
  H   H31       1.0  0.9299754513697366  0.362781602558524  0.31582558954595014  1.0000
  H   H32       1.0  0.8934687552783027  0.3527274022786202  0.28764900449152586  1.0000
  C   C49       1.0  0.9223301700922559  0.34263637399424357  0.890809629272932  1.0000
  C   C50       1.0  0.9242371880255141  0.32418221487513355  0.8972649802517855  1.0000
  C   C51       1.0  0.9142529849061437  0.31111474900499475  0.9329359217808321  1.0000
  C   C52       1.0  0.9020513704044456  0.31623731155304924  0.9620922034111468  1.0000
  C   C53       1.0  0.9000559416417939  0.33463424100853517  0.955596188591634  1.0000
  C   C54       1.0  0.9100669996514128  0.34770777487999927  0.9199136690160935  1.0000
  H   H33       1.0  0.9330339949011458  0.319753664281812  0.8740838191255056  1.0000
  H   H34       1.0  0.9156917348320598  0.29680556682334347  0.9374911310360415  1.0000
  H   H35       1.0  0.8906245057987519  0.3387093859996166  0.9777646061358256  1.0000
  H   H36       1.0  0.9080726475589683  0.36165828226181057  0.9145172615684901  1.0000
  C   C55       1.0  0.7704611900067249  0.2430748978032637  0.07157738077903712  1.0000
  C   C56       1.0  0.7767151913781423  0.23294678346022415  0.10352850647336369  1.0000
  C   C57       1.0  0.763004266306026  0.21167780169314257  0.11396454208568035  1.0000
  C   C58       1.0  0.7427166096709789  0.2002859536165942  0.09327223990732608  1.0000
  C   C59       1.0  0.7363717631362805  0.2105002653412349  0.06168015156495998  1.0000
  C   C60       1.0  0.7501907083566868  0.2316986099281439  0.05084614419536126  1.0000
  H   H37       1.0  0.7921072656185985  0.24145278204146464  0.12021691225099182  1.0000
  H   H38       1.0  0.768075479730059  0.2040065269527179  0.13858172648121653  1.0000
  H   H39       1.0  0.7208677391898363  0.20202657396065565  0.04544509622676677  1.0000
  H   H40       1.0  0.7450960905759452  0.2393459167375789  0.026240701367287178  1.0000
  C   C61       1.0  0.9039478639287108  0.5343274526777139  0.16314961860403399  1.0000
  C   C62       1.0  0.9154502390828246  0.5491908714724031  0.1972418102599166  1.0000
  C   C63       1.0  0.93069374485305  0.5467641620597791  0.22356873898831559  1.0000
  C   C64       1.0  0.9346736337649272  0.529542991295549  0.21558837855981913  1.0000
  C   C65       1.0  0.9231943745315524  0.5147439675020661  0.18145896670006564  1.0000
  C   C66       1.0  0.9078751908417821  0.5170854638474388  0.1553861222017308  1.0000
  H   H41       1.0  0.912406863787913  0.5625095699670187  0.20360283465155193  1.0000
  H   H42       1.0  0.939182450580938  0.5580769968668452  0.25024077695053637  1.0000
  H   H43       1.0  0.9261479315918023  0.5013575715391734  0.1751774102655477  1.0000
  H   H44       1.0  0.8990871395842163  0.5055138362023509  0.129361427388417  1.0000
  C   C67       1.0  0.8976770104903141  0.5167754057888141  0.8940817327027258  1.0000
  C   C68       1.0  0.906712237426784  0.5133920158745529  0.8557160442597861  1.0000
  C   C69       1.0  0.9239295163338982  0.5303116670471018  0.8360194770078234  1.0000
  C   C70       1.0  0.9317785673564811  0.5509819779452847  0.8535766142142139  1.0000
  C   C71       1.0  0.9224574111813132  0.5544694337598406  0.8914199714060199  1.0000
  C   C72       1.0  0.9056481239121127  0.5374001205540455  0.9119764840409698  1.0000
  H   H45       1.0  0.9002931229962501  0.49759419445318587  0.8410822183559735  1.0000
  H   H46       1.0  0.9307422555124151  0.5274685216958055  0.8064924206026478  1.0000
  H   H47       1.0  0.9283612392250385  0.5704150361749755  0.9050861337097492  1.0000
  H   H48       1.0  0.898767118574355  0.5402448957903706  0.9413867323419244  1.0000
  C   C73       1.0  0.7730200468608371  0.5036173535341444  0.03076410539904967  1.0000
  C   C74       1.0  0.7619034321325431  0.48292320946094297  0.04572614796308506  1.0000
  C   C75       1.0  0.7401214697960328  0.4743967362479142  0.0553210238294078  1.0000
  C   C76       1.0  0.729182761584731  0.48644759240138746  0.05059333148481291  1.0000
  C   C77       1.0  0.7403584839269104  0.5072480255835938  0.036040563196434984  1.0000
  C   C78       1.0  0.7621126066848253  0.5157157000228114  0.02604860646483102  1.0000
  H   H49       1.0  0.7700164487852907  0.47339934210556545  0.049614939290274856  1.0000
  H   H50       1.0  0.7316611376315351  0.45828573696265784  0.06649781952462536  1.0000
  H   H51       1.0  0.732286095066117  0.5168148839430824  0.032506961365806886  1.0000
  H   H52       1.0  0.7705675902685973  0.5317784261211824  0.014647656370922845  1.0000
  C   C79       1.0  0.8332780299428226  0.41726372990665644  0.06962431105630232  1.0000
  C   C80       1.0  0.8540807994408174  0.42593104512013114  0.054612532490665076  1.0000
  C   C81       1.0  0.8633976999104146  0.4127371711641587  0.045754340291655024  1.0000
  C   C82       1.0  0.852235042203139  0.39089307299645537  0.05295920878335089  1.0000
  C   C83       1.0  0.8318078401723322  0.38232227089456894  0.06996809366431377  1.0000
  C   C84       1.0  0.8223339674304789  0.39550212778759  0.07814806818801086  1.0000
  H   H53       1.0  0.8628212774357641  0.44270945915407217  0.04875995199407188  1.0000
  H   H54       1.0  0.8792890286868881  0.4194621586798037  0.03294836495431984  1.0000
  H   H55       1.0  0.8230658462600949  0.36547257248265463  0.07553098749603421  1.0000
  H   H56       1.0  0.8062338301799891  0.3887016278558199  0.089874115769832  1.0000
  C   C85       1.0  0.458253623271999  0.07583151354412507  0.21733738572942152  1.0000
  C   C86       1.0  0.4407496594319435  0.0634935421483399  0.18925693463364565  1.0000
  C   C87       1.0  0.42500315729710303  0.043625708698748315  0.20276802671645658  1.0000
  C   C88       1.0  0.42685421242574223  0.03573767878714702  0.2439861166998736  1.0000
  C   C89       1.0  0.4446559302146795  0.047843292224127636  0.271563746066143  1.0000
  C   C90       1.0  0.46016385580564184  0.0679170188238629  0.2584796836909495  1.0000
  H   H57       1.0  0.4390608290308886  0.06943298999744196  0.15751541648752773  1.0000
  H   H58       1.0  0.4112723135536173  0.034420251882012275  0.1812762215747194  1.0000
  H   H59       1.0  0.4462216993561682  0.041942867288540964  0.3034162422918694  1.0000
  H   H60       1.0  0.4735702525526958  0.07738094852328466  0.28052933569705213  1.0000
  C   C91       1.0  0.49476351819549985  0.002327251554977261  0.41386306338806234  1.0000
  C   C92       1.0  0.48464557371466976  0.9850032735028255  0.44128348048322646  1.0000
  C   C93       1.0  0.4939645628596742  0.9718800081325517  0.4500484849796093  1.0000
  C   C94       1.0  0.5130264093076102  0.9757084920119173  0.4302422605186301  1.0000
  C   C95       1.0  0.5232560444496854  0.9931663112443399  0.4032898525514649  1.0000
  C   C96       1.0  0.5142706435123636  0.006660182219064392  0.3956307688990372  1.0000
  H   H61       1.0  0.469597532580836  0.9816033857365402  0.4555556611303529  1.0000
  H   H62       1.0  0.48602952701961405  0.9583444777810708  0.47085830277178525  1.0000
  H   H63       1.0  0.5378808570427629  0.9961053300887784  0.38755465819357565  1.0000
  H   H64       1.0  0.5220815248870734  0.020021609055339562  0.3743118413833497  1.0000
  C   C97       1.0  0.638096711198034  0.062335331804063636  0.19496500531102592  1.0000
  C   C98       1.0  0.6283707947609423  0.07338969316251434  0.21462996936190953  1.0000
  C   C99       1.0  0.6149872623700822  0.06478093108348486  0.2506775499014051  1.0000
  C   C100      1.0  0.611032357935349  0.04498695316242826  0.2670759676735433  1.0000
  C   C101      1.0  0.620514176784872  0.03377581007110175  0.24699759250065886  1.0000
  C   C102      1.0  0.6340896437380026  0.042494258103820216  0.21124942334070115  1.0000
  H   H65       1.0  0.631399840003103  0.0887110865659698  0.20247528090014497  1.0000
  H   H66       1.0  0.607771568307059  0.07358712366879601  0.2661065152390064  1.0000
  H   H67       1.0  0.617532472558667  0.018485584116863456  0.25921497402462046  1.0000
  H   H68       1.0  0.6415786894444698  0.03385679081609006  0.19624415959602085  1.0000
  C   C103      1.0  0.4115346014121931  0.9659270118071482  0.6127068938541899  1.0000
  C   C104      1.0  0.41759672687554517  0.9594080477819602  0.5736678805606047  1.0000
  C   C105      1.0  0.41052581197565047  0.9623749189394977  0.5318123043640584  1.0000
  C   C106      1.0  0.3970629563959922  0.971683992695358  0.528512345245383  1.0000
  C   C107      1.0  0.39066494913110367  0.9778662140529866  0.5676092162972164  1.0000
  C   C108      1.0  0.3980381492691548  0.9752230746755605  0.609538419503509  1.0000
  H   H69       1.0  0.4278704502058965  0.9520171545376033  0.5757831096008543  1.0000
  H   H70       1.0  0.41533626426773096  0.9572546599312803  0.5021415835616961  1.0000
  H   H71       1.0  0.3801312921038297  0.9849632951949535  0.5654021080878165  1.0000
  H   H72       1.0  0.3931460903782247  0.9802227743647108  0.639298539082281  1.0000
  C   C109      1.0  0.4263750597963974  0.04909334770875207  0.8679700983153855  1.0000
  C   C110      1.0  0.4385798412133197  0.07087478127740326  0.8777767619100573  1.0000
  C   C111      1.0  0.43944314302381343  0.07905644966808434  0.9208978073046349  1.0000
  C   C112      1.0  0.42729139249922315  0.06561607189440083  0.9539584506138397  1.0000
  C   C113      1.0  0.41464964040776897  0.04391226692044601  0.9438644566202042  1.0000
  C   C114      1.0  0.41447996458704245  0.035588651148485556  0.9012025922030513  1.0000
  H   H73       1.0  0.4475739329048433  0.08143543241272941  0.8520278490455789  1.0000
  H   H74       1.0  0.4488913008320987  0.09586859022201585  0.928194980683579  1.0000
  H   H75       1.0  0.40499132634809365  0.03349948289663063  0.9691763699054132  1.0000
  H   H76       1.0  0.40479176778986836  0.018821108516301754  0.8938115508219379  1.0000
  C   C115      1.0  0.6035132752102995  0.9698345577793113  0.619309633545339  1.0000
  C   C116      1.0  0.6166234928196361  0.9917192915487903  0.6166463248715623  1.0000
  C   C117      1.0  0.6229448972615168  0.000954319474499643  0.5750027840726168  1.0000
  C   C118      1.0  0.6155895507697953  0.9885399232582303  0.5356648596517214  1.0000
  C   C119      1.0  0.6021732136501318  0.9667397856738633  0.538370515750532  1.0000
  C   C120      1.0  0.5964594618360973  0.9574199054237044  0.5799695911229761  1.0000
  H   H77       1.0  0.6223157573920448  0.0014289687587165645  0.6466945155968441  1.0000
  H   H78       1.0  0.6334419488625894  0.017803246506279624  0.5733090576319835  1.0000
  H   H79       1.0  0.5965829173354152  0.9569465694952011  0.5084202334138034  1.0000
  H   H80       1.0  0.5864471664030945  0.9404656580123797  0.5816777032609627  1.0000
  C   C121      1.0  0.5300977966131127  0.005960314200915029  0.7703781479730274  1.0000
  C   C122      1.0  0.5326370150684138  0.005516847267517111  0.8162510330851064  1.0000
  C   C123      1.0  0.5150595545279064  0.9991970762571928  0.8433796507873401  1.0000
  C   C124      1.0  0.49486311560229806  0.9930993869784004  0.8245878527330283  1.0000
  C   C125      1.0  0.49237055241345307  0.9939952805951944  0.77877588300682  1.0000
  C   C126      1.0  0.510030206274742  0.0006231663148372757  0.7516959098420339  1.0000
  H   H81       1.0  0.548187752207343  0.01016987294315852  0.830882676902142  1.0000
  H   H82       1.0  0.5170814686012599  0.9985968195488424  0.8788096552618206  1.0000
  H   H83       1.0  0.4767572604901825  0.988685824487635  0.7638383682225559  1.0000
  H   H84       1.0  0.5079931968914239  0.0008354623490594015  0.7161775995109929  1.0000
  C   C127      1.0  0.6428290925793805  0.05015318852657143  0.8802335260241448  1.0000
  C   C128      1.0  0.6261026876162141  0.055216049756945974  0.8753792209447417  1.0000
  C   C129      1.0  0.6272162470518066  0.07332859553285745  0.8972979487877552  1.0000
  C   C130      1.0  0.6449020824906153  0.0863308695719582  0.9246469509249374  1.0000
  C   C131      1.0  0.661822810709433  0.0815352720907987  0.9287110613809428  1.0000
  C   C132      1.0  0.6607595025702568  0.06349123064835747  0.9066479629016702  1.0000
  H   H85       1.0  0.6123201422346021  0.045176276450650886  0.854736672868551  1.0000
  H   H86       1.0  0.6142250010195819  0.07713391913259844  0.8933053236789524  1.0000
  H   H87       1.0  0.675803387017036  0.0918160904219865  0.9486371452762302  1.0000
  H   H88       1.0  0.6738673414090871  0.059807965968001434  0.9100712602646498  1.0000
  C   C133      1.0  0.08513055183645578  0.42345219609962953  0.22542223576267947  1.0000
  C   C134      1.0  0.06472309535934385  0.40837491239288165  0.23762074343917527  1.0000
  C   C135      1.0  0.055569483966853135  0.4114817014280728  0.27621559149954344  1.0000
  C   C136      1.0  0.0670743148398256  0.42938746866401795  0.3037192796314161  1.0000
  C   C137      1.0  0.0876808089079879  0.44426306543934524  0.2920056617802499  1.0000
  C   C138      1.0  0.09651032506783441  0.44156065837137237  0.25253344227732194  1.0000
  H   H89       1.0  0.055878355709025426  0.3942510491813121  0.2169835688255724  1.0000
  H   H90       1.0  0.039727379255437845  0.39987045588909736  0.28495438444607124  1.0000
  H   H91       1.0  0.09675401279242349  0.45807916918860464  0.3132969937096386  1.0000
  H   H92       1.0  0.11225380516716117  0.4532706278835287  0.2435652040167926  1.0000
  C   C139      1.0  0.09809807482418274  0.4352832980786921  0.9602728338701528  1.0000
  C   C140      1.0  0.08940812170790317  0.4348233347009861  0.9180000823660188  1.0000
  C   C141      1.0  0.06892759527373836  0.4188627010748055  0.9055812590324336  1.0000
  C   C142      1.0  0.057085211589495005  0.4030291791095052  0.9351185212403266  1.0000
  C   C143      1.0  0.0657618435208008  0.4035199026957119  0.9775114300636766  1.0000
  C   C144      1.0  0.08612414404142171  0.4197364595459321  0.9902632714750493  1.0000
  H   H93       1.0  0.09862246840109595  0.44672008835399585  0.8945546602907435  1.0000
  H   H94       1.0  0.06261696584287714  0.4184574143674575  0.872642915409898  1.0000
  H   H95       1.0  0.05677097393489775  0.3912912039858911  0.000520239507356246  1.0000
  H   H96       1.0  0.09269570347720618  0.4199527274143365  0.022954413783375704  1.0000
  C   C145      1.0  0.09565499348063332  0.6190181935820545  0.20036278891227446  1.0000
  C   C146      1.0  0.08677246358674781  0.6071700802945267  0.23802063389336917  1.0000
  C   C147      1.0  0.06842262344468653  0.6064766651018656  0.2563879144984891  1.0000
  C   C148      1.0  0.05912068667801877  0.6181332249659831  0.23794729891178393  1.0000
  C   C149      1.0  0.06788420706891848  0.6299152316327487  0.20005256634803167  1.0000
  C   C150      1.0  0.08595977359548876  0.6301522868308496  0.18092605698825556  1.0000
  H   H97       1.0  0.09421502296933978  0.5985743095199474  0.2533148847860548  1.0000
  H   H98       1.0  0.0618390935878789  0.5973785002431438  0.2856064244128102  1.0000
  H   H99       1.0  0.06075124290428583  0.6389641438531565  0.18560108240166204  1.0000
  H   H100      1.0  0.09264374644812387  0.6393024373677184  0.15184058309576529  1.0000
  C   C151      1.0  0.09037491176486626  0.6247697820285049  0.9347643807483529  1.0000
  C   C152      1.0  0.08586485646654832  0.6041432743455523  0.9456404588176565  1.0000
  C   C153      1.0  0.07133124467029178  0.5867246203253541  0.9193795268263815  1.0000
  C   C154      1.0  0.06081956237834192  0.5896685012215167  0.8824637905258426  1.0000
  C   C155      1.0  0.06480600129923406  0.610242863421435  0.8722411013115537  1.0000
  C   C156      1.0  0.0796254242126189  0.627730202865256  0.8982059944854964  1.0000
  H   H101      1.0  0.09371954105259894  0.6015932706651906  0.9740098785021  1.0000
  H   H102      1.0  0.0681873353640409  0.5708442170068613  0.9276964766333872  1.0000
  H   H103      1.0  0.05686252348937858  0.61271710554164  0.8437909471682605  1.0000
  H   H104      1.0  0.08298719626777552  0.6436383554922867  0.8895684997235808  1.0000
  C   C157      1.0  0.16100128842840897  0.5756281256320436  0.049453979308685725  1.0000
  C   C158      1.0  0.1659683932216536  0.5595580641322901  0.03558586339997351  1.0000
  C   C159      1.0  0.16334640291282096  0.5431249040099343  0.0641254033904487  1.0000
  C   C160      1.0  0.1558379360443571  0.5427683197031928  0.10679186385507171  1.0000
  C   C161      1.0  0.15094042467948773  0.5588705264857895  0.12056104150871991  1.0000
  C   C162      1.0  0.1533852817906201  0.5751588419378468  0.09198248590957826  1.0000
  H   H105      1.0  0.1721151955551717  0.5599632766000998  0.00292496494394312  1.0000
  H   H106      1.0  0.16748693033567885  0.5309673200355106  0.05349210884724788  1.0000
  H   H107      1.0  0.14522058649209893  0.558762912892384  0.1535717614341756  1.0000
  H   H108      1.0  0.14950469238278905  0.5874346263568135  0.10309908221022702  1.0000
  C   C163      1.0  0.22065420034652605  0.459005935508017  0.11817295711148625  1.0000
  C   C164      1.0  0.2318427086034855  0.44808055002264463  0.13192318739820386  1.0000
  C   C165      1.0  0.2535977440795469  0.45573941985262023  0.12278534443819639  1.0000
  C   C166      1.0  0.26448779513149673  0.47455384842282927  0.0999743872920658  1.0000
  C   C167      1.0  0.2532607682441032  0.4853698542831475  0.08588951855059426  1.0000
  C   C168      1.0  0.23149332734794872  0.47766538534573416  0.09485286363203516  1.0000
  H   H109      1.0  0.22365340570186484  0.4336293565755673  0.1499681800022784  1.0000
  H   H110      1.0  0.261961899060869  0.44721001111208597  0.1338193851725751  1.0000
  H   H111      1.0  0.26149233267121164  0.4999355783760209  0.06820988816101389  1.0000
  H   H112      1.0  0.22316833478119266  0.4862835876876103  0.08412462711288465  1.0000
  C   C169      1.0  0.4333088194064546  0.5756110076753951  0.06040667192923958  1.0000
  C   C170      1.0  0.41123387619211077  0.5632752186016107  0.05405558560213097  1.0000
  C   C171      1.0  0.40006728735789965  0.5447829740123933  0.07813679594614498  1.0000
  C   C172      1.0  0.4109980303119117  0.5385732812365214  0.10854056376777663  1.0000
  C   C173      1.0  0.43310186260439654  0.5506594209897501  0.11417687803852739  1.0000
  C   C174      1.0  0.44424116207615055  0.5690968557322638  0.09013438824718273  1.0000
  H   H113      1.0  0.40269189370857034  0.5682701043784026  0.0310890023095296  1.0000
  H   H114      1.0  0.3829864209283046  0.5356185813985506  0.07379043163317567  1.0000
  H   H115      1.0  0.44166249131008045  0.5456662645913687  0.13707409551607805  1.0000
  H   H116      1.0  0.46125490079880466  0.5783260294247592  0.09483497573849503  1.0000
  C   C175      1.0  0.525479108167285  0.889379266254935  0.20377706572923446  1.0000
  C   C176      1.0  0.5246698292908218  0.9060450892683156  0.22776260946943677  1.0000
  C   C177      1.0  0.5417835674062088  0.9196590738809771  0.2559714293882851  1.0000
  C   C178      1.0  0.5598783913720543  0.9167261243338741  0.26034736927712365  1.0000
  C   C179      1.0  0.560562228137625  0.8998925554532833  0.23671814188733772  1.0000
  C   C180      1.0  0.5434162301854493  0.8862323332694207  0.20860206769228362  1.0000
  H   H117      1.0  0.5108169764475139  0.9085194865541877  0.22429225963401075  1.0000
  H   H118      1.0  0.5410773214014122  0.9325237455102596  0.27400191848444805  1.0000
  H   H119      1.0  0.5744066055689729  0.8973835015421874  0.2403483021048634  1.0000
  H   H120      1.0  0.5439972906862705  0.8731612098642539  0.1910491998670664  1.0000
  C   C181      1.0  0.5510489452198506  0.8886391851527176  0.9542040947723182  1.0000
  C   C182      1.0  0.5681519712645043  0.9015343429973964  0.9277768341126609  1.0000
  C   C183      1.0  0.5672555566024703  0.9174195921455859  0.9019878878310941  1.0000
  C   C184      1.0  0.5492088263599108  0.9205180887537008  0.9025372506976247  1.0000
  C   C185      1.0  0.5321816330214661  0.9077028059241319  0.9291512171206181  1.0000
  C   C186      1.0  0.5330797977540167  0.8918547061187244  0.9548419031513495  1.0000
  H   H121      1.0  0.5821238270110083  0.8991555380921742  0.9269999139050782  1.0000
  H   H122      1.0  0.5804473037533591  0.9271480405395803  0.8815208314716623  1.0000
  H   H123      1.0  0.5181607766549109  0.9099764758900234  0.9297555376689459  1.0000
  H   H124      1.0  0.5197849803958319  0.8820291730923637  0.9747751548231292  1.0000
  C   C187      1.0  0.5142113277659893  0.7591307299875196  0.09815371975025614  1.0000
  C   C188      1.0  0.5186488001579665  0.7583151891738749  0.05342610304025697  1.0000
  C   C189      1.0  0.5199200575924887  0.7404979457711547  0.03557316412050815  1.0000
  C   C190      1.0  0.5167028979283752  0.7232271032286419  0.062012309074639144  1.0000
  C   C191      1.0  0.5120613936786048  0.7239505386443114  0.10662040647399584  1.0000
  C   C192      1.0  0.5109218731973497  0.7418316158532683  0.12454626333349161  1.0000
  H   H125      1.0  0.5214483846471158  0.771543200729036  0.03273345512934833  1.0000
  H   H126      1.0  0.5236235123749541  0.740189231202422  0.001084489010071854  1.0000
  H   H127      1.0  0.509676457602861  0.7108945758658372  0.1274922507452249  1.0000
  H   H128      1.0  0.5075539773818049  0.7422970269456121  0.15922231989860883  1.0000
  C   C193      1.0  0.35725826214297796  0.8837916176321922  0.2077511295330668  1.0000
  C   C194      1.0  0.355160502112697  0.8966848957596815  0.240998864336874  1.0000
  C   C195      1.0  0.37253467988228584  0.9097010415722044  0.269267013092009  1.0000
  C   C196      1.0  0.3921424763442485  0.9098161760092068  0.26471128494549767  1.0000
  C   C197      1.0  0.3941727704933173  0.8966669884577687  0.23200520397450647  1.0000
  C   C198      1.0  0.3768413931106159  0.8837823002356013  0.20349295344437496  1.0000
  H   H129      1.0  0.3399932066110073  0.896582061086104  0.24487168301361123  1.0000
  H   H130      1.0  0.3706368176511217  0.9193669237035508  0.2950338807875323  1.0000
  H   H131      1.0  0.40921631173706385  0.8964885065281999  0.22856130772422933  1.0000
  H   H132      1.0  0.3786209887734477  0.8738226073299258  0.17834016286501797  1.0000
  C   C199      1.0  0.37359838826698066  0.8846087002529568  0.9419478173827598  1.0000
  C   C200      1.0  0.3913144202616465  0.8997643669184694  0.9200635414332751  1.0000
  C   C201      1.0  0.38922902785106017  0.9139417373829544  0.8909762056791486  1.0000
  C   C202      1.0  0.36928879841516177  0.912857018093346  0.8828730672437757  1.0000
  C   C203      1.0  0.35154468482298507  0.8976945381663256  0.9046914361510952  1.0000
  C   C204      1.0  0.35370285627016546  0.8837327735133013  0.9344303535338643  1.0000
  H   H133      1.0  0.406743445998466  0.9005500753639465  0.9256675788294415  1.0000
  H   H134      1.0  0.40301432278552496  0.9255634853108281  0.8745087877437615  1.0000
  H   H135      1.0  0.33606496488289705  0.8967557360901208  0.8986732933709569  1.0000
  H   H136      1.0  0.3399314608430597  0.8720991211685926  0.9509761472604148  1.0000
  C   C205      1.0  0.2573440963949932  0.7579583172188178  0.04836814878942504  1.0000
  C   C206      1.0  0.2426095139231427  0.7419672476051486  0.01928828722745783  1.0000
  C   C207      1.0  0.2253118331074765  0.7236390828733719  0.03538799092662675  1.0000
  C   C208      1.0  0.22242084754753405  0.7210452647251148  0.08098998517521062  1.0000
  C   C209      1.0  0.237150417367493  0.7370366638684509  0.1100940357242684  1.0000
  C   C210      1.0  0.2544481070150839  0.7553553344649386  0.09400242240325625  1.0000
  H   H137      1.0  0.2445891092831546  0.7437629135750157  0.98393459031916  1.0000
  H   H138      1.0  0.214151958547484  0.7115997122004943  0.012472256104601115  1.0000
  H   H139      1.0  0.2350709268274775  0.7353370664078966  0.1454181622955652  1.0000
  H   H140      1.0  0.2653624521154712  0.7675718241623231  0.11692874540192628  1.0000
  C   C211      1.0  0.3897106665643284  0.7971249034141301  0.08989429272180356  1.0000
  C   C212      1.0  0.3893418147484238  0.7982736261925684  0.04376203423231002  1.0000
  C   C213      1.0  0.40657888187365265  0.7995313175027442  0.019536085463846567  1.0000
  C   C214      1.0  0.4246585858000188  0.8006550594524355  0.041420758726675236  1.0000
  C   C215      1.0  0.425054591775635  0.7996460232694992  0.08758514162309276  1.0000
  C   C216      1.0  0.4074113995593865  0.7973747306392255  0.1116408634358689  1.0000
  H   H141      1.0  0.3757648948890455  0.7981012514319239  0.0266642489771626  1.0000
  H   H142      1.0  0.40617938172904877  0.8003302716615766  0.9838136892586886  1.0000
  H   H143      1.0  0.43886200128428  0.8005476155833222  0.1049206794439057  1.0000
  H   H144      1.0  0.4077873380637588  0.796557800668744  0.14736349494522843  1.0000
  C   C217      1.0  0.4255786174928304  0.34505950953508774  0.25100134127190277  1.0000
  C   C218      1.0  0.43985895068856096  0.34367986543370477  0.2815474124195107  1.0000
  C   C219      1.0  0.4546495998010214  0.3370421594598779  0.26735606821435215  1.0000
  C   C220      1.0  0.455676407979929  0.3323164816171195  0.22245114028296636  1.0000
  C   C221      1.0  0.4411388190010606  0.33332820008251707  0.19198272144595607  1.0000
  C   C222      1.0  0.4260159091894671  0.33949815349204204  0.2063230137922474  1.0000
  H   H145      1.0  0.4393690112658555  0.34751607704083715  0.31617420433976595  1.0000
  H   H146      1.0  0.4655891177889165  0.3358789069798395  0.29116161843242777  1.0000
  H   H147      1.0  0.4417090958483837  0.32958724673614354  0.15731746813879208  1.0000
  H   H148      1.0  0.41490096370010926  0.3403095802498046  0.18251238663710662  1.0000
  C   C223      1.0  0.38502211226100685  0.4354718188329005  0.2814385204542  1.0000
  C   C224      1.0  0.36675276811169133  0.4158055477768172  0.282018891296046  1.0000
  C   C225      1.0  0.3499979517213364  0.4109231871952725  0.2509308990775784  1.0000
  C   C226      1.0  0.3515757945787861  0.4255111992608341  0.21872043373589808  1.0000
  C   C227      1.0  0.3697247385284132  0.44526683752754853  0.21862987101361  1.0000
  C   C228      1.0  0.38630669286602265  0.4502619964233184  0.2500343163711362  1.0000
  H   H149      1.0  0.36540316856061067  0.4045366245039628  0.3068681534091787  1.0000
  H   H150      1.0  0.33574842503581215  0.3958255199290205  0.2518082673630295  1.0000
  H   H151      1.0  0.3710049818368839  0.45673035910967685  0.19432714676861002  1.0000
  H   H152      1.0  0.40021170070951284  0.46559667763175594  0.24957700243785252  1.0000
  C   C229      1.0  0.5096209250350892  0.4991525645351508  0.4096805439117307  1.0000
  C   C230      1.0  0.49341515442128364  0.4838527129276629  0.43427730020700706  1.0000
  C   C231      1.0  0.48665169284194476  0.46224372152453336  0.4254501963877189  1.0000
  C   C232      1.0  0.4963938542340423  0.45596386628270946  0.3926661099285764  1.0000
  C   C233      1.0  0.5130193184276644  0.47127327950987213  0.36901506802288264  1.0000
  C   C234      1.0  0.5194279092518792  0.4928347962112975  0.37710401340320954  1.0000
  H   H153      1.0  0.4857040130761737  0.48862521057369623  0.4593988966878698  1.0000
  H   H154      1.0  0.4740632321872011  0.45043936108426247  0.44436309539403285  1.0000
  H   H155      1.0  0.5205913702656519  0.4665032998495427  0.3436036947801436  1.0000
  H   H156      1.0  0.5315949730895383  0.5044836051284531  0.35718982485974643  1.0000
  C   C235      1.0  0.5626532058325441  0.6126466466249204  0.2616313006597021  1.0000
  C   C236      1.0  0.5423582947475247  0.6036016545823064  0.2794711489112038  1.0000
  C   C237      1.0  0.5264592054040417  0.6079568144082526  0.2611979996645894  1.0000
  C   C238      1.0  0.530538846213726  0.6208428800433948  0.22421142209020478  1.0000
  C   C239      1.0  0.5506154997361318  0.6293095538085606  0.2055485714921234  1.0000
  C   C240      1.0  0.5666878797389334  0.6255027930093329  0.22463938229503838  1.0000
  H   H157      1.0  0.5391502230435226  0.5938585727719548  0.3082172744514753  1.0000
  H   H158      1.0  0.511034416702747  0.6015003553642543  0.2760522528056121  1.0000
  H   H159      1.0  0.5540010515560567  0.6394278540189258  0.17736795968231428  1.0000
  H   H160      1.0  0.5824074365144359  0.6328739940607339  0.21104846056032808  1.0000
  C   C241      1.0  0.6024371317456129  0.5241226789750745  0.23861329248323265  1.0000
  C   C242      1.0  0.6228802919240704  0.5400892185979691  0.250283104987528  1.0000
  C   C243      1.0  0.6399725369290985  0.5441233262612034  0.22238486350782938  1.0000
  C   C244      1.0  0.6367331736855331  0.5320877531100557  0.18299253244585956  1.0000
  C   C245      1.0  0.6161829167992128  0.5164932991756417  0.17101264208343556  1.0000
  C   C246      1.0  0.5991160505212709  0.512634113524246  0.19857341888664815  1.0000
  H   H161      1.0  0.6256348769099367  0.548927181926094  0.28131149567566704  1.0000
  H   H162      1.0  0.6558487187595504  0.5562241055587748  0.2318855328523361  1.0000
  H   H163      1.0  0.6134126185922206  0.5073244724623273  0.14055006166744125  1.0000
  H   H164      1.0  0.5832772723285099  0.5004845836446816  0.1890002908173333  1.0000
  C   C247      1.0  0.40391242811299327  0.386285918315011  0.5422160188588118  1.0000
  C   C248      1.0  0.3933229016117113  0.37590669436571583  0.5803117864552302  1.0000
  C   C249      1.0  0.3995347013770334  0.385935968042946  0.6225897050816913  1.0000
  C   C250      1.0  0.41636892677404974  0.40654328770872894  0.6271655158488596  1.0000
  C   C251      1.0  0.42678720063990044  0.417010504447237  0.5890403917004375  1.0000
  C   C252      1.0  0.42070856836819864  0.40691553962970733  0.5468352916714555  1.0000
  H   H165      1.0  0.380131386520087  0.3600552660131127  0.5769997356413342  1.0000
  H   H166      1.0  0.3910704424249305  0.3778866485893049  0.6515194786051233  1.0000
  H   H167      1.0  0.43973787502516626  0.4330003747322494  0.5921698562827087  1.0000
  H   H168      1.0  0.4289665555347765  0.41512952310331364  0.517878113232086  1.0000
  C   C253      1.0  0.43094144231726783  0.33656439965141044  0.8671569551801825  1.0000
  C   C254      1.0  0.443589457516887  0.32730484266705834  0.8811532363507891  1.0000
  C   C255      1.0  0.4431025751835236  0.3210652024945933  0.9252293695149789  1.0000
  C   C256      1.0  0.4293473133111599  0.3233569085280941  0.9549559332182606  1.0000
  C   C257      1.0  0.4164561388077767  0.33223961487270237  0.940646613314193  1.0000
  C   C258      1.0  0.41747500964946516  0.33911536624147354  0.8971184986026551  1.0000
  H   H169      1.0  0.45398934597281926  0.32524880491451774  0.8580173345128161  1.0000
  H   H170      1.0  0.4531603144011279  0.31428335226913773  0.9358949318038485  1.0000
  H   H171      1.0  0.4057202422287905  0.3339849236189207  0.9633786294736683  1.0000
  H   H172      1.0  0.4074607632481772  0.3459967408762124  0.8865073581222497  1.0000
  C   C259      1.0  0.3727174232603182  0.4126301210069816  0.9140471473813705  1.0000
  C   C260      1.0  0.37385533384946423  0.4291142368167978  0.8879156844164168  1.0000
  C   C261      1.0  0.3659578518856724  0.44274593020905506  0.90371720974284  1.0000
  C   C262      1.0  0.3574810863765697  0.44036457314346117  0.9461636215671794  1.0000
  C   C263      1.0  0.3569269250594721  0.4242939439646691  0.9727535084062292  1.0000
  C   C264      1.0  0.36423398042889094  0.41030840289750603  0.9564581986188666  1.0000
  H   H173      1.0  0.38010087403627  0.4308417447807225  0.8549884209566107  1.0000
  H   H174      1.0  0.3663876421895175  0.4551283932729366  0.8829195700990634  1.0000
  H   H175      1.0  0.35038358659949237  0.4222784005798824  0.005434705830838382  1.0000
  H   H176      1.0  0.3631380957141939  0.3974646550866134  0.9766358873977615  1.0000
  C   C265      1.0  0.5993156609813964  0.5904994700115563  0.6081535548166747  1.0000
  C   C266      1.0  0.596432942116595  0.599494769575911  0.569292909936678  1.0000
  C   C267      1.0  0.6003568759555977  0.5931033708446634  0.5275635517507691  1.0000
  C   C268      1.0  0.6079328410931952  0.5781962545350168  0.5245430033511074  1.0000
  C   C269      1.0  0.6110646784425625  0.569387186931395  0.5634775732756474  1.0000
  C   C270      1.0  0.6064526379431251  0.5752470713184311  0.6050687390241107  1.0000
  H   H177      1.0  0.5911162400144931  0.6114567835498025  0.5714319617560015  1.0000
  H   H178      1.0  0.5981567907649249  0.6002071133314029  0.4978690073109174  1.0000
  H   H179      1.0  0.6170904127476593  0.5579790854938134  0.561378469586028  1.0000
  H   H180      1.0  0.6089133636407997  0.5683495947933451  0.6347540651132587  1.0000
  C   C271      1.0  0.501519715664466  0.4573297281824876  0.8159492242482769  1.0000
  C   C272      1.0  0.49393364297293024  0.4550032436375583  0.7720947561674749  1.0000
  C   C273      1.0  0.5074601023530722  0.4671617343266571  0.7390223927166097  1.0000
  C   C274      1.0  0.5284740834217123  0.4819848962464341  0.7499581603459275  1.0000
  C   C275      1.0  0.5362981481811266  0.4837920387184986  0.7934780136420176  1.0000
  C   C276      1.0  0.5228502607751953  0.4713577850574439  0.8264436442872081  1.0000
  H   H181      1.0  0.47739697753445953  0.44459522052262973  0.7638346431798723  1.0000
  H   H182      1.0  0.5012998844855645  0.4658933038833022  0.7054885903260361  1.0000
  H   H183      1.0  0.552625137207845  0.49504252301040264  0.8019199119820359  1.0000
  H   H184      1.0  0.5288006046353064  0.4731819973554281  0.8603003030670926  1.0000
  C   C277      1.0  0.5372282016819779  0.5882489998622561  0.8807651837171778  1.0000
  C   C278      1.0  0.5583007861498823  0.6002587759575995  0.8960669742863951  1.0000
  C   C279      1.0  0.5630499847657027  0.6142822062542945  0.9328648273298445  1.0000
  C   C280      1.0  0.5467893936035391  0.6162908600111481  0.9548431982847633  1.0000
  C   C281      1.0  0.5256998829547402  0.6042870205475263  0.93957821319547  1.0000
  C   C282      1.0  0.5209608298361637  0.5903451398565228  0.9026028981986383  1.0000
  H   H185      1.0  0.570946508222621  0.5987422561159204  0.8795886007945304  1.0000
  H   H186      1.0  0.5793966434512289  0.6235101700026653  0.9444954605362026  1.0000
  H   H187      1.0  0.513056581367702  0.605760983238925  0.9561888967152238  1.0000
  H   H188      1.0  0.5046318225526243  0.5811646570426632  0.890879970857198  1.0000
  C   C283      1.0  0.6284203700546197  0.549087277876596  0.8721390396604337  1.0000
  C   C284      1.0  0.6182669689868541  0.5286454065482913  0.8528778823380398  1.0000
  C   C285      1.0  0.6211084958040641  0.5121712267915248  0.8717118712091064  1.0000
  C   C286      1.0  0.6335363152225134  0.5158016389496443  0.9106974480299438  1.0000
  C   C287      1.0  0.6432068554198221  0.5361110285044784  0.9306680435922419  1.0000
  C   C288      1.0  0.6409134362942672  0.5527545407295037  0.9110442488580068  1.0000
  H   H189      1.0  0.608646764925725  0.5256228520406124  0.8228672148315295  1.0000
  H   H190      1.0  0.613615208649594  0.4965278986811346  0.8560061108776447  1.0000
  H   H191      1.0  0.6529196366203994  0.5391353170692909  0.9605362950172188  1.0000
  H   H192      1.0  0.648835453737737  0.5685240694890856  0.9261056269798525  1.0000
  N   N1        1.0  0.45938672539124153  0.5004335404468456  0.32905644550495045  1.0000
  C   C289      1.0  0.452401669526833  0.4842421788334335  0.36345225727422026  1.0000
  C   C290      1.0  0.4628917877043861  0.5209322927380103  0.34909351869768557  1.0000
  C   C291      1.0  0.44280455755562226  0.493710190680273  0.29349153017866275  1.0000
  C   C292      1.0  0.4794531257964753  0.5028413760011016  0.3102887180223651  1.0000
  H   H193      1.0  0.45111843586920747  0.4689229144537743  0.35059501898731893  1.0000
  H   H194      1.0  0.4364618201358098  0.48076865298271265  0.375894273153631  1.0000
  H   H195      1.0  0.4636626461930915  0.4895542300972775  0.3923600136011959  1.0000
  H   H196      1.0  0.4681390634723019  0.5335508210108523  0.32414266780758894  1.0000
  H   H197      1.0  0.44809986104751304  0.5196045967068771  0.36396254122483396  1.0000
  H   H198      1.0  0.47547961201505357  0.5264550693013931  0.3759068905216557  1.0000
  H   H199      1.0  0.4472206493721661  0.5056735992595622  0.2672777404273213  1.0000
  H   H200      1.0  0.4272531197511112  0.49114157507714673  0.3067202997798538  1.0000
  H   H201      1.0  0.4400286318270185  0.47839236338712715  0.27748399070951757  1.0000
  H   H202      1.0  0.49249899134841973  0.508688518012917  0.33586807666368357  1.0000
  H   H203      1.0  0.48483500682927777  0.5144564440168696  0.28328691212360574  1.0000
  H   H204      1.0  0.47768970675848754  0.4874609279363344  0.2966938220491771  1.0000
  N   N2        1.0  0.28026440475947106  0.451856926904363  0.9656185411664643  1.0000
  C   C293      1.0  0.2659859871735166  0.4437733723207065  0.003477656605108681  1.0000
  C   C294      1.0  0.2682273100021101  0.4537843149563091  0.9271283938256132  1.0000
  C   C295      1.0  0.288811875439119  0.43706684537047047  0.9541406037321741  1.0000
  C   C296      1.0  0.29807806538117776  0.47291078152429894  0.9777473451391818  1.0000
  H   H205      1.0  0.2591956290917989  0.4545504949165076  0.012768820847772533  1.0000
  H   H206      1.0  0.2746316265544118  0.4426240289713204  0.03354217568673934  1.0000
  H   H207      1.0  0.25247326465806536  0.4277685203852968  0.9959814352497097  1.0000
  H   H208      1.0  0.2616662537533574  0.4649248755799536  0.9347803139007538  1.0000
  H   H209      1.0  0.27852788439361104  0.4598613438825941  0.8979771581969783  1.0000
  H   H210      1.0  0.2545833574775875  0.438182723448382  0.9171947631443147  1.0000
  H   H211      1.0  0.2999499527633874  0.4428901683741228  0.9261769391707495  1.0000
  H   H212      1.0  0.27588652165279154  0.42099367369885954  0.9445964103189729  1.0000
  H   H213      1.0  0.29801225407630333  0.4352678273788887  0.9824463081941234  1.0000
  H   H214      1.0  0.30936198371987106  0.47952036636934664  0.9502866963513327  1.0000
  H   H215      1.0  0.3073180977013322  0.4719372396728671  0.006810395474049047  1.0000
  H   H216      1.0  0.29229891289571497  0.4845048809829999  0.9871188567139828  1.0000
  N   N3        1.0  0.5581523954852549  0.6890112629695185  0.9417219112005155  1.0000
  C   C297      1.0  0.5409128889709919  0.6950373410169817  0.9373652465530504  1.0000
  C   C298      1.0  0.5629148019367611  0.6879862585642668  0.9891331771020515  1.0000
  C   C299      1.0  0.5774595453886705  0.7050162869670433  0.920743681705064  1.0000
  C   C300      1.0  0.5513417388299937  0.6680136789858159  0.9198399408809547  1.0000
  H   H217      1.0  0.5369710924444326  0.6962120994803865  0.9020987706097586  1.0000
  H   H218      1.0  0.5453042373961702  0.7105741217699345  0.9544880850453401  1.0000
  H   H219      1.0  0.5260754509623887  0.6832122318953616  0.952732382231007  1.0000
  H   H220      1.0  0.5678034616115513  0.7034229412985621  0.007070174985462918  1.0000
  H   H221      1.0  0.5487061345087284  0.6760115474902936  0.0056888331669491254  1.0000
  H   H222      1.0  0.5757082983772253  0.6832696599825232  0.9939488932584881  1.0000
  H   H223      1.0  0.5907546147060734  0.7009023033958173  0.9236614379019731  1.0000
  H   H224      1.0  0.583002011690875  0.7210174128665531  0.9366304857659233  1.0000
  H   H225      1.0  0.5744697669069406  0.7062205678981032  0.8848891059908072  1.0000
  H   H226      1.0  0.5369086985447178  0.655504244543731  0.9351982526125023  1.0000
  H   H227      1.0  0.5639103623728026  0.6628706658749716  0.9228740648490132  1.0000
  H   H228      1.0  0.5475400528444929  0.6680754502944022  0.8840128360209496  1.0000
  N   N4        1.0  0.4900512646457128  0.9314474334078847  0.8203422927514665  1.0000
  C   C301      1.0  0.5023588720903152  0.9467637665005509  0.8565017373195813  1.0000
  C   C302      1.0  0.46922845410891567  0.9158771993451391  0.8368643601152851  1.0000
  C   C303      1.0  0.5019426169354678  0.9203192091463754  0.804808663182812  1.0000
  C   C304      1.0  0.48667776887870884  0.9428981197302813  0.7832798956887166  1.0000
  H   H229      1.0  0.5181470916678355  0.9588847462368549  0.8451454583556404  1.0000
  H   H230      1.0  0.5055364750479238  0.9387487527298577  0.8847800926105363  1.0000
  H   H231      1.0  0.4937712562959248  0.9553076448713437  0.869337751170796  1.0000
  H   H232      1.0  0.4712444272883938  0.9069240300286854  0.8647814037971604  1.0000
  H   H233      1.0  0.4599647466753388  0.9238750333557759  0.8491184203658628  1.0000
  H   H234      1.0  0.4594179027297845  0.9041575795881227  0.8103742262829493  1.0000
  H   H235      1.0  0.49323485979596904  0.9086543335488733  0.7774429589267031  1.0000
  H   H236      1.0  0.5049269466825622  0.9116157538852276  0.8320436380560412  1.0000
  H   H237      1.0  0.5178304666838687  0.9317098720616456  0.7925551070576196  1.0000
  H   H238      1.0  0.47831553379767344  0.9320456035474375  0.7545182658028029  1.0000
  H   H239      1.0  0.5020909023283617  0.9556168067659918  0.7716694269412175  1.0000
  H   H240      1.0  0.47682386841738644  0.9505659645779274  0.7933957596154764  1.0000
  N   N5        1.0  0.8809218954790979  0.3897607951550716  0.18271114548773487  1.0000
  C   C305      1.0  0.8843064525286926  0.4108262157363602  0.16852815104690935  1.0000
  C   C306      1.0  0.885233371703895  0.39043607955985393  0.23090016762751214  1.0000
  C   C307      1.0  0.8954521181729528  0.38380868763323045  0.1588853126607128  1.0000
  C   C308      1.0  0.8586486936950444  0.37386968747800314  0.17242034211655707  1.0000
  H   H241      1.0  0.8812628748556084  0.4107314162953947  0.1322147439880498  1.0000
  H   H242      1.0  0.9009209193125628  0.4232603952428849  0.17603582195277087  1.0000
  H   H243      1.0  0.8734144169889008  0.41573454410117694  0.18540978393426175  1.0000
  H   H244      1.0  0.8746300613364784  0.39496835489058585  0.2499712379436847  1.0000
  H   H245      1.0  0.8825444698470223  0.37462134141092285  0.24238290935911755  1.0000
  H   H246      1.0  0.9020090464991916  0.402006537737366  0.23995556356970837  1.0000
  H   H247      1.0  0.8925422760969444  0.38300821450366757  0.12236688351691191  1.0000
  H   H248      1.0  0.8932861293975234  0.3679657255515683  0.16880853975372714  1.0000
  H   H249      1.0  0.9124173762003177  0.39538188170829625  0.16594660113518553  1.0000
  H   H250      1.0  0.8551340565253602  0.3721927251406745  0.1361496878617527  1.0000
  H   H251      1.0  0.8471564439075303  0.3782250478573051  0.1883221437815681  1.0000
  H   H252      1.0  0.8553135163365573  0.3579398123356815  0.18420682090764565  1.0000
  N   N6        1.0  0.4450738312438327  0.6016521523531665  0.20594612665995388  1.0000
  C   C309      1.0  0.4341529827418247  0.6009612972981663  0.16336168738659285  1.0000
  C   C310      1.0  0.4575232081471839  0.5899624724942658  0.20086860883869045  1.0000
  C   C311      1.0  0.4290794624187994  0.5916861404575154  0.24023834836328065  1.0000
  C   C312      1.0  0.45954380870097705  0.6239462914156699  0.2193713728574997  1.0000
  H   H253      1.0  0.42289735119021205  0.5843606393844967  0.15256364811804582  1.0000
  H   H254      1.0  0.4457057199936006  0.6079751252884285  0.13640758966254538  1.0000
  H   H255      1.0  0.42488381229045186  0.6099196052382767  0.16560162535928727  1.0000
  H   H256      1.0  0.4470169073804583  0.5727679900708992  0.19417342002302437  1.0000
  H   H257      1.0  0.46867566878581085  0.5960686076901761  0.17299104130204684  1.0000
  H   H258      1.0  0.46742024118076403  0.591637279339687  0.23112847264023306  1.0000
  H   H259      1.0  0.41945972640479623  0.6001747722531374  0.24510486398087492  1.0000
  H   H260      1.0  0.4367927975770771  0.5917732604694242  0.27268397149482493  1.0000
  H   H261      1.0  0.4178196566869204  0.5748576685134381  0.23091134844386754  1.0000
  H   H262      1.0  0.4682254119782139  0.6250597764331042  0.2511692432869886  1.0000
  H   H263      1.0  0.45083276703315084  0.6333882655213442  0.2232938655869367  1.0000
  H   H264      1.0  0.4719544968188798  0.6318069184368549  0.19447108176473327  1.0000
  N   N7        1.0  0.4510683329039259  0.7465130690316337  0.05104447139268823  1.0000
  C   C313      1.0  0.45081588544500956  0.7595633367023534  0.08937684171558144  1.0000
  C   C314      1.0  0.4548375536066556  0.7289857925385878  0.06679924582985966  1.0000
  C   C315      1.0  0.46828327903408057  0.759853834997707  0.021518409255785482  1.0000
  C   C316      1.0  0.4304351297536672  0.7378410468491623  0.026450362481197462  1.0000
  H   H265      1.0  0.4483136143052985  0.7730943674330042  0.07847492499367739  1.0000
  H   H266      1.0  0.4661600981704483  0.7663196650262505  0.10880558430098708  1.0000
  H   H267      1.0  0.43793239763293107  0.7501441823032292  0.11234449215071604  1.0000
  H   H268      1.0  0.4701590228846531  0.7351776811134122  0.08610325715397005  1.0000
  H   H269      1.0  0.44203851077694784  0.7184207477104824  0.08880009028607151  1.0000
  H   H270      1.0  0.4557357695059759  0.7191107878551048  0.03874602357171542  1.0000
  H   H271      1.0  0.4695814741822636  0.7504694203275519  0.9929971942254504  1.0000
  H   H272      1.0  0.48396072314636696  0.767315133572861  0.03957284710249286  1.0000
  H   H273      1.0  0.4655671851479043  0.7728596679559016  0.007929586615060602  1.0000
  H   H274      1.0  0.43015428226142777  0.7280668433977264  0.9970396768523094  1.0000
  H   H275      1.0  0.4272599581174364  0.7508485066958827  0.014372152041338267  1.0000
  H   H276      1.0  0.41702840880843195  0.727699690670537  0.04768830239052333  1.0000
  N   N8        1.0  0.40790276567783645  0.2493468683596063  0.9826878884222617  1.0000
  C   C317      1.0  0.3920125510682755  0.2538327786032555  0.9594337491150231  1.0000
  C   C318      1.0  0.4028919850252115  0.22695295674744487  0.9747187408914958  1.0000
  C   C319      1.0  0.407624810621837  0.25346199583417794  0.030717493558578335  1.0000
  C   C320      1.0  0.42924633579674887  0.26328343931165854  0.9660332708531633  1.0000
  H   H277      1.0  0.39562261268408316  0.2707383697269685  0.9649523237802764  1.0000
  H   H278      1.0  0.37569028809577065  0.24373271110759243  0.9713230661068322  1.0000
  H   H279      1.0  0.3918218508422633  0.2510074885659457  0.9230488753900122  1.0000
  H   H280      1.0  0.4147834422968033  0.22332540089402353  0.9920671216173594  1.0000
  H   H281      1.0  0.38691220639267576  0.21591508643415547  0.9869874593333451  1.0000
  H   H282      1.0  0.4031080520097452  0.2232972901769532  0.938825772564497  1.0000
  H   H283      1.0  0.4112536814573129  0.27022289118369347  0.03790024289716665  1.0000
  H   H284      1.0  0.4196596986675709  0.2505251972707814  0.04925720824356716  1.0000
  H   H285      1.0  0.39182240517593603  0.24311949157451118  0.044606712032813745  1.0000
  H   H286      1.0  0.433594453975942  0.28026139961021457  0.9720974987226344  1.0000
  H   H287      1.0  0.43006265253438114  0.26083031312332894  0.9298102397940907  1.0000
  H   H288      1.0  0.44167262842053834  0.26030680896400105  0.9827092500680935  1.0000
  N   N9        1.0  0.015355550648563311  0.4502743071593958  0.68640394095831  1.0000
  C   C321      1.0  0.01433076700219875  0.4705151385650997  0.6855484542387856  1.0000
  C   C322      1.0  0.02766547285333868  0.44888511332463815  0.6486752444816942  1.0000
  C   C323      1.0  0.9935437566120984  0.43237307063784874  0.6832769858969903  1.0000
  C   C324      1.0  0.025889433061921374  0.4492723097467925  0.7282449471675821  1.0000
  H   H289      1.0  0.006108655984841564  0.4716601753774001  0.6548373302606573  1.0000
  H   H290      1.0  0.030497203041509137  0.4843947907148142  0.6875483267891183  1.0000
  H   H291      1.0  0.00545109368084829  0.4721212298068496  0.7141145528410182  1.0000
  H   H292      1.0  0.019880990945137712  0.44885867675853763  0.6163844277140835  1.0000
  H   H293      1.0  0.044105153878589605  0.46231118336926996  0.6495400339249807  1.0000
  H   H294      1.0  0.02913957721823112  0.43400154903614513  0.6493426584769892  1.0000
  H   H295      1.0  0.9936978276668942  0.4168586944374104  0.6852043071407953  1.0000
  H   H296      1.0  0.9853153494450863  0.4321669910544224  0.6514778445311014  1.0000
  H   H297      1.0  0.9836491849475334  0.4331925295909576  0.7106709627249018  1.0000
  H   H298      1.0  0.027653320247646537  0.4345751607296049  0.7293149961257741  1.0000
  H   H299      1.0  0.016566893155404775  0.4492512179778991  0.7573655577305805  1.0000
  H   H300      1.0  0.04207150618040103  0.4629516285945519  0.732754676344774  1.0000
  N   N10       1.0  0.6166507208095002  0.46623355449067705  0.24062516079077875  1.0000
  C   C325      1.0  0.6091171738483122  0.46055316098173915  0.28612215634351873  1.0000
  C   C326      1.0  0.598752292245632  0.46402945273413515  0.21151280236400166  1.0000
  C   C327      1.0  0.6249424473141646  0.4519309480821921  0.22406099327346019  1.0000
  C   C328      1.0  0.6337423847191723  0.48843225596554557  0.24082360044183992  1.0000
  H   H301      1.0  0.6222082678813233  0.461958101376229  0.3089485085421909  1.0000
  H   H302      1.0  0.5960835549964515  0.44395401248687355  0.28703940013269447  1.0000
  H   H303      1.0  0.6028848490748955  0.4711844568355909  0.29965681974023856  1.0000
  H   H304      1.0  0.5864535396158934  0.44715532963009125  0.206996019147994  1.0000
  H   H305      1.0  0.5908793319219459  0.4731126412991915  0.22511123413162493  1.0000
  H   H306      1.0  0.6042555069808938  0.4699636706966654  0.17783982146365185  1.0000
  H   H307      1.0  0.630488814228237  0.45564441432823477  0.18963290062271446  1.0000
  H   H308      1.0  0.6124265530501735  0.4350462183339292  0.22302261320609681  1.0000
  H   H309      1.0  0.638602987115806  0.45324514223542667  0.24484023880171032  1.0000
  H   H310      1.0  0.6280266062574034  0.49962497375576753  0.2533551787776963  1.0000
  H   H311      1.0  0.6396563628951093  0.4933763616093251  0.2068871668198811  1.0000
  H   H312      1.0  0.6476482419088506  0.49072510321822005  0.26201995232182407  1.0000
  N   N11       1.0  0.10605614675622553  0.5024233641272723  0.9979683685665753  1.0000
  C   C329      1.0  0.1075688093810472  0.5117852774915223  0.04281447946199113  1.0000
  C   C330      1.0  0.09891300865805905  0.5133296208593081  0.9657975970360761  1.0000
  C   C331      1.0  0.09059016330290576  0.47959211357658876  0.9973216845487856  1.0000
  C   C332      1.0  0.12718124601434855  0.5050220613773593  0.9857225793359973  1.0000
  H   H313      1.0  0.11858757317870847  0.5291508485241291  0.04399238492593116  1.0000
  H   H314      1.0  0.11381488871256774  0.5045873557893461  0.06773417229273382  1.0000
  H   H315      1.0  0.0918163558710418  0.5094732926141973  0.053967875627639605  1.0000
  H   H316      1.0  0.09771578992077481  0.5066707694024258  0.9316069051921778  1.0000
  H   H317      1.0  0.08294767503559747  0.5115672685513384  0.97392134869368  1.0000
  H   H318      1.0  0.11018945795485409  0.530613165249862  0.9655172171700832  1.0000
  H   H319      1.0  0.08902943089694829  0.47210678652545657  0.9638460920992078  1.0000
  H   H320      1.0  0.07449231073473858  0.4768831903328016  0.0068927965171377  1.0000
  H   H321      1.0  0.09567387717319781  0.47071571984181293  0.020361158382043554  1.0000
  H   H322      1.0  0.12647324281074818  0.49718541811805517  0.9530509134568593  1.0000
  H   H323      1.0  0.13346323004129598  0.49773353957450867  0.010375378343622899  1.0000
  H   H324      1.0  0.13905460504458556  0.522016825145953  0.9838798953977976  1.0000
  N   N12       1.0  0.41521638878383954  0.49712655162778036  0.0032724454867516513  1.0000
  C   C333      1.0  0.43263069654940806  0.5102745574493127  0.9738891252302054  1.0000
  C   C334      1.0  0.39785941875483977  0.5029632668794962  0.9987740607903883  1.0000
  C   C335      1.0  0.42332933639901776  0.5008466390819486  0.04965889385278465  1.0000
  C   C336      1.0  0.40702377433495973  0.474458899965834  0.9907732703363717  1.0000
  H   H325      1.0  0.4460115079490573  0.506288667557542  0.9763831718924172  1.0000
  H   H326      1.0  0.43914353623728286  0.5274965713200396  0.9825803915854409  1.0000
  H   H327      1.0  0.4269659957936508  0.5079001147122849  0.9386499402601783  1.0000
  H   H328      1.0  0.38471017650513323  0.49373872754371384  0.021323012894529203  1.0000
  H   H329      1.0  0.4035324935665936  0.5200792623235696  0.006957071920395296  1.0000
  H   H330      1.0  0.3907852629632448  0.49964088767117426  0.9645440051097062  1.0000
  H   H331      1.0  0.4104218719995832  0.49182240105274444  0.07300566643406202  1.0000
  H   H332      1.0  0.43016457150376786  0.5178869537225458  0.059685654264309385  1.0000
  H   H333      1.0  0.4360055287186853  0.4960298989247066  0.05469381582963786  1.0000
  H   H334      1.0  0.39340345456024434  0.4641526343119104  0.011455645135778505  1.0000
  H   H335      1.0  0.4194728426702621  0.46924466022337924  0.9946609857670989  1.0000
  H   H336      1.0  0.4011992601743093  0.47118917003020844  0.9556612802162697  1.0000
  N   N13       1.0  0.8242960068875004  0.4182522023379523  0.9295564474739202  1.0000
  C   C337      1.0  0.8044887015242969  0.418420538449265  0.9433339263610518  1.0000
  C   C338      1.0  0.8428080036036091  0.4380967812232541  0.9455858013525519  1.0000
  C   C339      1.0  0.8244624044217227  0.4167504690873677  0.8807322701019532  1.0000
  C   C340      1.0  0.8254226096495562  0.3998113275425582  0.9485826090565027  1.0000
  H   H337      1.0  0.8031591156383492  0.4322027485186632  0.9298097965809267  1.0000
  H   H338      1.0  0.8039658312101758  0.4196271269038269  0.9801376408803458  1.0000
  H   H339      1.0  0.7901256377166884  0.40368047962485415  0.9320376851323225  1.0000
  H   H340      1.0  0.842319713746529  0.4406245867854326  0.981848662196645  1.0000
  H   H341      1.0  0.8581396968574608  0.43809263479403693  0.9386970678006491  1.0000
  H   H342      1.0  0.8431659708796695  0.452189769929319  0.9295243257070993  1.0000
  H   H343      1.0  0.8106640814179567  0.4020120367296558  0.8673560876135409  1.0000
  H   H344      1.0  0.8392518942299706  0.4166244176631914  0.8694520054784772  1.0000
  H   H345      1.0  0.8237111344415111  0.43048973716809075  0.8653336819594365  1.0000
  H   H346      1.0  0.8406496841456474  0.3996692271134953  0.9410135075937397  1.0000
  H   H347      1.0  0.8121268880580804  0.3845382860187025  0.9359175774114417  1.0000
  H   H348      1.0  0.8243262684815851  0.39994821720200946  0.9851577283024043  1.0000
  N   N14       1.0  0.15920541569102703  0.6860606761456034  0.2158263360450526  1.0000
  C   C341      1.0  0.1675427769677315  0.7039475608287807  0.18524016455572956  1.0000
  C   C342      1.0  0.1356734201788519  0.6752274895673509  0.21328929303092395  1.0000
  C   C343      1.0  0.16659395476208771  0.694108728489403  0.261584258341574  1.0000
  C   C344      1.0  0.16702583148560005  0.6708615134454003  0.2031048299216118  1.0000
  H   H349      1.0  0.18528054130921698  0.7122824518546946  0.1858168022706068  1.0000
  H   H350      1.0  0.1620042562655475  0.7157967574995266  0.19362115187372025  1.0000
  H   H351      1.0  0.16238059571788066  0.6983755360256835  0.15033536160918445  1.0000
  H   H352      1.0  0.12886534824132367  0.6614586810444487  0.23556789776473822  1.0000
  H   H353      1.0  0.12906052375554267  0.6861065178832185  0.22262374648974037  1.0000
  H   H354      1.0  0.12958969283344063  0.6688110686133685  0.17922053092051105  1.0000
  H   H355      1.0  0.16055700557593436  0.6809292539620749  0.28534552932274526  1.0000
  H   H356      1.0  0.160964412676647  0.7056304999337137  0.2722968944052048  1.0000
  H   H357      1.0  0.18429456552461185  0.7022809912739122  0.264573674688425  1.0000
  H   H358      1.0  0.18473222030688405  0.6784518166582147  0.20363619175296316  1.0000
  H   H359      1.0  0.16150826418723785  0.6644440814140857  0.1689985053043974  1.0000
  H   H360      1.0  0.16099044684389122  0.6569997761586127  0.22512851989439883  1.0000
  N   N15       1.0  0.6544129872012281  0.0536405953614667  0.3913824168511593  1.0000
  C   C345      1.0  0.660789539152322  0.038549773469692905  0.411228690314142  1.0000
  C   C346      1.0  0.6542349530001471  0.05170455723502432  0.3425509059709434  1.0000
  C   C347      1.0  0.6696454273527344  0.07551886594097912  0.4059774407889152  1.0000
  C   C348      1.0  0.6328867122862161  0.04877002710748357  0.40580292836318693  1.0000
  H   H361      1.0  0.6608825604648064  0.03943300449361531  0.4481067215975222  1.0000
  H   H362      1.0  0.6769237519716688  0.04161586111143656  0.40105189086318627  1.0000
  H   H363      1.0  0.6495021510383909  0.02184286808536018  0.4012902496931304  1.0000
  H   H364      1.0  0.6491652992186555  0.06265654360848516  0.3265217172399748  1.0000
  H   H365      1.0  0.6702079338232  0.05535523816095145  0.3301879184073988  1.0000
  H   H366      1.0  0.6428765558530313  0.03536578795233236  0.33048554616095394  1.0000
  H   H367      1.0  0.6700584308706752  0.07750173430039564  0.44268407820904415  1.0000
  H   H368      1.0  0.665256062752038  0.08726838214370813  0.3914951506505698  1.0000
  H   H369      1.0  0.6860810931863898  0.07972205454101178  0.3956751924233552  1.0000
  H   H370      1.0  0.6210485939456699  0.032594528011829604  0.3943194681812404  1.0000
  H   H371      1.0  0.6275011400393198  0.05988564059997037  0.39180615477113073  1.0000
  H   H372      1.0  0.6321169967448552  0.04936256760114799  0.442546029923856  1.0000
  N   N16       1.0  0.659053222309016  0.6030471452009232  0.7338178578930885  1.0000
  C   C349      1.0  0.6689720135513444  0.6141437153925458  0.6930503284398006  1.0000
  C   C350      1.0  0.6408933027889677  0.6069347300381652  0.7441288945974647  1.0000
  C   C351      1.0  0.6747334521273411  0.6110297264662375  0.7712414014802481  1.0000
  C   C352      1.0  0.6514688565646749  0.5800170884756896  0.7270017291195535  1.0000
  H   H373      1.0  0.682606823778683  0.6113913711172023  0.6838144218305892  1.0000
  H   H374      1.0  0.6749568178384111  0.631576616616905  0.6971272320323795  1.0000
  H   H375      1.0  0.6572846966514089  0.6085746393386869  0.6645183013912581  1.0000
  H   H376      1.0  0.6333559065913075  0.5991565532791926  0.7752192592985762  1.0000
  H   H377      1.0  0.6458683361464912  0.624155001405063  0.7487073324478909  1.0000
  H   H378      1.0  0.6284550649373807  0.6007022336655631  0.7171500269466137  1.0000
  H   H379      1.0  0.6675300923403235  0.6027562564413905  0.802341783214221  1.0000
  H   H380      1.0  0.6806041020834905  0.6283038056929355  0.7778142268501945  1.0000
  H   H381      1.0  0.6887247950179755  0.6084234157750663  0.7647575895662627  1.0000
  H   H382      1.0  0.6648118456960517  0.5764413230896408  0.7200411631695459  1.0000
  H   H383      1.0  0.6398070557792432  0.5734847837679317  0.6986338393757048  1.0000
  H   H384      1.0  0.643481459545369  0.5711154020956786  0.7569267666047688  1.0000
  N   N17       1.0  0.36818328939899064  0.3698142814931227  0.19140566770390738  1.0000
  C   C353      1.0  0.35418994078000565  0.37503614942690666  0.16301122269243395  1.0000
  C   C354      1.0  0.35746990475269896  0.3608159245252206  0.2331217673948919  1.0000
  C   C355      1.0  0.3883318252032106  0.3892701933394077  0.20161655159596417  1.0000
  C   C356      1.0  0.3727772059815581  0.35409008143628423  0.16787205805667757  1.0000
  H   H385      1.0  0.36175879742304035  0.3818282582048224  0.13121668111323453  1.0000
  H   H386      1.0  0.35046067325567715  0.3869638597641306  0.17942485254998902  1.0000
  H   H387      1.0  0.3387374303519239  0.360786553917603  0.15499622045954736  1.0000
  H   H388      1.0  0.367632984174314  0.3566961543582591  0.2552724622715024  1.0000
  H   H389      1.0  0.3538678009106033  0.3722564329187406  0.25193251634941893  1.0000
  H   H390      1.0  0.3421956895398808  0.3461202131307203  0.22683258486995972  1.0000
  H   H391      1.0  0.3970410192135448  0.39631958026634856  0.17103544577181065  1.0000
  H   H392      1.0  0.3990758144933841  0.3859426093890231  0.2237197156052916  1.0000
  H   H393      1.0  0.38543004164112166  0.40159146563138726  0.21879089896891016  1.0000
  H   H394      1.0  0.3832147761592482  0.3497069665847735  0.18842862339655875  1.0000
  H   H395      1.0  0.3810072216447801  0.3603474242906003  0.13636966456171357  1.0000
  H   H396      1.0  0.35793055337653157  0.33919338124683335  0.15972034566185117  1.0000
  N   N18       1.0  0.9858406589843169  0.6242629541603342  0.6940727589695082  1.0000
  C   C357      1.0  0.006814455729787117  0.6323551763904768  0.7171364902263183  1.0000
  C   C358      1.0  0.97444046848879  0.6355010572955854  0.7117307181014102  1.0000
  C   C359      1.0  0.9731915732400623  0.6013157594142926  0.7014262023608792  1.0000
  C   C360      1.0  0.9889151644654768  0.6277855385937753  0.6460624123852925  1.0000
  H   H397      1.0  0.005118976474569159  0.6298744117084822  0.7534405340135008  1.0000
  H   H398      1.0  0.01687985881934706  0.6496115233553738  0.7121601445977801  1.0000
  H   H399      1.0  0.01579926508612073  0.6241071019923701  0.704695963911291  1.0000
  H   H400      1.0  0.9585797850505197  0.6298145974166754  0.6948865212791372  1.0000
  H   H401      1.0  0.9717108418547203  0.6328855839021671  0.7478344206600127  1.0000
  H   H402      1.0  0.9836004312590686  0.6529111240610127  0.7071638647960686  1.0000
  H   H403      1.0  0.9571484464543542  0.5946278203142394  0.685001529939881  1.0000
  H   H404      1.0  0.970862072824235  0.5979100130650387  0.7373814849703428  1.0000
  H   H405      1.0  0.9812282841484941  0.5924295968579633  0.6877006904609899  1.0000
  H   H406      1.0  0.9734345019406634  0.6214058191252609  0.6273504442566195  1.0000
  H   H407      1.0  0.9977833745346281  0.6197306129212728  0.6320022956241178  1.0000
  H   H408      1.0  0.9982065228473573  0.6449463920174068  0.639099576202685  1.0000
  N   N19       1.0  0.15031789681009955  0.4150234886323361  0.2350803434318946  1.0000
  C   C361      1.0  0.17254898694244927  0.4321461184895588  0.23850744730006304  1.0000
  C   C362      1.0  0.13619270433221659  0.42204807165987657  0.25732803992542796  1.0000
  C   C363      1.0  0.14877866478604848  0.3958605558824734  0.2562856516084499  1.0000
  C   C364      1.0  0.14371165074305356  0.4100449253747782  0.18792225568741372  1.0000
  H   H409      1.0  0.18359124749442238  0.4275297212670382  0.22126796549182295  1.0000
  H   H410      1.0  0.17821842221655246  0.4363742127743062  0.2735682227271761  1.0000
  H   H411      1.0  0.17425246487164459  0.44682039939717905  0.2225905389106132  1.0000
  H   H412      1.0  0.11922696866467111  0.4096102399233113  0.2547870830706453  1.0000
  H   H413      1.0  0.1405995494676963  0.42598075843938715  0.2930317997030957  1.0000
  H   H414      1.0  0.1368879092094906  0.43640069500132317  0.2418249317665887  1.0000
  H   H415      1.0  0.13217935877532555  0.3826654458513569  0.25400035204016636  1.0000
  H   H416      1.0  0.15361531662004227  0.39903278324745256  0.29198010643501293  1.0000
  H   H417      1.0  0.15923124953549184  0.3901671569873278  0.2401003026096976  1.0000
  H   H418      1.0  0.14474859720075556  0.42421132686375196  0.17133593745705664  1.0000
  H   H419      1.0  0.1269058994802612  0.3974120392379425  0.18369768285162405  1.0000
  H   H420      1.0  0.15413130412386655  0.40496570494577633  0.16961966872378878  1.0000
  N   N20       1.0  0.30834068746394194  0.7426749689637292  0.07815087703155339  1.0000
  C   C365      1.0  0.28707081975052534  0.7262089721679236  0.062495154869424564  1.0000
  C   C366      1.0  0.3202375877838868  0.7326104472446267  0.09890051517138311  1.0000
  C   C367      1.0  0.3059358273372909  0.7569394818378334  0.11103991632011323  1.0000
  C   C368      1.0  0.320198274027112  0.7551225354745685  0.040221428619423384  1.0000
  H   H421      1.0  0.2780250310717042  0.7334144275265542  0.04568125710154779  1.0000
  H   H422      1.0  0.2772989233732811  0.716965670078561  0.09037463279885652  1.0000
  H   H423      1.0  0.2882260762673735  0.7148720695926001  0.038281078718950735  1.0000
  H   H424      1.0  0.33637770706856707  0.7447924687625139  0.11090922076484065  1.0000
  H   H425      1.0  0.31178550749556333  0.7232409634857696  0.12788119088281946  1.0000
  H   H426      1.0  0.3224239731172444  0.7217459493864923  0.07506608575324451  1.0000
  H   H427      1.0  0.32167214797792554  0.7689982951179481  0.12496219090022526  1.0000
  H   H428      1.0  0.2961232102024742  0.7480674689252536  0.13916465611903345  1.0000
  H   H429      1.0  0.29807012926128773  0.7656656701491945  0.09581584648323378  1.0000
  H   H430      1.0  0.3224246900488992  0.7449610742523002  0.014668512465916859  1.0000
  H   H431      1.0  0.3362605962922601  0.7678292868930182  0.050992629818802336  1.0000
  H   H432      1.0  0.31159301708384507  0.7629406619660876  0.023848069524940386  1.0000
  N   N21       1.0  0.6044731760836765  0.5823250691310798  0.18814504208231414  1.0000
  C   C369      1.0  0.6005462445065065  0.5987589544819567  0.16691921664353887  1.0000
  C   C370      1.0  0.5845406818694538  0.5663534211412348  0.20725291258807402  1.0000
  C   C371      1.0  0.620972630583177  0.5923125510945846  0.2237015388017595  1.0000
  C   C372      1.0  0.6117940249374079  0.5718872868807928  0.15484005375337798  1.0000
  H   H433      1.0  0.5879615344919119  0.59179874281634  0.14031391722386227  1.0000
  H   H434      1.0  0.615199387653801  0.6110828186336694  0.15196541662630114  1.0000
  H   H435      1.0  0.5951550415007754  0.6069797547907877  0.19145340061340058  1.0000
  H   H436      1.0  0.587018191069779  0.5540730637270928  0.22479699788718  1.0000
  H   H437      1.0  0.5783095472961336  0.5737759453153329  0.23172052772731935  1.0000
  H   H438      1.0  0.5718617434942765  0.5581103530665044  0.18132327508748738  1.0000
  H   H439      1.0  0.6159686207293998  0.600364938233529  0.249392968464791  1.0000
  H   H440      1.0  0.636253212492599  0.6044464335571016  0.2105345573215368  1.0000
  H   H441      1.0  0.6242167865117044  0.5803700829096469  0.24074129446561326  1.0000
  H   H442      1.0  0.6269831741222369  0.5833902232838546  0.14013892030569244  1.0000
  H   H443      1.0  0.5998232885569253  0.5643245369480187  0.12729310368066782  1.0000
  H   H444      1.0  0.6146368406646914  0.5592310346347138  0.16976684158865427  1.0000
  N   N22       1.0  0.43591754432261226  0.8667029985229251  0.07408942745535302  1.0000
  C   C373      1.0  0.4410669693026278  0.8548479399725349  0.03987774852970944  1.0000
  C   C374      1.0  0.4556228756737387  0.8814093874525216  0.09884968772444386  1.0000
  C   C375      1.0  0.42067321754988873  0.8516729884195379  0.10499659715019416  1.0000
  C   C376      1.0  0.42622144937151424  0.878752814482106  0.05261094685108228  1.0000
  H   H445      1.0  0.45265030313847954  0.8656550788196794  0.016093476368733862  1.0000
  H   H446      1.0  0.42658042355951453  0.8436863058455244  0.02034612260210747  1.0000
  H   H447      1.0  0.44818555952942385  0.8453480054494602  0.05486933217684825  1.0000
  H   H448      1.0  0.45233958473408975  0.890559138186828  0.12510304514601656  1.0000
  H   H449      1.0  0.46326775384528013  0.8726727631375751  0.11534877260190596  1.0000
  H   H450      1.0  0.4675374005509874  0.8929560090125936  0.07656482674702916  1.0000
  H   H451      1.0  0.41636324106594036  0.8600033023405739  0.1313123584930399  1.0000
  H   H452      1.0  0.42729369848464505  0.8421180272539905  0.12160941093158427  1.0000
  H   H453      1.0  0.40559340508564645  0.8404228128674234  0.08739627952422953  1.0000
  H   H454      1.0  0.4217751942350942  0.8876632058041499  0.07734389920114786  1.0000
  H   H455      1.0  0.4113538744456208  0.8679721893128798  0.03353358875798528  1.0000
  H   H456      1.0  0.4371556497282141  0.890286632467079  0.02892772181454327  1.0000
  N   N23       1.0  0.9908134730429567  0.5203112766524502  0.493239217453588  1.0000
  C   C377      1.0  0.005249424744955548  0.5407422907093566  0.47367630540747335  1.0000
  C   C378      1.0  0.9797070356558271  0.5242032259139707  0.5304357700573068  1.0000
  C   C379      1.0  0.003362171231724442  0.5099850002298429  0.5094144335699536  1.0000
  C   C380      1.0  0.9749726285894089  0.5063848561095293  0.4592863063504717  1.0000
  H   H457      1.0  0.014144380795251215  0.5385168410051449  0.4459535488935988  1.0000
  H   H458      1.0  0.01716630507020007  0.5518613289213891  0.49849191727523373  1.0000
  H   H459      1.0  0.9963002288568966  0.5487493211819645  0.46016946808913345  1.0000
  H   H460      1.0  0.9696545925788519  0.5314373534234663  0.5187236250559197  1.0000
  H   H461      1.0  0.9690976478359589  0.5092333972471159  0.5469336558852879  1.0000
  H   H462      1.0  0.9911748478866779  0.535343392602694  0.555960207745763  1.0000
  H   H463      1.0  0.9929776509215882  0.49438882858850297  0.5239845847570535  1.0000
  H   H464      1.0  0.015424284982871897  0.5200678706321454  0.5351704824799035  1.0000
  H   H465      1.0  0.012020787506257031  0.5070504275130596  0.4819217859497257  1.0000
  H   H466      1.0  0.9640096472586727  0.4906602129345888  0.4725968766392231  1.0000
  H   H467      1.0  0.9828121434907022  0.5034355741041872  0.4303506384047682  1.0000
  H   H468      1.0  0.9650703841341209  0.5136120759667497  0.44662624827768505  1.0000
  N   N24       1.0  0.37406093970344  0.9547021534016064  0.17679278730174963  1.0000
  C   C381      1.0  0.3721169032781226  0.9540016244948147  0.22542628949972515  1.0000
  C   C382      1.0  0.37276670060322137  0.9345374974367529  0.15967845388490962  1.0000
  C   C383      1.0  0.39474979255733134  0.9725664053459555  0.1655291485373995  1.0000
  C   C384      1.0  0.3566012806308805  0.9577503864924882  0.15664838622442312  1.0000
  H   H469      1.0  0.3569628880523302  0.9403853967252505  0.23534685848356277  1.0000
  H   H470      1.0  0.37251107215557827  0.9687693221415269  0.23936252660420526  1.0000
  H   H471      1.0  0.38544091603829966  0.9524008257319225  0.24181364209764125  1.0000
  H   H472      1.0  0.37483952473777693  0.9346994240734804  0.12324546954130168  1.0000
  H   H473      1.0  0.38515165761917686  0.9312515163913512  0.17559025284228336  1.0000
  H   H474      1.0  0.3570182467917132  0.9207984587906054  0.16617122318099287  1.0000
  H   H475      1.0  0.4082682277500532  0.9711131490119055  0.18135636395761456  1.0000
  H   H476      1.0  0.3960301001918337  0.988045732649691  0.17729255022087925  1.0000
  H   H477      1.0  0.3969946441764193  0.9734319314333796  0.12914013684456438  1.0000
  H   H478      1.0  0.3575434399768169  0.95831471116355  0.11991548122991509  1.0000
  H   H479      1.0  0.3571558463687818  0.9728610449940762  0.1688703570878771  1.0000
  H   H480      1.0  0.3407547352865319  0.9445779467504144  0.1647200851243697  1.0000
  N   N25       1.0  0.05104598608781765  0.48458977400452435  0.2833939387950362  1.0000
  C   C385      1.0  0.07070591729053588  0.48235141949881827  0.284494288234498  1.0000
  C   C386      1.0  0.034418028250643856  0.467152601474845  0.3079188691230176  1.0000
  C   C387      1.0  0.0436589283019689  0.4835225493930262  0.23694918588986855  1.0000
  C   C388      1.0  0.05536463028127861  0.5052158949511327  0.30405767922527704  1.0000
  H   H481      1.0  0.08398021327893186  0.4956502624016672  0.26794549189391026  1.0000
  H   H482      1.0  0.06809236563692123  0.4673572864811439  0.2673010639915443  1.0000
  H   H483      1.0  0.0760506806248211  0.4818338623674358  0.3191471067814766  1.0000
  H   H484      1.0  0.019135638663176205  0.4679662698074536  0.3071743097273282  1.0000
  H   H485      1.0  0.03126349740096651  0.45139344601912984  0.2937515877391816  1.0000
  H   H486      1.0  0.0393014093044843  0.46752774822212795  0.34330054478397043  1.0000
  H   H487      1.0  0.028801682700302794  0.48513765144279414  0.23500775309468364  1.0000
  H   H488      1.0  0.04017643041151976  0.46808020314426674  0.22048468089565376  1.0000
  H   H489      1.0  0.055883448332471296  0.49639890123400215  0.2174190000825849  1.0000
  H   H490      1.0  0.04108448364546766  0.5077853023258805  0.3019526014921656  1.0000
  H   H491      1.0  0.06842282243119979  0.5187229608016742  0.2875249395233809  1.0000
  H   H492      1.0  0.060021171301180995  0.5062299940596405  0.3397437690662313  1.0000
  N   N26       1.0  0.9916724631149415  0.5817355648192284  0.1617252856515843  1.0000
  C   C389      1.0  0.9739407488956061  0.5666576526144601  0.13250803163755964  1.0000
  C   C390      1.0  0.006715941482714483  0.5731711287842516  0.17037356448261115  1.0000
  C   C391      1.0  0.9830907299036962  0.5846536306844797  0.20398508674470348  1.0000
  C   C392      1.0  0.002939910797264318  0.6024290207975966  0.1403703164385475  1.0000
  H   H493      1.0  0.9620499785257296  0.5724037566844827  0.12582143728310413  1.0000
  H   H494      1.0  0.9652691699701664  0.5509004869407284  0.1479898858291724  1.0000
  H   H495      1.0  0.9797436755251892  0.564102278196203  0.10013701619187287  1.0000
  H   H496      1.0  0.013934125516663554  0.5712411881555849  0.1393722894322827  1.0000
  H   H497      1.0  0.019996142907985473  0.5838931752390193  0.193340265670049  1.0000
  H   H498      1.0  0.9986206492697227  0.5573664711290355  0.18583801625019974  1.0000
  H   H499      1.0  0.9957455604543951  0.5968977843068287  0.22585716439043557  1.0000
  H   H500      1.0  0.9759609051332692  0.5697202568033082  0.22253037478387427  1.0000
  H   H501      1.0  0.9705720175345973  0.589677831896657  0.19872281377333  1.0000
  H   H502      1.0  0.01648384972672571  0.613987576922534  0.16187055062170883  1.0000
  H   H503      1.0  0.9921274041716094  0.6094836726061313  0.13388590241856194  1.0000
  H   H504      1.0  0.009611860829396997  0.6008816051059955  0.10826025813335152  1.0000
  N   N27       1.0  0.5746880549092002  0.9135688627970449  0.09210183504469664  1.0000
  C   C393      1.0  0.5855031772445816  0.9236592565180753  0.05118174150819785  1.0000
  C   C394      1.0  0.551387490442323  0.9039442867314632  0.08458539725812207  1.0000
  C   C395      1.0  0.5812717194625857  0.9297038575627697  0.12851729466561673  1.0000
  C   C396      1.0  0.5805598286233427  0.89690269796054  0.10406194244641612  1.0000
  H   H505      1.0  0.6031167122491552  0.9315967306883108  0.05595652481412529  1.0000
  H   H506      1.0  0.5807526554759654  0.935663757933904  0.03985942542133706  1.0000
  H   H507      1.0  0.5814442861415844  0.911715759077242  0.023576945886621604  1.0000
  H   H508      1.0  0.5462862309544742  0.916024472732438  0.07593037126699691  1.0000
  H   H509      1.0  0.5459136910503298  0.8918875726223165  0.057021049400468905  1.0000
  H   H510      1.0  0.5427012454711446  0.8958245187378386  0.11448432818091482  1.0000
  H   H511      1.0  0.5730348469831622  0.9226661761856211  0.1596067518242683  1.0000
  H   H512      1.0  0.5773892686135641  0.9426919186813155  0.12033915136351779  1.0000
  H   H513      1.0  0.5986823228829311  0.9369227696715549  0.1360318178206138  1.0000
  H   H514      1.0  0.57272247502967  0.8889324108447064  0.13482530751543445  1.0000
  H   H515      1.0  0.5980390675537972  0.9035376945348623  0.1097881137212561  1.0000
  H   H516      1.0  0.5757142818404676  0.8844236400896743  0.07724813646311639  1.0000
  N   N28       1.0  0.9357641584324957  0.31749606580280226  0.4166430726900296  1.0000
  C   C397      1.0  0.9274427271045864  0.2945554261022855  0.4235759010786425  1.0000
  C   C398      1.0  0.9289339156681415  0.32703724533693995  0.4527775035842212  1.0000
  C   C399      1.0  0.9275322541038928  0.3206788561650274  0.37368875158504355  1.0000
  C   C400      1.0  0.9592561095971919  0.3278000260032414  0.41651870081158127  1.0000
  H   H517      1.0  0.909734978785982  0.28626393499563796  0.4237136899156601  1.0000
  H   H518      1.0  0.9333845091062909  0.2916547946637933  0.4557520851310989  1.0000
  H   H519      1.0  0.9324435035995178  0.2869809064803239  0.3968758965954202  1.0000
  H   H520      1.0  0.9348580374537245  0.3443513718433696  0.44827907832195996  1.0000
  H   H521      1.0  0.9113007489719895  0.3195502491364733  0.45440363570241565  1.0000
  H   H522      1.0  0.9354195406956946  0.3254984630415195  0.4855855707738312  1.0000
  H   H523      1.0  0.9335596670246796  0.33782880401153914  0.36751026568948064  1.0000
  H   H524      1.0  0.9098463518005577  0.31313314044164603  0.37223961435546554  1.0000
  H   H525      1.0  0.9326970451413953  0.31405102832380144  0.3454619952406104  1.0000
  H   H526      1.0  0.9659175435357747  0.34513986589741874  0.4124762403779656  1.0000
  H   H527      1.0  0.9651475126456253  0.32158565786535204  0.3888750713023615  1.0000
  H   H528      1.0  0.9661322787114978  0.3256931097516685  0.4483041374163768  1.0000
  N   N29       1.0  0.5441384913039969  0.5249298291718625  0.5507754030878665  1.0000
  C   C401      1.0  0.5532387573998893  0.5226286476997357  0.5934987673354861  1.0000
  C   C402      1.0  0.5216363369379242  0.5085856560640658  0.5460882585497161  1.0000
  C   C403      1.0  0.5562327928036428  0.522351279849439  0.5138855368324361  1.0000
  C   C404      1.0  0.5453878410919191  0.5462026371713882  0.54935856805842  1.0000
  H   H529      1.0  0.570288229153075  0.5345333583896653  0.5978024629556856  1.0000
  H   H530      1.0  0.5522269465175531  0.5066200172438258  0.5961501536673738  1.0000
  H   H531      1.0  0.5447290922381728  0.5248476633660867  0.6221535991544882  1.0000
  H   H532      1.0  0.5121051300529734  0.5097749623140703  0.5738372236199897  1.0000
  H   H533      1.0  0.5142474957951921  0.5102959613487263  0.5146320130170556  1.0000
  H   H534      1.0  0.5200979860806911  0.49229986337703235  0.5457215027538466  1.0000
  H   H535      1.0  0.5558906995738431  0.5065858668484623  0.5139740554373915  1.0000
  H   H536      1.0  0.5732271563572249  0.5347085241791493  0.5156553014924381  1.0000
  H   H537      1.0  0.5495201366473412  0.5237504109891571  0.4812627854513526  1.0000
  H   H538      1.0  0.5363812464636387  0.5487823315716108  0.5765078421344562  1.0000
  H   H539      1.0  0.538934889078762  0.5485792796933978  0.5172356504998908  1.0000
  H   H540      1.0  0.5621231766827134  0.558870277088335  0.5530598915926362  1.0000
  N   N30       1.0  0.4696156553685908  0.17029606786318988  0.1951304688392078  1.0000
  C   C405      1.0  0.4814635938558598  0.15789733006887025  0.19241073697838348  1.0000
  C   C406      1.0  0.4586805067038679  0.16645094047510356  0.2377230046845292  1.0000
  C   C407      1.0  0.45366852716647493  0.16366116271276818  0.15826925093468291  1.0000
  C   C408      1.0  0.4846333681339031  0.1931432718866889  0.1920597021508841  1.0000
  H   H541      1.0  0.49005753075515374  0.16064779559303444  0.16077728321079204  1.0000
  H   H542      1.0  0.4706457956527839  0.14052770123889494  0.1940619709817107  1.0000
  H   H543      1.0  0.49355055633588774  0.16231569196837936  0.21982904327624003  1.0000
  H   H544      1.0  0.44732497814544114  0.14931312985396847  0.24109268865857586  1.0000
  H   H545      1.0  0.47023974892878856  0.17130594152456058  0.2662920750175923  1.0000
  H   H546      1.0  0.4495003856751763  0.17549962732042462  0.2407099465759984  1.0000
  H   H547      1.0  0.44501936014069404  0.17327907015064664  0.15799386074257493  1.0000
  H   H548      1.0  0.44169786044195053  0.1466546019575757  0.16019354946334807  1.0000
  H   H549      1.0  0.46131164568885497  0.1655988924479199  0.1257035670494468  1.0000
  H   H550      1.0  0.4935595864851162  0.19647249762619326  0.16081193507610386  1.0000
  H   H551      1.0  0.49664817471729716  0.19883802462374328  0.21982032041275817  1.0000
  H   H552      1.0  0.4762267306899462  0.20299846157350593  0.1923744572619862  1.0000
  N   N31       1.0  0.8184476871502593  0.24116894937627012  0.981896435635507  1.0000
  C   C409      1.0  0.8049733002148258  0.25013019577058904  0.9637743907263913  1.0000
  C   C410      1.0  0.8144271593863537  0.22178501902175127  0.9560883056755107  1.0000
  C   C411      1.0  0.813288339455733  0.23580003972603503  0.028648460908210494  1.0000
  C   C412      1.0  0.841093124005139  0.25699978735329826  0.9792295747348194  1.0000
  H   H553      1.0  0.7877417915370725  0.23934658527341157  0.9684344429694285  1.0000
  H   H554      1.0  0.8074954821325059  0.2532342287689049  0.9278730425758421  1.0000
  H   H555      1.0  0.808635706844754  0.26550538103099186  0.9807124287393472  1.0000
  H   H556      1.0  0.824208461676948  0.21453775987358967  0.9692776407134696  1.0000
  H   H557      1.0  0.797394982624918  0.20962454086846669  0.9572605247604339  1.0000
  H   H558      1.0  0.8183645658932968  0.22528074887186353  0.9206966695679567  1.0000
  H   H559      1.0  0.823496058677476  0.22951490037271366  0.04392356875324932  1.0000
  H   H560      1.0  0.7963772676257556  0.22363670086987353  0.03191961670770649  1.0000
  H   H561      1.0  0.8156184845781772  0.24997583601702544  0.048824963694196866  1.0000
  H   H562      1.0  0.845651591225301  0.26178059771915985  0.9445884127965265  1.0000
  H   H563      1.0  0.8518884354062493  0.250961690938301  0.9926251343232002  1.0000
  H   H564      1.0  0.8445967613109628  0.2716895467757734  0.9987946145483345  1.0000
  N   N32       1.0  0.5514962265622702  0.9838360310915365  0.5919115855597039  1.0000
  C   C413      1.0  0.5323468874361814  0.9703055365512199  0.5642622092827192  1.0000
  C   C414      1.0  0.548144479401304  0.00011024248086854982  0.6165325982381028  1.0000
  C   C415      1.0  0.5699217762719826  0.9943266353025405  0.5630542257777006  1.0000
  C   C416      1.0  0.5556698410073796  0.9706277144202188  0.6238162223907375  1.0000
  H   H565      1.0  0.5344933961657862  0.957913727540107  0.5451948513159968  1.0000
  H   H566      1.0  0.5288645349859504  0.9797367880812519  0.5394483864252579  1.0000
  H   H567      1.0  0.5180653956015749  0.9620879159748228  0.5847475240734387  1.0000
  H   H568      1.0  0.562374179100859  0.010520340322685673  0.637742635600818  1.0000
  H   H569      1.0  0.5449382500986825  0.010439334540872869  0.5937528959528134  1.0000
  H   H570      1.0  0.5345249354409588  0.9927802868230929  0.6391478182085054  1.0000
  H   H571      1.0  0.5847642299492994  0.004443405763718822  0.582709782065236  1.0000
  H   H572      1.0  0.567433905611255  0.004540660009512365  0.5386853919997006  1.0000
  H   H573      1.0  0.5727492475149716  0.982465950104558  0.5437445768152818  1.0000
  H   H574      1.0  0.542242849577062  0.962634199776378  0.6465393587442865  1.0000
  H   H575      1.0  0.5701543015629938  0.9803444706392436  0.644940591723551  1.0000
  H   H576      1.0  0.5582798508271662  0.9580970305936833  0.6066980256039733  1.0000
  N   N33       1.0  0.9765706250007409  0.35305554223641367  0.9884946734934937  1.0000
  C   C417      1.0  0.9863869599853983  0.3763144372719101  0.9957067919860291  1.0000
  C   C418      1.0  0.9557621680601368  0.3429473066689776  0.010102433033727376  1.0000
  C   C419      1.0  0.9907694039374524  0.34514722284524685  0.007497818529143663  1.0000
  C   C420      1.0  0.9733786826020459  0.34785357762478447  0.9404984926036709  1.0000
  H   H577      1.0  0.9892459393568336  0.38083333358293986  0.031553959186438336  1.0000
  H   H578      1.0  0.9760687211938378  0.38280958723771924  0.9818075794460561  1.0000
  H   H579      1.0  0.002018097206344179  0.3844584922540817  0.9793874165439366  1.0000
  H   H580      1.0  0.9477978012216759  0.32536614458680396  0.005296174652601681  1.0000
  H   H581      1.0  0.9574573911019847  0.3465301537161177  0.04638047744769804  1.0000
  H   H582      1.0  0.9446782031458244  0.34852995136752246  0.996137983987333  1.0000
  H   H583      1.0  0.9839590137180968  0.3276757971244782  0.0022206677095180094  1.0000
  H   H584      1.0  0.9935386512962068  0.34873494287646434  0.043730952980767304  1.0000
  H   H585      1.0  0.006634795199650595  0.35264320674438515  0.9918140438535916  1.0000
  H   H586      1.0  0.9887453159370099  0.35428533001924273  0.9233000634104446  1.0000
  H   H587      1.0  0.9638250138797155  0.35469442538728685  0.9245551299691745  1.0000
  H   H588      1.0  0.9650587819103714  0.3304146788010965  0.9337906894658495  1.0000
  N   N34       1.0  0.6187031192735098  0.14987943930352454  0.9558071464312237  1.0000
  C   C421      1.0  0.6403177948399384  0.15644923516633  0.9394171104949072  1.0000
  C   C422      1.0  0.6079525786068118  0.12674417796407467  0.9623246398049972  1.0000
  C   C423      1.0  0.6063429332493604  0.15516311732969137  0.9230391467427794  1.0000
  C   C424      1.0  0.6201353208370244  0.16109976265358322  0.9983926098402784  1.0000
  H   H589      1.0  0.649902412879065  0.1522751786962634  0.9628867997917934  1.0000
  H   H590      1.0  0.6491307042526404  0.17386245740346604  0.9347497890463754  1.0000
  H   H591      1.0  0.6398173474326547  0.14825237232331034  0.9073372496392444  1.0000
  H   H592      1.0  0.5911654529834308  0.12098721443972947  0.9719040848216014  1.0000
  H   H593      1.0  0.6079132278663196  0.11777301123219894  0.9317166065529687  1.0000
  H   H594      1.0  0.6161574623030283  0.12238625758023908  0.9888795438968925  1.0000
  H   H595      1.0  0.5899726799995118  0.15052177566022656  0.9345651980430358  1.0000
  H   H596      1.0  0.6047855353944125  0.14677809461084917  0.8906582376842953  1.0000
  H   H597      1.0  0.6140914067116833  0.17250549439202925  0.9171459104111064  1.0000
  H   H598      1.0  0.6040750825934759  0.15664097877532662  0.011452959623344805  1.0000
  H   H599      1.0  0.628478523570867  0.178623067860679  0.9951121588308414  1.0000
  H   H600      1.0  0.6290250477074821  0.15719521303961898  0.024239405041298623  1.0000
  N   N35       1.0  0.48514350555890484  0.5092534208652629  0.8012479860413075  1.0000
  C   C425      1.0  0.46995085936527087  0.4869209210213969  0.7896046215493614  1.0000
  C   C426      1.0  0.5070902784190356  0.512226538922136  0.7989155432356119  1.0000
  C   C427      1.0  0.48142062378473227  0.5144744946445949  0.8467505355329277  1.0000
  C   C428      1.0  0.4823187615115683  0.5234629644859654  0.7698246628784643  1.0000
  H   H601      1.0  0.45317077229733044  0.48406851708901244  0.7902024121683415  1.0000
  H   H602      1.0  0.4715380622589004  0.4758473493043971  0.813171957725089  1.0000
  H   H603      1.0  0.4727123008933282  0.48226919831002407  0.7558858351882476  1.0000
  H   H604      1.0  0.5099151828844432  0.5019556418640003  0.8224801538093844  1.0000
  H   H605      1.0  0.5106089785102442  0.5085438514212084  0.7650830802622914  1.0000
  H   H606      1.0  0.518946517493535  0.5288357142799375  0.8075080598280765  1.0000
  H   H607      1.0  0.46503153409649417  0.5125055481502963  0.84981133203732  1.0000
  H   H608      1.0  0.492811166724329  0.5312060301268295  0.8565808632482548  1.0000
  H   H609      1.0  0.4836335986002966  0.5040797050478314  0.8711640445239534  1.0000
  H   H610      1.0  0.4936614540003723  0.5404306050674446  0.7778674512223556  1.0000
  H   H611      1.0  0.4659265582690131  0.5217053220553844  0.7705328193251745  1.0000
  H   H612      1.0  0.48529245791820363  0.5200465760327468  0.7352777927534804  1.0000
  N   N36       1.0  0.6936803607339878  0.4826373928656411  0.9213101624365574  1.0000
  C   C429      1.0  0.690369048609682  0.4876526727399588  0.8754997077003854  1.0000
  C   C430      1.0  0.6956383623990147  0.499967821632961  0.9516626268768178  1.0000
  C   C431      1.0  0.7133115656297982  0.48036357345003927  0.9247458010661815  1.0000
  C   C432      1.0  0.6752833377266136  0.4625897085634287  0.9336141628790477  1.0000
  H   H613      1.0  0.6756555520993228  0.48955821937440397  0.8723957865797223  1.0000
  H   H614      1.0  0.6885994563860598  0.4748379045637568  0.8515838514230657  1.0000
  H   H615      1.0  0.7039321515777056  0.5027241060842387  0.8651460002932846  1.0000
  H   H616      1.0  0.6977516912890694  0.49652098818242146  0.9865967560664131  1.0000
  H   H617      1.0  0.7095180310548463  0.5153321420911215  0.9439521943986038  1.0000
  H   H618      1.0  0.6811629527762582  0.5022453685266786  0.9496114710511182  1.0000
  H   H619      1.0  0.7158906136532616  0.4762263010329657  0.9589629451414741  1.0000
  H   H620      1.0  0.7276424779958178  0.4953623451307158  0.9168846726854449  1.0000
  H   H621      1.0  0.7125510929280724  0.4675944513472408  0.9019069672304807  1.0000
  H   H622      1.0  0.677251565920625  0.4583838732689022  0.9681658942387117  1.0000
  H   H623      1.0  0.6732514049965755  0.4491039551956412  0.9114612751302177  1.0000
  H   H624      1.0  0.6601923741465108  0.4638120080154191  0.9315573150834817  1.0000
  N   N37       1.0  0.14056417140381772  0.6062598426003343  0.8922864793100849  1.0000
  C   C433      1.0  0.1349932063855426  0.6237046606180363  0.8873264895231427  1.0000
  C   C434      1.0  0.1357277098156732  0.5937966688945538  0.8501937047932204  1.0000
  C   C435      1.0  0.12798799659072332  0.5923263880209807  0.9278338101302356  1.0000
  C   C436      1.0  0.16349069081266557  0.615159632641627  0.9038501730644325  1.0000
  H   H625      1.0  0.13787720953402605  0.633137071396258  0.9188130258513532  1.0000
  H   H626      1.0  0.11787125518476632  0.6175599737053156  0.8778156961063192  1.0000
  H   H627      1.0  0.14448835646507124  0.6348675052834227  0.8615297048549999  1.0000
  H   H628      1.0  0.11851001001801105  0.5869223497403327  0.8405942991489896  1.0000
  H   H629      1.0  0.1449578836713354  0.6038300415601956  0.8226223266265486  1.0000
  H   H630      1.0  0.1396360075653681  0.580426563952568  0.8528412891864695  1.0000
  H   H631      1.0  0.13261704702674426  0.5796743792894777  0.9342662506351576  1.0000
  H   H632      1.0  0.11066079044599897  0.5845312173753577  0.9193930702128252  1.0000
  H   H633      1.0  0.13052387081220027  0.6014582141529214  0.9595934833348188  1.0000
  H   H634      1.0  0.1735669606259933  0.6258948397392579  0.8780393415688668  1.0000
  H   H635      1.0  0.1682134604815825  0.6024171592912527  0.908273488591291  1.0000
  H   H636      1.0  0.16756538721841988  0.6244312885970257  0.9357325033527575  1.0000
  N   N38       1.0  0.4849051641916568  0.0507696200018053  0.908016404556238  1.0000
  C   C437      1.0  0.4846675993916193  0.06723166998105626  0.8793044753323094  1.0000
  C   C438      1.0  0.4927223919090896  0.03790653609106642  0.8829278006578505  1.0000
  C   C439      1.0  0.4631012335449192  0.036881862349441505  0.9225701740592548  1.0000
  C   C440      1.0  0.4990038263137344  0.061035910800262466  0.9472230842568189  1.0000
  H   H637      1.0  0.47951517803045707  0.07764681611462715  0.8977340195163858  1.0000
  H   H638      1.0  0.4734486355866147  0.060023045639674505  0.850303561094971  1.0000
  H   H639      1.0  0.5007011191548583  0.07757967888002641  0.8664076831442371  1.0000
  H   H640      1.0  0.49301185531022984  0.025227403149422636  0.9034879705071983  1.0000
  H   H641      1.0  0.48226148450493267  0.029852355382275392  0.8533070771913219  1.0000
  H   H642      1.0  0.5091085627891587  0.04776236408813321  0.8711281744543732  1.0000
  H   H643      1.0  0.4519833105620887  0.029184904553251644  0.8937214139217577  1.0000
  H   H644      1.0  0.4567231177848576  0.04600862790782922  0.9419592543011673  1.0000
  H   H645      1.0  0.46251371823235443  0.023985538128064546  0.9436282432161012  1.0000
  H   H646      1.0  0.5155588945849489  0.07191689487971918  0.9376277040492211  1.0000
  H   H647      1.0  0.49965645700641853  0.04911296086173132  0.9695848579219435  1.0000
  H   H648      1.0  0.4933627047985249  0.07072279616648357  0.9670107456169642  1.0000
  N   N39       1.0  0.6337617769338469  0.04042451880910925  0.031434568549915026  1.0000
  C   C441      1.0  0.61665264353357  0.04275278092290137  0.0541260132232446  1.0000
  C   C442      1.0  0.652444867155704  0.06149571863777921  0.02789751171011525  1.0000
  C   C443      1.0  0.6260815806598956  0.030953502598504632  0.9865931216563063  1.0000
  C   C444      1.0  0.6399404851339  0.026612030892919077  0.05716223721590877  1.0000
  H   H649      1.0  0.6023430727027732  0.0271578514663337  0.057707846870406046  1.0000
  H   H650      1.0  0.611702237569566  0.053165695117397334  0.03554522626089287  1.0000
  H   H651      1.0  0.6219803797760397  0.050046685982510795  0.08791488378835971  1.0000
  H   H652      1.0  0.6479966367800625  0.07299393195082272  0.012556358378401798  1.0000
  H   H653      1.0  0.6598118621188506  0.068330358891694  0.060889406903987905  1.0000
  H   H654      1.0  0.6650299458430796  0.06067594926202356  0.007755441959535814  1.0000
  H   H655      1.0  0.6214521898506146  0.04113161494677088  0.9663523958997059  1.0000
  H   H656      1.0  0.6119661533105261  0.015034607028023984  0.9877146659708799  1.0000
  H   H657      1.0  0.6385820316179937  0.029019277723554105  0.9682192815412017  1.0000
  H   H658      1.0  0.65306426492308  0.0248483521043294  0.041166727340108046  1.0000
  H   H659      1.0  0.6263144124172262  0.010503927545219498  0.06031532087907049  1.0000
  H   H660      1.0  0.6456699477744067  0.03336816446948194  0.09130006245800781  1.0000
  N   N40       1.0  0.35822357434983354  0.9108193199976338  0.7046250531047774  1.0000
  C   C445      1.0  0.37680325577661516  0.9106006749272962  0.7268825125099122  1.0000
  C   C446      1.0  0.3384834563528949  0.8945449637104647  0.7238394151729758  1.0000
  C   C447      1.0  0.35837360930340423  0.9063922957582058  0.656673347857519  1.0000
  C   C448      1.0  0.35936235439116176  0.9319065382545104  0.711329730344905  1.0000
  H   H661      1.0  0.37644411009525414  0.8948952341575692  0.7228015256481609  1.0000
  H   H662      1.0  0.37725505483864274  0.9140637612015876  0.7631308268786161  1.0000
  H   H663      1.0  0.3919907570220955  0.9227062038079993  0.7131630797057845  1.0000
  H   H664      1.0  0.3240984644253843  0.8943518945835395  0.7081586155908984  1.0000
  H   H665      1.0  0.3370720349241229  0.8783907898065325  0.7195735054053303  1.0000
  H   H666      1.0  0.3381396598282045  0.8976438067521209  0.7601270451886872  1.0000
  H   H667      1.0  0.34463306606633937  0.9065565206389581  0.638726857118084  1.0000
  H   H668      1.0  0.3576308974149842  0.8906344345339203  0.6502262528862867  1.0000
  H   H669      1.0  0.37317139663074306  0.9185802097238297  0.6415776699683035  1.0000
  H   H670      1.0  0.3456683912864032  0.9327596016284607  0.6948339850636529  1.0000
  H   H671      1.0  0.37418213586786914  0.9445933825949788  0.6975009977807635  1.0000
  H   H672      1.0  0.3591566068319893  0.9356951978960436  0.7472276501634465  1.0000
  N   N41       1.0  0.5317793325542498  0.09060842611307902  0.18653039043857866  1.0000
  C   C449      1.0  0.5541921670431358  0.10606625674726962  0.1790978932484011  1.0000
  C   C450      1.0  0.5243271430788798  0.09717587294264449  0.22644095401904754  1.0000
  C   C451      1.0  0.5301085157010329  0.06936815850401594  0.19281241758409562  1.0000
  C   C452      1.0  0.5184282246914295  0.08982322193412064  0.14775816109410073  1.0000
  H   H673      1.0  0.5560266509545903  0.12230393495514674  0.17456941190907047  1.0000
  H   H674      1.0  0.5602531152453886  0.1017424861578842  0.1488970855777752  1.0000
  H   H675      1.0  0.5648443400179607  0.10700127214206048  0.2074446198261721  1.0000
  H   H676      1.0  0.5342539312345734  0.09838022461503967  0.25630280457829446  1.0000
  H   H677      1.0  0.524737582564437  0.11286935852140326  0.2222865390293472  1.0000
  H   H678      1.0  0.5075472626865233  0.0856507445195644  0.2333539993041369  1.0000
  H   H679      1.0  0.5356551871689456  0.06396202260713044  0.16329806716790546  1.0000
  H   H680      1.0  0.5133495283494571  0.05734231629184557  0.1983943065124394  1.0000
  H   H681      1.0  0.5399373889230101  0.06937100120858272  0.22194663420935423  1.0000
  H   H682      1.0  0.5233303714664441  0.08468240514032063  0.11693437468949626  1.0000
  H   H683      1.0  0.5196325640380214  0.10567847536784515  0.14171057024769565  1.0000
  H   H684      1.0  0.5012914205913555  0.07874855600362807  0.15270314168646848  1.0000
  N   N42       1.0  0.9484420294455524  0.48735291235952  0.8887978862946001  1.0000
  C   C453      1.0  0.9472097064617585  0.5054893990876512  0.9106118959904154  1.0000
  C   C454      1.0  0.9708543130274369  0.4914763700200932  0.8884281743120498  1.0000
  C   C455      1.0  0.939914901250367  0.4844697085902842  0.8427974174647956  1.0000
  C   C456      1.0  0.9357447966596818  0.4678691163733549  0.9133445868303413  1.0000
  H   H685      1.0  0.9557305371052708  0.520285825824457  0.8917741080764291  1.0000
  H   H686      1.0  0.9543618254512897  0.5087383461126233  0.9447053291970713  1.0000
  H   H687      1.0  0.930424250523295  0.5024721331785219  0.9133227439170951  1.0000
  H   H688      1.0  0.9808980266343916  0.5058895353349423  0.8696538132114462  1.0000
  H   H689      1.0  0.9779495668484188  0.49392171155696474  0.922478311403254  1.0000
  H   H690      1.0  0.972286343131556  0.47798498834262654  0.8725859260019688  1.0000
  H   H691      1.0  0.9229655916834872  0.48104145262259496  0.8417347658244225  1.0000
  H   H692      1.0  0.9409331788277866  0.4711598445952395  0.8250384940881473  1.0000
  H   H693      1.0  0.9489213812320672  0.49891475864348706  0.8232681309695975  1.0000
  H   H694      1.0  0.936319553139899  0.45387116342312067  0.8976495105590496  1.0000
  H   H695      1.0  0.9187292552774867  0.464295984154223  0.9143143430085224  1.0000
  H   H696      1.0  0.9417720942864785  0.4694482674701681  0.9481762571502357  1.0000
  N   N43       1.0  0.4958042695401642  0.3820275380827805  0.9509258057806167  1.0000
  C   C457      1.0  0.5018729335667359  0.39812489641769866  0.9163858649057772  1.0000
  C   C458      1.0  0.4735804094732936  0.3753864969519745  0.9633206395026167  1.0000
  C   C459      1.0  0.51012505786435  0.3911310938542514  0.9903000610410428  1.0000
  C   C460      1.0  0.49762589452869066  0.36340412389941623  0.9336823503865138  1.0000
  H   H697      1.0  0.5005690871750365  0.4123846266461136  0.9281326284843028  1.0000
  H   H698      1.0  0.4913503890423829  0.391747491024506  0.8861869983798688  1.0000
  H   H699      1.0  0.5185642784051535  0.4035525544633131  0.9062030804662016  1.0000
  H   H700      1.0  0.4716492468232188  0.388956113876386  0.9770946827457166  1.0000
  H   H701      1.0  0.46243417118889857  0.3688103042775229  0.9341138881987285  1.0000
  H   H702      1.0  0.46822321399517774  0.36287519522660344  0.9886168006887817  1.0000
  H   H703      1.0  0.5059998736976744  0.3793256617714385  0.0168769348504183  1.0000
  H   H704      1.0  0.5093417764739019  0.40528857413510744  0.004274353362990313  1.0000
  H   H705      1.0  0.527008920814418  0.39605390107531335  0.9821885373391045  1.0000
  H   H706      1.0  0.4926686331460192  0.35075365586834145  0.9586128037840426  1.0000
  H   H707      1.0  0.5143533972254679  0.36766801943855754  0.9255109855807452  1.0000
  H   H708      1.0  0.48750579640417463  0.35641274439238857  0.903264809107296  1.0000
  N   N44       1.0  0.8275911632498556  0.5449848543545402  0.1418803222188339  1.0000
  C   C461      1.0  0.8055615594006611  0.5281041735474696  0.1329780161130544  1.0000
  C   C462      1.0  0.8271328723697173  0.5642355411538208  0.15957453309702588  1.0000
  C   C463      1.0  0.8393893754648785  0.5499729348914117  0.10029315366117757  1.0000
  C   C464      1.0  0.8383285831630656  0.5376967950813847  0.17455547692393006  1.0000
  H   H709      1.0  0.8053014154144374  0.5134237437677082  0.11892576394762903  1.0000
  H   H710      1.0  0.7970367349155053  0.533079178829178  0.10831246619494893  1.0000
  H   H711      1.0  0.7961415562178693  0.5237465382656824  0.1635649826989382  1.0000
  H   H712      1.0  0.8183060863699717  0.5610476724926169  0.19094593885825642  1.0000
  H   H713      1.0  0.8435275231076754  0.5772692948205406  0.16657302085520284  1.0000
  H   H714      1.0  0.8191967849688079  0.5701570577996625  0.13556080053422717  1.0000
  H   H715      1.0  0.8562084857048531  0.562398471394816  0.10564558973389866  1.0000
  H   H716      1.0  0.8317169100884937  0.5553687917224611  0.07456169645714775  1.0000
  H   H717      1.0  0.8398992748677478  0.5357682683480565  0.08610744753821856  1.0000
  H   H718      1.0  0.839040763556916  0.5232349715773259  0.16220505452218364  1.0000
  H   H719      1.0  0.8299696081686925  0.5338208500530227  0.2064850820498178  1.0000
  H   H720      1.0  0.8551174696559186  0.5499310685461316  0.18146937811828334  1.0000
  N   N45       1.0  0.49212684693712766  0.40273512651033755  0.26145045452559773  1.0000
  C   C465      1.0  0.4865003401251988  0.3919142640506778  0.30414934887543904  1.0000
  C   C466      1.0  0.47380426067754255  0.39266752059556304  0.22981811200633895  1.0000
  C   C467      1.0  0.5104792746543771  0.4009847357384891  0.2433542536164311  1.0000
  C   C468      1.0  0.49770638672414785  0.42533105121543535  0.26852330640198524  1.0000
  H   H721      1.0  0.47182408992633496  0.39160072258604495  0.3174404699629793  1.0000
  H   H722      1.0  0.4993882106880686  0.40003290002933506  0.3298066339165707  1.0000
  H   H723      1.0  0.4836870895497035  0.37526913544633506  0.30085236739941  1.0000
  H   H724      1.0  0.4699800793934511  0.37597183599795336  0.22186581718972773  1.0000
  H   H725      1.0  0.45921337839610704  0.39241264202713283  0.24348559881231474  1.0000
  H   H726      1.0  0.4771018732288718  0.4010554278761093  0.19798039747294843  1.0000
  H   H727      1.0  0.5245282149903503  0.40824885147274304  0.26658851325074  1.0000
  H   H728      1.0  0.5152228871216942  0.4089841882015726  0.2111387902585298  1.0000
  H   H729      1.0  0.5066249249742663  0.3840348284870621  0.23743090756302737  1.0000
  H   H730      1.0  0.5111596615190277  0.43331871785111975  0.29307086784198005  1.0000
  H   H731      1.0  0.4840535079655039  0.4270684207663569  0.2818698942660823  1.0000
  H   H732      1.0  0.5023862130080334  0.4341656226442612  0.2372695787549063  1.0000
  N   N46       1.0  0.47482415425827135  0.9325935335516329  0.3232422093969179  1.0000
  C   C469      1.0  0.4596223861536194  0.9096919731215509  0.32128996929380044  1.0000
  C   C470      1.0  0.46868131299171734  0.9432054411117771  0.35836136438474997  1.0000
  C   C471      1.0  0.47444837681388186  0.9419876301989591  0.28024662206689765  1.0000
  C   C472      1.0  0.49651930011567197  0.9355575714557428  0.33319406379937255  1.0000
  H   H733      1.0  0.463857080529356  0.9011142091944125  0.29538488357040726  1.0000
  H   H734      1.0  0.4430961599770133  0.9069339869663725  0.3136176896186331  1.0000
  H   H735      1.0  0.45933209137641956  0.9022204120854457  0.35348648293910806  1.0000
  H   H736      1.0  0.47931713657710107  0.9606333451757151  0.3595493841266497  1.0000
  H   H737      1.0  0.4521509097267566  0.9407417511338656  0.35286511465215087  1.0000
  H   H738      1.0  0.46950864664250574  0.9370548411300662  0.3915347126593605  1.0000
  H   H739      1.0  0.4857613057296869  0.9592783076895816  0.2807536889257258  1.0000
  H   H740      1.0  0.45830172778204353  0.9401615527704759  0.2720816948019079  1.0000
  H   H741      1.0  0.4788879948029359  0.9342982756411609  0.25286946669748595  1.0000
  H   H742      1.0  0.5082894865189758  0.9526954279885255  0.33632128849231563  1.0000
  H   H743      1.0  0.5019746439902157  0.9281628410148421  0.30701105728324324  1.0000
  H   H744      1.0  0.49728478788594493  0.9283456758067316  0.36514835543645036  1.0000
  N   N47       1.0  0.4356455077636108  0.35653852870677083  0.6551663944930723  1.0000
  C   C473      1.0  0.443179461293358  0.3796738483097644  0.657479673327058  1.0000
  C   C474      1.0  0.41479209617921065  0.34596355393263883  0.6312955685034829  1.0000
  C   C475      1.0  0.43339001442909497  0.3485140684160296  0.700557588033648  1.0000
  C   C476      1.0  0.45120613877601995  0.3520833655134384  0.6314180306860858  1.0000
  H   H745      1.0  0.4441879440249222  0.38628828673566856  0.6239596985872056  1.0000
  H   H746      1.0  0.45916608861654074  0.3883323755147413  0.6740804233371275  1.0000
  H   H747      1.0  0.43219153131349997  0.3835561207557403  0.6767548305406745  1.0000
  H   H748      1.0  0.4086626129211932  0.32848474644611064  0.6285833695458892  1.0000
  H   H749      1.0  0.40264514130605566  0.3488849990124676  0.6486085563660865  1.0000
  H   H750      1.0  0.41580484616321856  0.3519109970310032  0.5970801809246978  1.0000
  H   H751      1.0  0.421635697964992  0.3515331955700248  0.7193024464272748  1.0000
  H   H752      1.0  0.448719608531287  0.35638650880496725  0.7199567904132903  1.0000
  H   H753      1.0  0.42786480127945775  0.33111787394239867  0.7005680618419222  1.0000
  H   H754      1.0  0.45327928461324785  0.35809060577964313  0.5971137931021707  1.0000
  H   H755      1.0  0.4459956146548402  0.33474244146829757  0.6289659921564562  1.0000
  H   H756      1.0  0.4671020625761686  0.35982109486005565  0.6486761339925697  1.0000
  N   N48       1.0  0.4559682072047901  0.030741859140484884  0.5151339927283413  1.0000
  C   C477      1.0  0.4559664175631694  0.010324314335456997  0.5056866497757935  1.0000
  C   C478      1.0  0.4669726909754305  0.039626153515707196  0.5582753137052313  1.0000
  C   C479      1.0  0.4337854550740488  0.02726778009576103  0.5168273096590322  1.0000
  C   C480      1.0  0.4671622406315695  0.04568339731128668  0.47982734134109134  1.0000
  H   H757      1.0  0.4469347304410056  0.0026710746535196783  0.47436524950314535  1.0000
  H   H758      1.0  0.4485326965524986  0.9989927621572466  0.5326395839127168  1.0000
  H   H759      1.0  0.4724265923685743  0.012503759831957728  0.5019822362291531  1.0000
  H   H760      1.0  0.45886472505043335  0.028672759541465975  0.5856041075140211  1.0000
  H   H761      1.0  0.48372603514652834  0.042325210895662435  0.5581969046124752  1.0000
  H   H762      1.0  0.4672794865690897  0.055054611529905095  0.5665552369853227  1.0000
  H   H763      1.0  0.4330902534861497  0.04236714343745174  0.522949088236287  1.0000
  H   H764      1.0  0.4250247123176395  0.016347996788214747  0.5436201128701025  1.0000
  H   H765      1.0  0.4247555972218147  0.01997049283411001  0.48527022464331526  1.0000
  H   H766      1.0  0.46756749207058806  0.06131831100756546  0.48575418334233555  1.0000
  H   H767      1.0  0.4592841727496792  0.039389466709153664  0.44684903695095385  1.0000
  H   H768      1.0  0.4838654656395701  0.04839363113974482  0.47714897687053603  1.0000
