data_image0
_chemical_formula_structural       HFeHSH2SFeS2FeSCFeSFeNS3HCFeS2H4CFeSHSH2CHCH3C4H5CHC5H2C6H4C6H6SHC3NCH2CNC4H12SH5CHNH2CHC3H2CSH2CH4C2H4C5FeHNH4CSCHCH2C2HCHNHSH3CHC2H5CH3SH2SFeS2FeSFeSHSHSHFeSHFeS2FeS2FeSFeS3CS2FeS2FeSFeS2FeS2HNSFeS3H2FeCH2CFeS2FeS2C7HCSH6C6H3C2H2C2H3CH2C7H4C6H4C6H4C6H4CHCHC2H3CH2C2HCH5SHCH2C2H3N2CSFeCNHCH3CHCH3FeH6CH3C2SCHCH5CH3CH3CH3NC4H12SCHCH7NCH2CFeC2H3CH2SCHCFeHSHFeS2FeS2FeSFeS3FeS2H2C2HFeH2SH3Fe2S2NHFeSHSNH2S2CH4CFeS2FeS2FeCFeS3CSH7CH2C6H4C6H4C6H4C6HSH2NCFeHSH2CH7C7H4C6H4C6H4SC4H4CH5CH4C2NH3CH4NC4H12NC4H14CH4CHCHNHSHCSH3SHCHCH5C4HC3HSFeH2C2SH3FeHCHC2SHFeS2FeS2FeSFeS3HFeCHSFeS2HFeS2HC6H4C6H4C2H2SCHCSH2C6H3C2H7NH2C2HCH5C6H3FeH5CH3SFeHC2H4S2CFeCSH8CH3C2HCHNH2CHCHCNCNCHFeCH5CHCHC2HNCH2SHCH4C2HSCH5N2C2H4CH2SCH2CFeSHC2H3CH11C4H4SH2SH2SHCHCH2CHCHFeS2FeS2FeS2FeS2FeSFeS3FeS2FeSFeSFeS2FeHCFeS2Fe2S3FeS2CFeSCSH3C6H4CH2C6H4C6H4C6H4C6H8CHC6H4C6H6C2H6CH2NC4H12C2H3CFe2H4SH2CNC4H12NC4H11CSCNHCHCHSC2NC4H12NC3H3SHC2NC4H12CHSHC2H3CHSNHFeH2CHSHCHN2HC2SHNCHFeH2CSC3HCH3CH2FeH7SH2CSCH2SH3CHNH5C3H4C2SHSFeSHFeSH5FeSFeS2FeS3C3FeC2HC6H4C3H2SH2CH2C7H5C2HFeSH2CH3NH4FeH3SH3C2HC3HCFeCH3CH4NCS2C3NCH2CH2C2HCH2CHNH4SCH2CHS2CH2NSH2CH2C2HCH2CH3CHCHC2H2CHCH2CH3CHNC2H2CHNH7SH3SHCFeS2HFeSCSH4SCHS2C2FeS2FeS2FeSFeS3FeS2FeS2C6H5C3NH3C6H5C8H2C6H4C3HC2H2FeH3FeH2CHC3H11FeHCHCSHNHNH2CSH3FeHNC4H19C2SH3CH2NCH5CHCS2CH3CHFeS2FeS2FeSFeS4HFeS2FeSHFeSFeS3H3C2FeS2FeS2FeHFeS3H2CH2FeH5C3HC8H4CHSC6H4C2HC2H2C2H2C6H4C6H4C6H4C4HCHS2HCSHCH3SHCH3FeHSHC4SH2CHNC4H11NC4H12NC4H12SNH2CHCHCNCHCNH3CHCH4CHCH2FeH2SHNH6CHC2H8CSHSHNH2FeCSCH3C2HCH3C2HCH2C2H3CH4FeS2FeHSCFeS3FeS2FeS2FeSFeS3HFeS2FeSCSNFe2S2FeS3CH6FeS2FeS2Fe2S2H2CHFeH4CH2C5H5CHCH3CHC7H4C2H2C6H6NH3C2HC2H3CHC6H2SC6H3CH7C2HNHCH2C4H3CH5SNCH2CSHCH10NH2C3H4CH5C3HNCNH3FeC2H2CNCHCHCH5C2HCHSH2CHCH2NHC2H4CHCH6NSH5CH2CH2CSH2CHCH9CFeSHFeS2FeSFeS3HCH3FeHNCHCSCS3FeSFeS2Fe2HS2C2HCH2CHC2HCHC6H3C5H4CH2NH2C2HSC2H4C6H4C2SFeHC2H7C2SH2C2H2SHCH3SH3C3H2C2HFeCFeNFeHSHCHSHC2FeH7SH2CH2CH2SH5FeCNHC4HCHCH4CHSHSH2FeCHCHSHSNH2CHSCFeHCHCHNH3CH2CSCSHSH2C2FeH2S3H3CH2NHFeCHS2FeS2FeS2FeSFeHS2FeSFeS2FeSFeS2FeS2FeSCFeSFeS3H3FeCSH3SH2SNHCHCH3CHSHC7H5C3H2CHCH2C2HC3H4C6H5C6H5SCFeH2S2H2FeH2CH2SH4C2H5NSCHC2N2CH3CNSC5HC2H2NC4H12NHC4HCHNH2CH6C2SH2CH5CH2CHC2HFeHCH3CSH2SH4SH3C2H3CH2CH2C2H2C2HCH2CH4CHFeS2H2CSFeS2FeS2FeS2CFeSHSFe2S2FeS2FeSFeS4C6H4SCSCH2C6H4SC3H11FeHFe2H2C6H2CHCHCNCH2C2H3SCHCH2C2HFeH9S2CH2CNH2CFeH2NH5CHC2FeHNH5CH5CSNHNCHC2HC2H8SH3C3HCFeH3C3SHNC2SCH6CHFeH4SH2CSH3FeCHCH2SC2HC2NH2C2HCH3CHC2NH2CH3CHCH5FeSHFeS2FeSFeS3H2CHSH2S2FeHSH3FeS2FeS2HSH2CFeSHS2FeSHFeS2FeSFe2S2CHSH4C6H4C5H3SHCH3NCHC6H6SH3CHSHC6H4C6H4C6H4C3HCH4CH2NH4C2SHSHCH2CH2C2NC4SH2C2H2FeH5C2H4FeHNC4FeH5CH8SCHNSH3NC2FeH4C2HC2H2C2SCH2C2H4CH3CFeNFeHCH5NFeH4CH3CH3NH2C2HCH3SHSC3H2Fe2SFeS2FeHFeS3FeS2FeSHFeSFeS3FeSH2SHS2HFeS2FeS2FeSFeS3HFeHS2H2SC6H4C5SCH2C7H4CFeHC6H5C7H6CSHCH2C6H5CH2NC2H2SCH2SH2NH6CH4C2HFeH9CH2C2N2HCSHFeCNC4H15CH2SHCSC2H2FeCHCNCH2SHNHCH6CHCHCH6C5HC4H2C2H2NC4H5SHC2H3SH6CNH2CH2SHCFeH4SFeSHFeS2FeS2FeSFeS3C2FeS2FeSFeS2CSHFe2SFeSHSNHSNH6CHC3H2CH2C2H2SC8H2C6H4CHC3H2C6H4C6H5C2HSHC3NS2H2CH4S2H2CNC4H9CHC2H4CFeH4CH2NHCHCH2CH2S2H3CHCH3C2H7CH6SH2C2SH2Fe2NC3H6SHCSH2CH4CH3CFeH3NCH2CHNH5CHCFeHSH3CH3SH2CHFeHSHSHCFeCHFeSH2CHCH4SH3FeS3HFeH2SFeS2FeS2FeSFeS3NS2FeS2HNH4CHC2FeSFeS4CFeS2CHFeS2CH2CH3C2H2C2HC2HCSH5CH4C6H2C6H4C6H4C6H5CH4C6H4C2S2H2CFeH3C2HNC4H12NC4H4CH3FeHCHNFeCH2C2HCH3NHCHSHCFeH3NHSHCH11NC4H2C2HFeCSH2C2HCH2CHCH5FeS2FeS2FeHFeS3H4CHFeS2FeSFeSFeS3FeS2FeS2FeSFeS3FeSFeS2Fe2S4CH2N2C6H4CSH6SC6H4C2HC3HC5HCH4C6H4C6H8CHCHSC2HCHC4H2C2SH2NCH5NC4H13CH4C2HCHCHC3HCH2CNH3SH2CH2CH4CSH2C2H3CHC2HCHCHCHCH3SHNHN2C4H11CH2C3H10C3HC2H9CNH4CHSH3CHCHCFeHCHFeHFeSFeS2FeSFeSFeS2FeS2FeSFeHS2H2C2H2CHC2SFeH2FeSH2CH2CNHCHNH8NC6H4CH3SHS2H2C6H4C6H3C6H5CH2C2H3SHC2H3CH4SCH2C2H2NH10CHC2H3CHCH4C2HC2H2NH2NCH2NC2H6NSH3CSH3CH5CHCFeC4HCHCFeH4C2HFeS2FeS2FeSFeS3HNHCSHCHFeHFeH2CFeS2H2FeSHCS2FeS2FeS2H2CHCHC6HCHSH2FeCH3C6H4C6H4C6H4C2HC3H2CHC6H7FeCH2SCH3FeCHCH3CNHCH2SH5CH2NH7C2H3CH2NH2FeH3C2SH2FeH6CNHC2H2CH2CH3SCHSH2CH2SCH6NHCSCH3C3H3NHFeHSHS2FeS2FeSHFeCFeS4NHSHSCSHCHFeSFeS2FeSFeCS2FeSHFeS2FeSFeS3HSHFeH4CH4CHSH2C6H4C6H3C6H2CHSHNC7H4CH6SC7H4C2HC3H4Fe2H3CHCHCHSC3H2NC4H14NC3H8NC4H12CHC5H5SH2CHNHSCHC2SH6CSC2SHC3H2CH5NHCH4CH2CHN2HC3H5CHC3HC2H2C3SHFeSFeS2FeSFeS3H2CHCHSCSHNH2C6H4C3FeC2HSH2C5H4CH4NH2CSH4SH2CH2CHC2H2CH4SH2CHSNCHC2H3FeSC2H2CHSH3CFeHCH3C3HFeCHCH3CHSFeH3CHSHNHCSH5NHFeS2FeHNFeSH2SCFeS2FeS2FeSFeS3HNH2CH5CFeSHFeS2FeSFeS2FeHSFeS2FeSHS2FeS2FeS2FeSFeS3C6H4C6H7SC7H3C5SFeH3CHC7H4C2HNHCH3FeC6H4C6H4C6H4SCHSH2SH2SH2CH3NH2CH8C2H7NC4H17C2HCH2C2HCH3CHCHSCHNH4CHC3NC4H12NC4HSHC2H3C2NC4H12NC4H6CHCH6CH6CSNCHFeHSH3CH4FeS2FeS2Fe2S3HS2FeS2FeCFeS2FeS2FeSFeHS2H2FeS2FeS2FeSFeS3FeS2C4SCSHCH2CSC2HSC6H5C3H4SH2C2HNH2FeC2FeHCH2C2H2CNHCH2C6H4C6H4FeC6H2NH2CHCHCH3CHCH4C4H9C2SH2CH2CH2FeHCH3CSH6CNHNHCH5SH3SHCNC2H3CH2CH2CHC3NCH3C2H3CNCH2CH4C4H2CH2NFeH5CH3CH4SH3CH3C3HCHSH2CHCH7CHNC4SH2C2H2NFeS2CHFeSHSFeS2FeS2FeSFeS2CHNFeH2CHNH3FeS2FeS2FeSFeS3C6H3CHCH3C4H5C2H2C6H4CH6C5H2C6H9SNC4H16CHC2H2CSH2C2HCHCHCH8CNH2C2H2CNCHCHC2SCH4CFeH7CHC2HCHCH2SCH2CH4NH3CH3C2HC
_chemical_formula_sum              "H3072 Fe384 S768 C1920 N192"
_cell_length_a       70.5669
_cell_length_b       70.6536
_cell_length_c       70.8481
_cell_angle_alpha    78.6981
_cell_angle_beta     78.6104
_cell_angle_gamma    78.8771

_space_group_name_H-M_alt    "P 1"
_space_group_IT_number       1

loop_
  _space_group_symop_operation_xyz
  'x, y, z'

loop_
  _atom_site_type_symbol
  _atom_site_label
  _atom_site_symmetry_multiplicity
  _atom_site_fract_x
  _atom_site_fract_y
  _atom_site_fract_z
  _atom_site_occupancy
  H   H1        1.0  0.02273  0.10137  0.41976  1.0000
  Fe  Fe1       1.0  0.12751  0.15924  0.46606  1.0000
  H   H2        1.0  0.32500  0.07588  0.04795  1.0000
  S   S1        1.0  0.11532  0.17111  0.43784  1.0000
  H   H3        1.0  0.29466  0.23013  0.27034  1.0000
  H   H4        1.0  0.28167  0.12738  0.46147  1.0000
  S   S2        1.0  0.15831  0.16332  0.46634  1.0000
  Fe  Fe2       1.0  0.24403  0.14598  0.37586  1.0000
  S   S3        1.0  0.23435  0.17546  0.38490  1.0000
  S   S4        1.0  0.22687  0.12125  0.38618  1.0000
  Fe  Fe3       1.0  0.28238  0.15626  0.35166  1.0000
  S   S5        1.0  0.27608  0.18669  0.35868  1.0000
  C   C1        1.0  0.00201  0.20246  0.29865  1.0000
  Fe  Fe4       1.0  0.26550  0.17260  0.38912  1.0000
  S   S6        1.0  0.27268  0.17820  0.41675  1.0000
  Fe  Fe5       1.0  0.24558  0.18679  0.35363  1.0000
  N   N1        1.0  0.30869  0.18742  0.48247  1.0000
  S   S7        1.0  0.27433  0.14210  0.38267  1.0000
  S   S8        1.0  0.25269  0.15741  0.34408  1.0000
  S   S9        1.0  0.13794  0.22248  0.35244  1.0000
  H   H5        1.0  0.99815  0.13588  0.43761  1.0000
  C   C2        1.0  0.06128  0.23687  0.30836  1.0000
  Fe  Fe6       1.0  0.02602  0.15558  0.39580  1.0000
  S   S10       1.0  0.02934  0.13764  0.37199  1.0000
  S   S11       1.0  0.03990  0.14291  0.42280  1.0000
  H   H6        1.0  0.00384  0.09608  0.40853  1.0000
  H   H7        1.0  0.28859  0.18102  0.46634  1.0000
  H   H8        1.0  0.26046  0.23369  0.30481  1.0000
  H   H9        1.0  0.10656  0.21684  0.33133  1.0000
  C   C3        1.0  0.99863  0.12091  0.44632  1.0000
  Fe  Fe7       1.0  0.02992  0.16661  0.35185  1.0000
  S   S12       1.0  0.04862  0.17406  0.32259  1.0000
  H   H10       1.0  0.13514  0.18156  0.28819  1.0000
  S   S13       1.0  0.02933  0.18373  0.37546  1.0000
  H   H11       1.0  0.01606  0.20695  0.29062  1.0000
  H   H12       1.0  0.23127  0.11484  0.47613  1.0000
  C   C4        1.0  0.32350  0.19171  0.46496  1.0000
  H   H13       1.0  0.26773  0.10765  0.46798  1.0000
  C   C5        1.0  0.31013  0.18445  0.40036  1.0000
  H   H14       1.0  0.13801  0.22433  0.31024  1.0000
  H   H15       1.0  0.10661  0.23017  0.29696  1.0000
  H   H16       1.0  0.25173  0.20567  0.29505  1.0000
  C   C6        1.0  0.06035  0.22678  0.32750  1.0000
  C   C7        1.0  0.05629  0.20758  0.33200  1.0000
  C   C8        1.0  0.05324  0.19829  0.31738  1.0000
  C   C9        1.0  0.05430  0.20835  0.29821  1.0000
  H   H17       1.0  0.12713  0.20277  0.39930  1.0000
  H   H18       1.0  0.14964  0.19995  0.31760  1.0000
  H   H19       1.0  0.05636  0.19971  0.34664  1.0000
  H   H20       1.0  0.05233  0.20116  0.28674  1.0000
  H   H21       1.0  0.01381  0.11628  0.44960  1.0000
  C   C10       1.0  0.20478  0.21566  0.34022  1.0000
  H   H22       1.0  0.26271  0.14051  0.43485  1.0000
  C   C11       1.0  0.26643  0.19722  0.29711  1.0000
  C   C12       1.0  0.16362  0.22021  0.34764  1.0000
  C   C13       1.0  0.17483  0.20289  0.35547  1.0000
  C   C14       1.0  0.19537  0.20064  0.35182  1.0000
  C   C15       1.0  0.32625  0.16087  0.43169  1.0000
  H   H23       1.0  0.16767  0.19119  0.36440  1.0000
  H   H24       1.0  0.20393  0.18722  0.35787  1.0000
  C   C16       1.0  0.06068  0.15123  0.42682  1.0000
  C   C17       1.0  0.06804  0.14375  0.44431  1.0000
  C   C18       1.0  0.08460  0.14993  0.44798  1.0000
  C   C19       1.0  0.09399  0.16361  0.43413  1.0000
  C   C20       1.0  0.08672  0.17103  0.41658  1.0000
  C   C21       1.0  0.07011  0.16491  0.41295  1.0000
  H   H25       1.0  0.06084  0.13321  0.45514  1.0000
  H   H26       1.0  0.09004  0.14412  0.46156  1.0000
  H   H27       1.0  0.09396  0.18153  0.40573  1.0000
  H   H28       1.0  0.06463  0.17071  0.39941  1.0000
  C   C22       1.0  0.20115  0.11383  0.45081  1.0000
  C   C23       1.0  0.21098  0.09759  0.44234  1.0000
  C   C24       1.0  0.21929  0.09997  0.42252  1.0000
  C   C25       1.0  0.21843  0.11867  0.41133  1.0000
  C   C26       1.0  0.20964  0.13503  0.42009  1.0000
  C   C27       1.0  0.20074  0.13259  0.43976  1.0000
  H   H29       1.0  0.21146  0.08307  0.45089  1.0000
  H   H30       1.0  0.22617  0.08730  0.41580  1.0000
  H   H31       1.0  0.20897  0.14951  0.41149  1.0000
  H   H32       1.0  0.19369  0.14522  0.44635  1.0000
  H   H33       1.0  0.24679  0.12245  0.44210  1.0000
  H   H34       1.0  0.05862  0.23543  0.27893  1.0000
  S   S14       1.0  0.23052  0.21304  0.33539  1.0000
  H   H35       1.0  0.06261  0.23376  0.33891  1.0000
  C   C28       1.0  0.29548  0.15118  0.28180  1.0000
  C   C29       1.0  0.29503  0.14902  0.30200  1.0000
  C   C30       1.0  0.31232  0.14751  0.30937  1.0000
  N   N2        1.0  0.12220  0.20203  0.30776  1.0000
  C   C31       1.0  0.14076  0.20923  0.30682  1.0000
  H   H36       1.0  0.28205  0.15249  0.27612  1.0000
  H   H37       1.0  0.28128  0.14854  0.31179  1.0000
  C   C32       1.0  0.11076  0.21503  0.29352  1.0000
  N   N3        1.0  0.15219  0.12420  0.41488  1.0000
  C   C33       1.0  0.15751  0.14325  0.41559  1.0000
  C   C34       1.0  0.13096  0.12465  0.42186  1.0000
  C   C35       1.0  0.16323  0.10855  0.42748  1.0000
  C   C36       1.0  0.15713  0.12036  0.39456  1.0000
  H   H38       1.0  0.17322  0.14377  0.40951  1.0000
  H   H39       1.0  0.15494  0.14617  0.43084  1.0000
  H   H40       1.0  0.14867  0.15554  0.40710  1.0000
  H   H41       1.0  0.12681  0.12765  0.43712  1.0000
  H   H42       1.0  0.12214  0.13635  0.41274  1.0000
  H   H43       1.0  0.12636  0.11051  0.42161  1.0000
  H   H44       1.0  0.16075  0.11144  0.44277  1.0000
  H   H45       1.0  0.17922  0.10728  0.42202  1.0000
  H   H46       1.0  0.15905  0.09405  0.42799  1.0000
  H   H47       1.0  0.14910  0.13194  0.38463  1.0000
  H   H48       1.0  0.15338  0.10606  0.39345  1.0000
  H   H49       1.0  0.17312  0.11992  0.38892  1.0000
  S   S15       1.0  0.31193  0.14613  0.33447  1.0000
  H   H50       1.0  0.00574  0.18986  0.31020  1.0000
  H   H51       1.0  0.30386  0.19372  0.38832  1.0000
  H   H52       1.0  0.26480  0.18896  0.31225  1.0000
  H   H53       1.0  0.26944  0.22919  0.26989  1.0000
  H   H54       1.0  0.00149  0.21284  0.33326  1.0000
  C   C37       1.0  0.25162  0.15618  0.46840  1.0000
  H   H55       1.0  0.00675  0.24016  0.38988  1.0000
  N   N4        1.0  0.28129  0.21018  0.29385  1.0000
  H   H56       1.0  0.30584  0.18780  0.28749  1.0000
  H   H57       1.0  0.25388  0.15623  0.48350  1.0000
  C   C38       1.0  0.12653  0.18197  0.30311  1.0000
  H   H58       1.0  0.28877  0.21362  0.47440  1.0000
  C   C39       1.0  0.32857  0.09614  0.29254  1.0000
  C   C40       1.0  0.29640  0.17424  0.47881  1.0000
  C   C41       1.0  0.13567  0.21087  0.40570  1.0000
  H   H59       1.0  0.13513  0.17179  0.31362  1.0000
  H   H60       1.0  0.21910  0.13967  0.47453  1.0000
  C   C42       1.0  0.33017  0.14755  0.29652  1.0000
  S   S16       1.0  0.31334  0.15578  0.24368  1.0000
  H   H61       1.0  0.14990  0.20951  0.29208  1.0000
  H   H62       1.0  0.23806  0.16668  0.46580  1.0000
  C   C43       1.0  0.24910  0.13682  0.44471  1.0000
  H   H63       1.0  0.11916  0.19285  0.33887  1.0000
  H   H64       1.0  0.00684  0.12070  0.40770  1.0000
  H   H65       1.0  0.09699  0.23527  0.43302  1.0000
  H   H66       1.0  0.11280  0.17609  0.30375  1.0000
  C   C44       1.0  0.00735  0.10618  0.41714  1.0000
  C   C45       1.0  0.29802  0.17504  0.41603  1.0000
  H   H67       1.0  0.23679  0.14804  0.44000  1.0000
  H   H68       1.0  0.11229  0.21268  0.44065  1.0000
  H   H69       1.0  0.09695  0.20965  0.29351  1.0000
  H   H70       1.0  0.31937  0.00881  0.21619  1.0000
  C   C46       1.0  0.30614  0.16327  0.43164  1.0000
  C   C47       1.0  0.30026  0.19844  0.29778  1.0000
  C   C48       1.0  0.13520  0.23865  0.42102  1.0000
  C   C49       1.0  0.11069  0.20184  0.32761  1.0000
  C   C50       1.0  0.17297  0.23524  0.33602  1.0000
  Fe  Fe8       1.0  0.16210  0.13232  0.48170  1.0000
  H   H71       1.0  0.31657  0.19809  0.45181  1.0000
  N   N5        1.0  0.25037  0.13636  0.46539  1.0000
  H   H72       1.0  0.31984  0.10572  0.30299  1.0000
  H   H73       1.0  0.14132  0.22908  0.43361  1.0000
  H   H74       1.0  0.32365  0.13087  0.38411  1.0000
  H   H75       1.0  0.09694  0.19581  0.32904  1.0000
  C   C51       1.0  0.23273  0.12976  0.47800  1.0000
  S   S17       1.0  0.18890  0.11020  0.47493  1.0000
  C   C52       1.0  0.27492  0.22479  0.30712  1.0000
  H   H76       1.0  0.28831  0.20954  0.26301  1.0000
  C   C53       1.0  0.31326  0.15164  0.26893  1.0000
  H   H77       1.0  0.27037  0.18640  0.28693  1.0000
  H   H78       1.0  0.31166  0.20780  0.29617  1.0000
  C   C54       1.0  0.28351  0.22025  0.27336  1.0000
  C   C55       1.0  0.33033  0.18228  0.40056  1.0000
  H   H79       1.0  0.29896  0.18993  0.31287  1.0000
  C   C56       1.0  0.05788  0.22772  0.29379  1.0000
  H   H80       1.0  0.29698  0.15567  0.44359  1.0000
  N   N6        1.0  0.12329  0.22838  0.41264  1.0000
  H   H81       1.0  0.28566  0.23496  0.30507  1.0000
  S   S18       1.0  0.13229  0.12739  0.47900  1.0000
  H   H82       1.0  0.31924  0.08568  0.29104  1.0000
  H   H83       1.0  0.11914  0.21601  0.27840  1.0000
  H   H84       1.0  0.27310  0.21761  0.32269  1.0000
  C   C57       1.0  0.99822  0.22504  0.32121  1.0000
  H   H85       1.0  0.26394  0.16216  0.45818  1.0000
  C   C58       1.0  0.19353  0.23292  0.33224  1.0000
  C   C59       1.0  0.10688  0.22240  0.42775  1.0000
  H   H86       1.0  0.32257  0.02689  0.18160  1.0000
  H   H87       1.0  0.30537  0.16012  0.47550  1.0000
  H   H88       1.0  0.00930  0.08190  0.45114  1.0000
  H   H89       1.0  0.09792  0.21410  0.42209  1.0000
  H   H90       1.0  0.14814  0.21487  0.39419  1.0000
  C   C60       1.0  0.26802  0.12267  0.47042  1.0000
  H   H91       1.0  0.14180  0.20054  0.41785  1.0000
  H   H92       1.0  0.10659  0.23425  0.38924  1.0000
  H   H93       1.0  0.01232  0.23012  0.31415  1.0000
  S   S19       1.0  0.99748  0.17225  0.35221  1.0000
  H   H94       1.0  0.99879  0.24078  0.28341  1.0000
  H   H95       1.0  0.14471  0.20077  0.56550  1.0000
  S   S20       1.0  0.27068  0.19507  0.58847  1.0000
  Fe  Fe9       1.0  0.25285  0.19608  0.53918  1.0000
  S   S21       1.0  0.24866  0.17208  0.56463  1.0000
  S   S22       1.0  0.24594  0.19112  0.51075  1.0000
  Fe  Fe10      1.0  0.24012  0.19621  0.58259  1.0000
  S   S23       1.0  0.21092  0.19925  0.60281  1.0000
  Fe  Fe11      1.0  0.27945  0.17335  0.56759  1.0000
  S   S24       1.0  0.30460  0.14835  0.56671  1.0000
  H   H96       1.0  0.09346  0.17082  0.81901  1.0000
  S   S25       1.0  0.28410  0.19597  0.54119  1.0000
  H   H97       1.0  0.20412  0.17604  0.57055  1.0000
  S   S26       1.0  0.15312  0.13973  0.51191  1.0000
  H   H98       1.0  0.17846  0.17085  0.59822  1.0000
  Fe  Fe12      1.0  0.12282  0.13773  0.50798  1.0000
  S   S27       1.0  0.10048  0.12452  0.53180  1.0000
  H   H99       1.0  0.22422  0.16228  0.50591  1.0000
  Fe  Fe13      1.0  0.12926  0.16799  0.71882  1.0000
  S   S28       1.0  0.15647  0.14989  0.72813  1.0000
  S   S29       1.0  0.11814  0.19808  0.72710  1.0000
  Fe  Fe14      1.0  0.12146  0.13531  0.69937  1.0000
  S   S30       1.0  0.14802  0.11479  0.70795  1.0000
  S   S31       1.0  0.10231  0.12855  0.68013  1.0000
  Fe  Fe15      1.0  0.13865  0.12562  0.73676  1.0000
  S   S32       1.0  0.13580  0.11083  0.76808  1.0000
  Fe  Fe16      1.0  0.16293  0.14138  0.69833  1.0000
  S   S33       1.0  0.19381  0.14020  0.68149  1.0000
  S   S34       1.0  0.11087  0.14415  0.72893  1.0000
  S   S35       1.0  0.13686  0.16142  0.68818  1.0000
  C   C61       1.0  0.20050  0.99558  0.79240  1.0000
  S   S36       1.0  0.07411  0.00463  0.65288  1.0000
  S   S37       1.0  0.02181  0.15283  0.82763  1.0000
  Fe  Fe17      1.0  0.10737  0.03167  0.61009  1.0000
  S   S38       1.0  0.07820  0.04646  0.62378  1.0000
  S   S39       1.0  0.12869  0.04530  0.58546  1.0000
  Fe  Fe18      1.0  0.08760  0.03125  0.65229  1.0000
  S   S40       1.0  0.08751  0.04260  0.68019  1.0000
  Fe  Fe19      1.0  0.06781  0.01824  0.62290  1.0000
  S   S41       1.0  0.11751  0.01828  0.63853  1.0000
  S   S42       1.0  0.09644  0.00479  0.60723  1.0000
  Fe  Fe20      1.0  0.12808  0.00844  0.81218  1.0000
  S   S43       1.0  0.09548  0.01541  0.81542  1.0000
  S   S44       1.0  0.14647  0.01864  0.78372  1.0000
  H   H100      1.0  0.06858  0.04353  0.58709  1.0000
  N   N7        1.0  0.07141  0.04037  0.55714  1.0000
  S   S45       1.0  0.04031  0.01667  0.61140  1.0000
  Fe  Fe21      1.0  0.09662  0.01750  0.84631  1.0000
  S   S46       1.0  0.07467  0.04007  0.86109  1.0000
  S   S47       1.0  0.16188  0.23794  0.77520  1.0000
  S   S48       1.0  0.12956  0.01322  0.84230  1.0000
  H   H101      1.0  0.23314  0.12927  0.49371  1.0000
  H   H102      1.0  0.00985  0.00605  0.59572  1.0000
  Fe  Fe22      1.0  0.02084  0.18533  0.82161  1.0000
  C   C62       1.0  0.15775  0.20832  0.75716  1.0000
  H   H103      1.0  0.04653  0.05161  0.57713  1.0000
  H   H104      1.0  0.04557  0.07364  0.86658  1.0000
  C   C63       1.0  0.06272  0.05097  0.57362  1.0000
  Fe  Fe23      1.0  0.04805  0.15144  0.84148  1.0000
  S   S49       1.0  0.03102  0.15419  0.87149  1.0000
  S   S50       1.0  0.07624  0.13089  0.83397  1.0000
  Fe  Fe24      1.0  0.02937  0.18659  0.86130  1.0000
  S   S51       1.0  0.03298  0.21034  0.87652  1.0000
  S   S52       1.0  0.04872  0.18363  0.83270  1.0000
  C   C64       1.0  0.09743  0.21684  0.86832  1.0000
  C   C65       1.0  0.09224  0.19841  0.86960  1.0000
  C   C66       1.0  0.07247  0.19641  0.87169  1.0000
  C   C67       1.0  0.05780  0.21273  0.87330  1.0000
  C   C68       1.0  0.06297  0.23113  0.87218  1.0000
  C   C69       1.0  0.12803  0.17687  0.79589  1.0000
  C   C70       1.0  0.12982  0.23408  0.76011  1.0000
  H   H105      1.0  0.06857  0.18214  0.87257  1.0000
  C   C71       1.0  0.02171  0.99379  0.59602  1.0000
  S   S53       1.0  0.12221  0.21931  0.86550  1.0000
  H   H106      1.0  0.18941  0.16407  0.50291  1.0000
  H   H107      1.0  0.28227  0.13487  0.51014  1.0000
  H   H108      1.0  0.17228  0.20184  0.76010  1.0000
  H   H109      1.0  0.15328  0.18102  0.59657  1.0000
  H   H110      1.0  0.12360  0.19185  0.78796  1.0000
  H   H111      1.0  0.14347  0.17183  0.78947  1.0000
  C   C72       1.0  0.07548  0.06522  0.85331  1.0000
  C   C73       1.0  0.05871  0.07878  0.85823  1.0000
  C   C74       1.0  0.05880  0.09895  0.85234  1.0000
  C   C75       1.0  0.07580  0.10569  0.84179  1.0000
  C   C76       1.0  0.09263  0.09217  0.83696  1.0000
  C   C77       1.0  0.09245  0.07195  0.84257  1.0000
  H   H112      1.0  0.04575  0.10927  0.85612  1.0000
  H   H113      1.0  0.10587  0.09734  0.82897  1.0000
  H   H114      1.0  0.10550  0.06160  0.83890  1.0000
  C   C78       1.0  0.31330  0.12524  0.50908  1.0000
  C   C79       1.0  0.18139  0.19425  0.50667  1.0000
  H   H115      1.0  0.10353  0.18569  0.86881  1.0000
  H   H116      1.0  0.17362  0.16846  0.54716  1.0000
  C   C80       1.0  0.12972  0.20793  0.74211  1.0000
  C   C81       1.0  0.14813  0.19916  0.74674  1.0000
  H   H117      1.0  0.14906  0.05053  0.61634  1.0000
  H   H118      1.0  0.00114  0.22360  0.75913  1.0000
  H   H119      1.0  0.20123  0.17320  0.70462  1.0000
  C   C82       1.0  0.12049  0.22526  0.74908  1.0000
  H   H120      1.0  0.15517  0.18560  0.74193  1.0000
  H   H121      1.0  0.11117  0.06333  0.64139  1.0000
  C   C83       1.0  0.32645  0.13038  0.53658  1.0000
  C   C84       1.0  0.13991  0.08519  0.77215  1.0000
  C   C85       1.0  0.14680  0.07466  0.75672  1.0000
  C   C86       1.0  0.14910  0.05415  0.76034  1.0000
  C   C87       1.0  0.14407  0.04422  0.77931  1.0000
  C   C88       1.0  0.13703  0.05478  0.79469  1.0000
  C   C89       1.0  0.13527  0.07520  0.79116  1.0000
  H   H122      1.0  0.15044  0.08228  0.74202  1.0000
  H   H123      1.0  0.15454  0.04601  0.74840  1.0000
  H   H124      1.0  0.13316  0.04723  0.80937  1.0000
  H   H125      1.0  0.13013  0.08326  0.80318  1.0000
  C   C90       1.0  0.09790  0.10463  0.68090  1.0000
  C   C91       1.0  0.10535  0.08878  0.69406  1.0000
  C   C92       1.0  0.10190  0.06984  0.69384  1.0000
  C   C93       1.0  0.09129  0.06659  0.68027  1.0000
  C   C94       1.0  0.08365  0.08248  0.66729  1.0000
  C   C95       1.0  0.08695  0.10141  0.66762  1.0000
  H   H126      1.0  0.11375  0.09111  0.70440  1.0000
  H   H127      1.0  0.10766  0.05764  0.70408  1.0000
  H   H128      1.0  0.07502  0.08020  0.65715  1.0000
  H   H129      1.0  0.08096  0.11365  0.65756  1.0000
  C   C96       1.0  0.10875  0.10289  0.54699  1.0000
  C   C97       1.0  0.09590  0.09549  0.56335  1.0000
  C   C98       1.0  0.10198  0.07802  0.57549  1.0000
  C   C99       1.0  0.12088  0.06772  0.57115  1.0000
  C   C100      1.0  0.13380  0.07520  0.55492  1.0000
  C   C101      1.0  0.12777  0.09277  0.54287  1.0000
  H   H130      1.0  0.08122  0.10339  0.56665  1.0000
  H   H131      1.0  0.09201  0.07251  0.58807  1.0000
  H   H132      1.0  0.14846  0.06731  0.55151  1.0000
  H   H133      1.0  0.13776  0.09836  0.53026  1.0000
  C   C102      1.0  0.20652  0.18192  0.62400  1.0000
  C   C103      1.0  0.18739  0.18256  0.63440  1.0000
  C   C104      1.0  0.18321  0.16912  0.65143  1.0000
  C   C105      1.0  0.19825  0.15542  0.65870  1.0000
  C   C106      1.0  0.21742  0.15474  0.64828  1.0000
  C   C107      1.0  0.22154  0.16784  0.63083  1.0000
  H   H134      1.0  0.17574  0.19356  0.62936  1.0000
  H   H135      1.0  0.16839  0.16968  0.65908  1.0000
  H   H136      1.0  0.22916  0.14417  0.65380  1.0000
  H   H137      1.0  0.23636  0.16727  0.62290  1.0000
  C   C108      1.0  0.22097  0.19226  0.50983  1.0000
  H   H138      1.0  0.08956  0.18577  0.79597  1.0000
  C   C109      1.0  0.29465  0.13362  0.51741  1.0000
  H   H139      1.0  0.06802  0.23037  0.82543  1.0000
  C   C110      1.0  0.19451  0.17683  0.50513  1.0000
  C   C111      1.0  0.21425  0.17585  0.50673  1.0000
  H   H140      1.0  0.16264  0.21609  0.56455  1.0000
  H   H141      1.0  0.28508  0.17079  0.49180  1.0000
  H   H142      1.0  0.11197  0.13309  0.80395  1.0000
  C   C112      1.0  0.14232  0.08990  0.60911  1.0000
  H   H143      1.0  0.18744  0.18679  0.72315  1.0000
  H   H144      1.0  0.20873  0.00421  0.79854  1.0000
  C   C113      1.0  0.30784  0.13906  0.54477  1.0000
  C   C114      1.0  0.29199  0.14077  0.53505  1.0000
  H   H145      1.0  0.08594  0.99850  0.75449  1.0000
  C   C115      1.0  0.06652  0.02036  0.56200  1.0000
  H   H146      1.0  0.13235  0.10421  0.60768  1.0000
  H   H147      1.0  0.04720  0.05191  0.54179  1.0000
  H   H148      1.0  0.19855  0.18806  0.54714  1.0000
  H   H149      1.0  0.19662  0.20199  0.56624  1.0000
  H   H150      1.0  0.07265  0.01186  0.54990  1.0000
  S   S54       1.0  0.24230  0.22050  0.55669  1.0000
  H   H151      1.0  0.06968  0.04327  0.52674  1.0000
  C   C116      1.0  0.17041  0.16730  0.56337  1.0000
  H   H152      1.0  0.14119  0.23571  0.89641  1.0000
  H   H153      1.0  0.07239  0.01208  0.57525  1.0000
  C   C117      1.0  0.18069  0.22128  0.69964  1.0000
  C   C118      1.0  0.06342  0.05084  0.53949  1.0000
  H   H154      1.0  0.16323  0.20385  0.54447  1.0000
  H   H155      1.0  0.11001  0.17668  0.76548  1.0000
  H   H156      1.0  0.14507  0.04810  0.64246  1.0000
  N   N8        1.0  0.13611  0.07709  0.62757  1.0000
  N   N9        1.0  0.17338  0.18519  0.56951  1.0000
  C   C119      1.0  0.19404  0.18795  0.56305  1.0000
  S   S55       1.0  0.01824  0.20394  0.79238  1.0000
  Fe  Fe25      1.0  0.10347  0.99287  0.63719  1.0000
  C   C120      1.0  0.18813  0.21066  0.50973  1.0000
  N   N10       1.0  0.18661  0.20176  0.69374  1.0000
  H   H157      1.0  0.18017  0.15419  0.56956  1.0000
  C   C121      1.0  0.08277  0.23326  0.86926  1.0000
  H   H158      1.0  0.06686  0.06603  0.53552  1.0000
  H   H159      1.0  0.10009  0.03086  0.54163  1.0000
  H   H160      1.0  0.27759  0.14739  0.54124  1.0000
  C   C122      1.0  0.19689  0.18817  0.70856  1.0000
  H   H161      1.0  0.19356  0.22742  0.70123  1.0000
  C   C123      1.0  0.14869  0.22589  0.76378  1.0000
  H   H162      1.0  0.10533  0.08770  0.62831  1.0000
  H   H163      1.0  0.17076  0.19672  0.59591  1.0000
  H   H164      1.0  0.32773  0.18746  0.50278  1.0000
  Fe  Fe26      1.0  0.27347  0.21783  0.56151  1.0000
  H   H165      1.0  0.05038  0.02058  0.56521  1.0000
  H   H166      1.0  0.13186  0.07722  0.65846  1.0000
  H   H167      1.0  0.14219  0.08307  0.59622  1.0000
  H   H168      1.0  0.15173  0.08906  0.64450  1.0000
  H   H169      1.0  0.21295  0.22245  0.51353  1.0000
  H   H170      1.0  0.15743  0.09287  0.60819  1.0000
  C   C124      1.0  0.14938  0.05810  0.62866  1.0000
  H   H171      1.0  0.09941  0.03224  0.56678  1.0000
  H   H172      1.0  0.12685  0.10086  0.64402  1.0000
  H   H173      1.0  0.16140  0.20335  0.68023  1.0000
  C   C125      1.0  0.12146  0.14364  0.80494  1.0000
  C   C126      1.0  0.11594  0.07383  0.62820  1.0000
  S   S56       1.0  0.15628  0.19566  0.50605  1.0000
  C   C127      1.0  0.09293  0.03935  0.55351  1.0000
  H   H174      1.0  0.16479  0.05996  0.62807  1.0000
  C   C128      1.0  0.13671  0.08647  0.64433  1.0000
  H   H175      1.0  0.10621  0.23210  0.74566  1.0000
  H   H176      1.0  0.10652  0.15163  0.77211  1.0000
  H   H177      1.0  0.06585  0.06623  0.57046  1.0000
  H   H178      1.0  0.15500  0.16468  0.56810  1.0000
  H   H179      1.0  0.17807  0.22419  0.51087  1.0000
  C   C129      1.0  0.19984  0.20325  0.67469  1.0000
  H   H180      1.0  0.08433  0.16125  0.80156  1.0000
  H   H181      1.0  0.21298  0.20953  0.67519  1.0000
  H   H182      1.0  0.13670  0.13765  0.79871  1.0000
  C   C130      1.0  0.16042  0.20224  0.56066  1.0000
  H   H183      1.0  0.13079  0.15746  0.76646  1.0000
  H   H184      1.0  0.09715  0.05419  0.54919  1.0000
  H   H185      1.0  0.12084  0.14375  0.82074  1.0000
  C   C131      1.0  0.09470  0.17067  0.80312  1.0000
  H   H186      1.0  0.30791  0.17394  0.51250  1.0000
  H   H187      1.0  0.20518  0.18862  0.67025  1.0000
  H   H188      1.0  0.17058  0.22068  0.71391  1.0000
  N   N11       1.0  0.07612  0.09253  0.78254  1.0000
  C   C132      1.0  0.08492  0.10785  0.78759  1.0000
  C   C133      1.0  0.08906  0.08426  0.76600  1.0000
  C   C134      1.0  0.05681  0.10122  0.77697  1.0000
  C   C135      1.0  0.07368  0.07684  0.79962  1.0000
  H   H189      1.0  0.08801  0.11941  0.77478  1.0000
  H   H190      1.0  0.09900  0.10166  0.79288  1.0000
  H   H191      1.0  0.07510  0.11503  0.79940  1.0000
  H   H192      1.0  0.08258  0.07310  0.76137  1.0000
  H   H193      1.0  0.09193  0.09580  0.75309  1.0000
  H   H194      1.0  0.10350  0.07699  0.76998  1.0000
  H   H195      1.0  0.04968  0.09011  0.77305  1.0000
  H   H196      1.0  0.05817  0.11317  0.76416  1.0000
  H   H197      1.0  0.04670  0.10759  0.78917  1.0000
  H   H198      1.0  0.06680  0.06511  0.79652  1.0000
  H   H199      1.0  0.06432  0.08262  0.81252  1.0000
  H   H200      1.0  0.08804  0.06980  0.80403  1.0000
  S   S57       1.0  0.11590  0.16948  0.49484  1.0000
  C   C136      1.0  0.20785  0.20967  0.51133  1.0000
  H   H201      1.0  0.21042  0.19322  0.71006  1.0000
  C   C137      1.0  0.11561  0.16227  0.77370  1.0000
  H   H202      1.0  0.11519  0.99696  0.76963  1.0000
  H   H203      1.0  0.03313  0.22660  0.83476  1.0000
  H   H204      1.0  0.15818  0.19394  0.70580  1.0000
  H   H205      1.0  0.12777  0.17814  0.81137  1.0000
  H   H206      1.0  0.28432  0.20304  0.49958  1.0000
  H   H207      1.0  0.32835  0.16398  0.49620  1.0000
  H   H208      1.0  0.30467  0.21594  0.49058  1.0000
  N   N12       1.0  0.11497  0.16336  0.79442  1.0000
  C   C138      1.0  0.16869  0.18332  0.59100  1.0000
  H   H209      1.0  0.11474  0.06764  0.61534  1.0000
  H   H210      1.0  0.18896  0.00613  0.78539  1.0000
  C   C139      1.0  0.04516  0.24044  0.79724  1.0000
  Fe  Fe27      1.0  0.00456  0.15789  0.85700  1.0000
  C   C140      1.0  0.29613  0.20585  0.48692  1.0000
  C   C141      1.0  0.16899  0.19422  0.69207  1.0000
  H   H211      1.0  0.19235  0.21258  0.66286  1.0000
  H   H212      1.0  0.17285  0.23181  0.68874  1.0000
  H   H213      1.0  0.16659  0.00135  0.81656  1.0000
  C   C142      1.0  0.32924  0.12372  0.51863  1.0000
  H   H214      1.0  0.17279  0.17902  0.68894  1.0000
  H   H215      1.0  0.11862  0.99970  0.73363  1.0000
  S   S58       1.0  0.00129  0.19055  0.84966  1.0000
  C   C143      1.0  0.31864  0.17785  0.49919  1.0000
  H   H216      1.0  0.18609  0.99865  0.83016  1.0000
  C   C144      1.0  0.03850  0.99494  0.60336  1.0000
  Fe  Fe28      1.0  0.14723  0.17055  0.49637  1.0000
  H   H217      1.0  0.04938  0.22430  0.80098  1.0000
  S   S59       1.0  0.31652  0.11749  0.48637  1.0000
  H   H218      1.0  0.26936  0.12167  0.48599  1.0000
  Fe  Fe29      1.0  0.22304  0.38693  0.06155  1.0000
  S   S60       1.0  0.21482  0.41190  0.07833  1.0000
  S   S61       1.0  0.21479  0.39119  0.03178  1.0000
  Fe  Fe30      1.0  0.24522  0.36079  0.09242  1.0000
  S   S62       1.0  0.23825  0.38328  0.11226  1.0000
  S   S63       1.0  0.26526  0.33206  0.09797  1.0000
  Fe  Fe31      1.0  0.20810  0.38878  0.10416  1.0000
  S   S64       1.0  0.17853  0.39323  0.12336  1.0000
  Fe  Fe32      1.0  0.24559  0.40414  0.08459  1.0000
  S   S65       1.0  0.26749  0.42439  0.08038  1.0000
  S   S66       1.0  0.21435  0.36412  0.08689  1.0000
  S   S67       1.0  0.25444  0.38129  0.06536  1.0000
  Fe  Fe33      1.0  0.11452  0.42182  0.01543  1.0000
  S   S68       1.0  0.12940  0.44736  0.01447  1.0000
  S   S69       1.0  0.12399  0.39504  0.03662  1.0000
  H   H219      1.0  0.00100  0.26237  0.40008  1.0000
  H   H220      1.0  0.19200  0.48834  0.10723  1.0000
  C   C145      1.0  0.11545  0.24161  0.39607  1.0000
  C   C146      1.0  0.01678  0.25702  0.35257  1.0000
  H   H221      1.0  0.28399  0.48300  0.00124  1.0000
  Fe  Fe34      1.0  0.09985  0.46529  0.01273  1.0000
  H   H222      1.0  0.21360  0.37598  0.99723  1.0000
  H   H223      1.0  0.30648  0.27789  0.17735  1.0000
  S   S70       1.0  0.08429  0.43951  0.01571  1.0000
  H   H224      1.0  0.19327  0.37225  0.19491  1.0000
  H   H225      1.0  0.15464  0.47250  0.14894  1.0000
  H   H226      1.0  0.31771  0.34683  0.05405  1.0000
  Fe  Fe35      1.0  0.08667  0.26852  0.31994  1.0000
  Fe  Fe36      1.0  0.08786  0.28177  0.35768  1.0000
  S   S71       1.0  0.08299  0.29837  0.32818  1.0000
  S   S72       1.0  0.07131  0.28548  0.38747  1.0000
  N   N13       1.0  0.31948  0.29585  0.15179  1.0000
  H   H227      1.0  0.14357  0.38500  0.17994  1.0000
  Fe  Fe37      1.0  0.11590  0.29419  0.32115  1.0000
  S   S73       1.0  0.13383  0.31826  0.30820  1.0000
  H   H228      1.0  0.13134  0.48460  0.27177  1.0000
  S   S74       1.0  0.12042  0.27981  0.35161  1.0000
  N   N14       1.0  0.03745  0.38719  0.39710  1.0000
  H   H229      1.0  0.00765  0.46394  0.37682  1.0000
  H   H230      1.0  0.03562  0.26684  0.38958  1.0000
  S   S75       1.0  0.09086  0.48218  0.24832  1.0000
  S   S76       1.0  0.02270  0.41797  0.32997  1.0000
  C   C147      1.0  0.16706  0.35155  0.18867  1.0000
  H   H231      1.0  0.04748  0.36990  0.42288  1.0000
  H   H232      1.0  0.04144  0.24532  0.37828  1.0000
  H   H233      1.0  0.05946  0.36157  0.40042  1.0000
  H   H234      1.0  0.30607  0.39958  0.01373  1.0000
  C   C148      1.0  0.00954  0.28671  0.36658  1.0000
  Fe  Fe38      1.0  0.15009  0.43297  0.25553  1.0000
  S   S77       1.0  0.11833  0.43016  0.26333  1.0000
  S   S78       1.0  0.17050  0.42839  0.27702  1.0000
  Fe  Fe39      1.0  0.14926  0.44257  0.21208  1.0000
  S   S79       1.0  0.11728  0.44071  0.21590  1.0000
  S   S80       1.0  0.16946  0.45028  0.18391  1.0000
  Fe  Fe40      1.0  0.11428  0.45712  0.24077  1.0000
  C   C149      1.0  0.31852  0.28675  0.17254  1.0000
  Fe  Fe41      1.0  0.12432  0.41390  0.23805  1.0000
  S   S81       1.0  0.11203  0.38627  0.23949  1.0000
  S   S82       1.0  0.14563  0.46126  0.23512  1.0000
  S   S83       1.0  0.15661  0.41443  0.23206  1.0000
  C   C150      1.0  0.00216  0.25629  0.38647  1.0000
  S   S84       1.0  0.08686  0.48898  0.03154  1.0000
  H   H235      1.0  0.28829  0.30047  0.15247  1.0000
  H   H236      1.0  0.14300  0.48784  0.06393  1.0000
  H   H237      1.0  0.31775  0.36834  0.09838  1.0000
  H   H238      1.0  0.99966  0.43954  0.36009  1.0000
  H   H239      1.0  0.02449  0.48221  0.29340  1.0000
  H   H240      1.0  0.32014  0.40005  0.04344  1.0000
  H   H241      1.0  0.15916  0.37363  0.22869  1.0000
  C   C151      1.0  0.17879  0.38047  0.19186  1.0000
  H   H242      1.0  0.18056  0.46803  0.12075  1.0000
  H   H243      1.0  0.32388  0.28663  0.12384  1.0000
  C   C152      1.0  0.14863  0.46202  0.32802  1.0000
  C   C153      1.0  0.16780  0.45192  0.32513  1.0000
  C   C154      1.0  0.17431  0.44144  0.30957  1.0000
  C   C155      1.0  0.16169  0.44100  0.29679  1.0000
  C   C156      1.0  0.14244  0.45093  0.29970  1.0000
  C   C157      1.0  0.13593  0.46146  0.31529  1.0000
  H   H244      1.0  0.17768  0.45224  0.33492  1.0000
  H   H245      1.0  0.18919  0.43373  0.30740  1.0000
  H   H246      1.0  0.13260  0.45048  0.28996  1.0000
  H   H247      1.0  0.12116  0.46906  0.31739  1.0000
  C   C158      1.0  0.02814  0.43522  0.34229  1.0000
  C   C159      1.0  0.04677  0.44084  0.33766  1.0000
  C   C160      1.0  0.05127  0.45482  0.34706  1.0000
  C   C161      1.0  0.03714  0.46332  0.36112  1.0000
  C   C162      1.0  0.01867  0.45742  0.36598  1.0000
  C   C163      1.0  0.01416  0.44348  0.35658  1.0000
  H   H248      1.0  0.05779  0.43442  0.32680  1.0000
  H   H249      1.0  0.06570  0.45890  0.34353  1.0000
  H   H250      1.0  0.18940  0.47385  0.15088  1.0000
  H   H251      1.0  0.12749  0.24642  0.38447  1.0000
  C   C164      1.0  0.12803  0.33651  0.28849  1.0000
  C   C165      1.0  0.11451  0.33491  0.27709  1.0000
  C   C166      1.0  0.11022  0.34993  0.26155  1.0000
  C   C167      1.0  0.11903  0.36679  0.25772  1.0000
  C   C168      1.0  0.13270  0.36826  0.26896  1.0000
  C   C169      1.0  0.13728  0.35309  0.28420  1.0000
  H   H252      1.0  0.10748  0.32206  0.28020  1.0000
  H   H253      1.0  0.09973  0.34867  0.25278  1.0000
  H   H254      1.0  0.13959  0.38118  0.26614  1.0000
  H   H255      1.0  0.14782  0.35434  0.29293  1.0000
  C   C170      1.0  0.05040  0.30347  0.38968  1.0000
  C   C171      1.0  0.03947  0.30448  0.40827  1.0000
  C   C172      1.0  0.02259  0.31840  0.41086  1.0000
  C   C173      1.0  0.01647  0.33150  0.39489  1.0000
  C   C174      1.0  0.02732  0.33054  0.37614  1.0000
  C   C175      1.0  0.04431  0.31645  0.37352  1.0000
  H   H256      1.0  0.04408  0.29447  0.42079  1.0000
  S   S85       1.0  0.11929  0.26563  0.31026  1.0000
  H   H257      1.0  0.02268  0.34060  0.36373  1.0000
  H   H258      1.0  0.05271  0.31572  0.35911  1.0000
  N   N15       1.0  0.01605  0.26533  0.37036  1.0000
  C   C176      1.0  0.04520  0.36824  0.40822  1.0000
  Fe  Fe42      1.0  0.12107  0.25171  0.34134  1.0000
  H   H259      1.0  0.04907  0.37809  0.36927  1.0000
  S   S86       1.0  0.08878  0.25244  0.35000  1.0000
  H   H260      1.0  0.18024  0.38534  0.17580  1.0000
  H   H261      1.0  0.13171  0.37195  0.20203  1.0000
  C   C177      1.0  0.01831  0.39512  0.40784  1.0000
  H   H262      1.0  0.20074  0.24459  0.32329  1.0000
  H   H263      1.0  0.17586  0.39389  0.19869  1.0000
  H   H264      1.0  0.18131  0.34221  0.19097  1.0000
  H   H265      1.0  0.01428  0.31908  0.42536  1.0000
  H   H266      1.0  0.00217  0.26003  0.34790  1.0000
  H   H267      1.0  0.15541  0.34221  0.19368  1.0000
  H   H268      1.0  0.04576  0.41560  0.38615  1.0000
  C   C178      1.0  0.16242  0.36128  0.22032  1.0000
  C   C179      1.0  0.17591  0.41004  0.13922  1.0000
  C   C180      1.0  0.15786  0.41427  0.15125  1.0000
  C   C181      1.0  0.15587  0.42634  0.16531  1.0000
  C   C182      1.0  0.17179  0.43467  0.16689  1.0000
  C   C183      1.0  0.18961  0.43107  0.15431  1.0000
  C   C184      1.0  0.19173  0.41863  0.14058  1.0000
  H   H269      1.0  0.14548  0.40799  0.14986  1.0000
  H   H270      1.0  0.14196  0.42944  0.17470  1.0000
  H   H271      1.0  0.20198  0.43749  0.15550  1.0000
  H   H272      1.0  0.20569  0.41545  0.13126  1.0000
  C   C185      1.0  0.18984  0.39070  0.03268  1.0000
  C   C186      1.0  0.18027  0.40229  0.01790  1.0000
  C   C187      1.0  0.16033  0.40248  0.01840  1.0000
  C   C188      1.0  0.14965  0.39143  0.03394  1.0000
  C   C189      1.0  0.15935  0.37917  0.04837  1.0000
  C   C190      1.0  0.17941  0.37895  0.04785  1.0000
  H   H273      1.0  0.18802  0.41175  0.00641  1.0000
  H   H274      1.0  0.15316  0.41160  0.00691  1.0000
  H   H275      1.0  0.15123  0.37029  0.06024  1.0000
  H   H276      1.0  0.18678  0.36966  0.05913  1.0000
  C   C191      1.0  0.28580  0.43796  0.01451  1.0000
  C   C192      1.0  0.26698  0.43398  0.02257  1.0000
  C   C193      1.0  0.26139  0.43005  0.04281  1.0000
  C   C194      1.0  0.27439  0.43066  0.05512  1.0000
  C   C195      1.0  0.29311  0.43519  0.04711  1.0000
  C   C196      1.0  0.29898  0.43850  0.02673  1.0000
  H   H277      1.0  0.25676  0.43353  0.01316  1.0000
  H   H278      1.0  0.24692  0.42664  0.04885  1.0000
  H   H279      1.0  0.30321  0.43557  0.05666  1.0000
  H   H280      1.0  0.28598  0.38991  0.02990  1.0000
  S   S87       1.0  0.06715  0.26062  0.30210  1.0000
  C   C197      1.0  0.31420  0.35455  0.09683  1.0000
  C   C198      1.0  0.29461  0.35281  0.09735  1.0000
  C   C199      1.0  0.28981  0.33488  0.09597  1.0000
  C   C200      1.0  0.30473  0.31887  0.09349  1.0000
  H   H281      1.0  0.32525  0.37777  0.06010  1.0000
  H   H282      1.0  0.15072  0.35211  0.22630  1.0000
  H   H283      1.0  0.28317  0.36525  0.09925  1.0000
  H   H284      1.0  0.30109  0.30505  0.09215  1.0000
  C   C201      1.0  0.14402  0.38027  0.19576  1.0000
  H   H285      1.0  0.16047  0.48542  0.28720  1.0000
  H   H286      1.0  0.16440  0.24866  0.32994  1.0000
  H   H287      1.0  0.31612  0.29797  0.18218  1.0000
  H   H288      1.0  0.02750  0.47705  0.31856  1.0000
  H   H289      1.0  0.30981  0.47573  0.00003  1.0000
  C   C202      1.0  0.30091  0.38578  0.02166  1.0000
  H   H290      1.0  0.31359  0.44149  0.02053  1.0000
  H   H291      1.0  0.14095  0.39366  0.20265  1.0000
  H   H292      1.0  0.30034  0.38920  0.05895  1.0000
  H   H293      1.0  0.06587  0.39566  0.38662  1.0000
  C   C203      1.0  0.30772  0.35577  0.04412  1.0000
  C   C204      1.0  0.32305  0.28035  0.13961  1.0000
  N   N16       1.0  0.16309  0.36840  0.19917  1.0000
  H   H294      1.0  0.16776  0.35645  0.17262  1.0000
  H   H295      1.0  0.12738  0.47984  0.03855  1.0000
  H   H296      1.0  0.29289  0.35823  0.05308  1.0000
  C   C205      1.0  0.32910  0.33846  0.09470  1.0000
  H   H297      1.0  0.16397  0.48907  0.25196  1.0000
  H   H298      1.0  0.05974  0.48391  0.28255  1.0000
  H   H299      1.0  0.10591  0.25498  0.40069  1.0000
  H   H300      1.0  0.03489  0.35754  0.41054  1.0000
  N   N17       1.0  0.07010  0.38905  0.29650  1.0000
  C   C206      1.0  0.05946  0.40845  0.28923  1.0000
  C   C207      1.0  0.06863  0.37488  0.28425  1.0000
  C   C208      1.0  0.06144  0.38241  0.31693  1.0000
  C   C209      1.0  0.09090  0.39045  0.29556  1.0000
  H   H301      1.0  0.04362  0.40802  0.29002  1.0000
  H   H302      1.0  0.06559  0.41376  0.27377  1.0000
  H   H303      1.0  0.06035  0.41957  0.29802  1.0000
  H   H304      1.0  0.05311  0.37355  0.28454  1.0000
  H   H305      1.0  0.07518  0.37939  0.26873  1.0000
  H   H306      1.0  0.07647  0.36006  0.28934  1.0000
  H   H307      1.0  0.06926  0.36786  0.32284  1.0000
  H   H308      1.0  0.04573  0.38113  0.31818  1.0000
  H   H309      1.0  0.06209  0.39292  0.32653  1.0000
  H   H310      1.0  0.09262  0.40092  0.30473  1.0000
  H   H311      1.0  0.09781  0.39559  0.28036  1.0000
  H   H312      1.0  0.09949  0.37600  0.30062  1.0000
  N   N18       1.0  0.14470  0.42691  0.07934  1.0000
  C   C210      1.0  0.15408  0.43572  0.09164  1.0000
  C   C211      1.0  0.14666  0.40556  0.08600  1.0000
  C   C212      1.0  0.15434  0.43091  0.05878  1.0000
  C   C213      1.0  0.12369  0.43539  0.08086  1.0000
  H   H313      1.0  0.15280  0.45186  0.08707  1.0000
  H   H314      1.0  0.16992  0.42949  0.09078  1.0000
  H   H315      1.0  0.14728  0.43281  0.10729  1.0000
  H   H316      1.0  0.16230  0.39845  0.08400  1.0000
  H   H317      1.0  0.14062  0.40196  0.10178  1.0000
  H   H318      1.0  0.13872  0.39864  0.07777  1.0000
  H   H319      1.0  0.17010  0.42420  0.05686  1.0000
  H   H320      1.0  0.15339  0.44688  0.05329  1.0000
  H   H321      1.0  0.14728  0.42480  0.04913  1.0000
  H   H322      1.0  0.11634  0.42927  0.07137  1.0000
  H   H323      1.0  0.12159  0.45152  0.07618  1.0000
  H   H324      1.0  0.11583  0.43236  0.09609  1.0000
  H   H325      1.0  0.01209  0.40954  0.39999  1.0000
  H   H326      1.0  0.31118  0.27125  0.14351  1.0000
  C   C214      1.0  0.30077  0.30879  0.14893  1.0000
  H   H327      1.0  0.30124  0.31627  0.13353  1.0000
  H   H328      1.0  0.00743  0.38505  0.40975  1.0000
  H   H329      1.0  0.30692  0.34680  0.03312  1.0000
  H   H330      1.0  0.17657  0.35238  0.22358  1.0000
  C   C215      1.0  0.29807  0.48872  0.99906  1.0000
  H   H331      1.0  0.29741  0.32044  0.15818  1.0000
  C   C216      1.0  0.05123  0.40117  0.39460  1.0000
  H   H332      1.0  0.02918  0.39821  0.36892  1.0000
  N   N19       1.0  0.31450  0.37446  0.03477  1.0000
  H   H333      1.0  0.05337  0.40392  0.40893  1.0000
  S   S88       1.0  0.14136  0.47558  0.34729  1.0000
  H   H334      1.0  0.06328  0.47796  0.30758  1.0000
  C   C217      1.0  0.31509  0.38586  0.04999  1.0000
  S   S89       1.0  0.29216  0.44214  0.98910  1.0000
  H   H335      1.0  0.12634  0.25199  0.42632  1.0000
  H   H336      1.0  0.02743  0.26322  0.34016  1.0000
  H   H337      1.0  0.01958  0.39728  0.42266  1.0000
  S   S90       1.0  0.04180  0.48152  0.37273  1.0000
  H   H338      1.0  0.01970  0.29401  0.35449  1.0000
  C   C218      1.0  0.32436  0.32069  0.09274  1.0000
  H   H339      1.0  0.16698  0.48754  0.10596  1.0000
  C   C219      1.0  0.03496  0.38422  0.37771  1.0000
  H   H340      1.0  0.02449  0.37391  0.37903  1.0000
  H   H341      1.0  0.14776  0.24329  0.40999  1.0000
  H   H342      1.0  0.29947  0.37736  0.01043  1.0000
  H   H343      1.0  0.04645  0.26851  0.36436  1.0000
  H   H344      1.0  0.00894  0.29344  0.37971  1.0000
  C   C220      1.0  0.03575  0.26128  0.37588  1.0000
  C   C221      1.0  0.17804  0.48418  0.11592  1.0000
  C   C222      1.0  0.11855  0.48738  0.04998  1.0000
  C   C223      1.0  0.15280  0.48856  0.14381  1.0000
  H   H345      1.0  0.10873  0.48739  0.20722  1.0000
  C   C224      1.0  0.02483  0.48907  0.30618  1.0000
  C   C225      1.0  0.05938  0.49025  0.29584  1.0000
  C   C226      1.0  0.18633  0.48986  0.14562  1.0000
  H   H346      1.0  0.02124  0.24083  0.35511  1.0000
  S   S91       1.0  0.01862  0.38755  0.94585  1.0000
  Fe  Fe43      1.0  0.01160  0.38705  0.91598  1.0000
  H   H347      1.0  0.15639  0.26520  0.86127  1.0000
  H   H348      1.0  0.17099  0.46700  0.84491  1.0000
  C   C227      1.0  0.21472  0.40917  0.97080  1.0000
  C   C228      1.0  0.06754  0.36791  0.91464  1.0000
  S   S92       1.0  0.12033  0.42234  0.98310  1.0000
  H   H349      1.0  0.32210  0.26260  0.66781  1.0000
  H   H350      1.0  0.27162  0.28298  0.68915  1.0000
  H   H351      1.0  0.18888  0.48283  0.84175  1.0000
  Fe  Fe44      1.0  0.14511  0.25465  0.79923  1.0000
  H   H352      1.0  0.22520  0.39711  0.93601  1.0000
  C   C229      1.0  0.30755  0.26400  0.67745  1.0000
  H   H353      1.0  0.00967  0.44027  0.90088  1.0000
  C   C230      1.0  0.05335  0.41226  0.97048  1.0000
  C   C231      1.0  0.32482  0.32097  0.57655  1.0000
  S   S93       1.0  0.31132  0.46458  0.70554  1.0000
  H   H354      1.0  0.02078  0.45474  0.91250  1.0000
  Fe  Fe45      1.0  0.24559  0.39390  0.85276  1.0000
  S   S94       1.0  0.26281  0.36567  0.86543  1.0000
  S   S95       1.0  0.25287  0.41401  0.82443  1.0000
  Fe  Fe46      1.0  0.21016  0.39008  0.88438  1.0000
  S   S96       1.0  0.22406  0.36143  0.89966  1.0000
  S   S97       1.0  0.17918  0.40466  0.89298  1.0000
  Fe  Fe47      1.0  0.25092  0.37599  0.89429  1.0000
  S   S98       1.0  0.26574  0.37475  0.92028  1.0000
  Fe  Fe48      1.0  0.23450  0.35361  0.86956  1.0000
  S   S99       1.0  0.23420  0.32501  0.85938  1.0000
  S   S100      1.0  0.23597  0.40520  0.88111  1.0000
  S   S101      1.0  0.21844  0.38112  0.85483  1.0000
  H   H355      1.0  0.09333  0.40215  0.88619  1.0000
  Fe  Fe49      1.0  0.12817  0.24436  0.84161  1.0000
  C   C232      1.0  0.28720  0.24780  0.59469  1.0000
  H   H356      1.0  0.19633  0.46791  0.87467  1.0000
  S   S102      1.0  0.06035  0.36373  0.86315  1.0000
  Fe  Fe50      1.0  0.14624  0.28192  0.82787  1.0000
  S   S103      1.0  0.13562  0.28721  0.79889  1.0000
  S   S104      1.0  0.15595  0.30541  0.84030  1.0000
  H   H357      1.0  0.25964  0.38141  0.79997  1.0000
  Fe  Fe51      1.0  0.10746  0.27863  0.81647  1.0000
  S   S105      1.0  0.07654  0.29393  0.81500  1.0000
  S   S106      1.0  0.11720  0.27536  0.84516  1.0000
  H   H358      1.0  0.14894  0.29571  0.88674  1.0000
  C   C233      1.0  0.06415  0.34452  0.84964  1.0000
  C   C234      1.0  0.08342  0.33658  0.84257  1.0000
  C   C235      1.0  0.08715  0.32119  0.83184  1.0000
  C   C236      1.0  0.07164  0.31366  0.82800  1.0000
  C   C237      1.0  0.05229  0.32172  0.83487  1.0000
  C   C238      1.0  0.04854  0.33709  0.84580  1.0000
  H   H359      1.0  0.09555  0.34236  0.84534  1.0000
  H   H360      1.0  0.10210  0.31537  0.82629  1.0000
  H   H361      1.0  0.04024  0.31597  0.83193  1.0000
  H   H362      1.0  0.03362  0.34319  0.85119  1.0000
  C   C239      1.0  0.17816  0.31041  0.84500  1.0000
  C   C240      1.0  0.19605  0.29791  0.84181  1.0000
  C   C241      1.0  0.21310  0.30250  0.84632  1.0000
  C   C242      1.0  0.21246  0.31964  0.85393  1.0000
  C   C243      1.0  0.19457  0.33209  0.85708  1.0000
  C   C244      1.0  0.17755  0.32746  0.85269  1.0000
  H   H363      1.0  0.19675  0.28476  0.83588  1.0000
  H   H364      1.0  0.22685  0.29275  0.84386  1.0000
  H   H365      1.0  0.19380  0.34529  0.86297  1.0000
  H   H366      1.0  0.16381  0.33723  0.85520  1.0000
  C   C245      1.0  0.28762  0.38440  0.91821  1.0000
  C   C246      1.0  0.29915  0.38965  0.90011  1.0000
  H   H367      1.0  0.05170  0.24381  0.87339  1.0000
  H   H368      1.0  0.29550  0.37365  0.79959  1.0000
  S   S107      1.0  0.32772  0.44787  0.94361  1.0000
  C   C247      1.0  0.29377  0.38645  0.93529  1.0000
  H   H369      1.0  0.29466  0.38801  0.88686  1.0000
  C   C248      1.0  0.24249  0.38347  0.96763  1.0000
  S   S108      1.0  0.00283  0.38747  0.86309  1.0000
  H   H370      1.0  0.28525  0.38210  0.94937  1.0000
  H   H371      1.0  0.03647  0.41919  0.92027  1.0000
  C   C249      1.0  0.16706  0.43957  0.94323  1.0000
  C   C250      1.0  0.15166  0.43419  0.93681  1.0000
  C   C251      1.0  0.15553  0.42354  0.92132  1.0000
  C   C252      1.0  0.17482  0.41795  0.91239  1.0000
  C   C253      1.0  0.19023  0.42354  0.91862  1.0000
  C   C254      1.0  0.18632  0.43462  0.93379  1.0000
  H   H372      1.0  0.13671  0.43844  0.94360  1.0000
  H   H373      1.0  0.14352  0.41948  0.91642  1.0000
  H   H374      1.0  0.20513  0.41945  0.91172  1.0000
  C   C255      1.0  0.22020  0.45441  0.84351  1.0000
  C   C256      1.0  0.30917  0.26379  0.60674  1.0000
  H   H375      1.0  0.03744  0.27941  0.82095  1.0000
  H   H376      1.0  0.23015  0.44263  0.85135  1.0000
  H   H377      1.0  0.20144  0.39093  0.94713  1.0000
  H   H378      1.0  0.25990  0.32872  0.82004  1.0000
  H   H379      1.0  0.31358  0.47801  0.96450  1.0000
  H   H380      1.0  0.32414  0.30609  0.58525  1.0000
  H   H381      1.0  0.12276  0.24768  0.76504  1.0000
  N   N20       1.0  0.22126  0.38882  0.96721  1.0000
  H   H382      1.0  0.27909  0.29831  0.70287  1.0000
  H   H383      1.0  0.28599  0.32275  0.81936  1.0000
  C   C257      1.0  0.04113  0.41715  0.93422  1.0000
  C   C258      1.0  0.04104  0.40005  0.96728  1.0000
  H   H384      1.0  0.24593  0.38421  0.98212  1.0000
  C   C259      1.0  0.05920  0.42725  0.95565  1.0000
  H   H385      1.0  0.19821  0.43917  0.93841  1.0000
  H   H386      1.0  0.06895  0.40580  0.89974  1.0000
  H   H387      1.0  0.29884  0.31364  0.67263  1.0000
  H   H388      1.0  0.13065  0.28864  0.87666  1.0000
  H   H389      1.0  0.30984  0.32958  0.57887  1.0000
  C   C260      1.0  0.31640  0.25706  0.57347  1.0000
  C   C261      1.0  0.30304  0.41902  0.78593  1.0000
  C   C262      1.0  0.28321  0.42064  0.79460  1.0000
  C   C263      1.0  0.27783  0.41254  0.81421  1.0000
  C   C264      1.0  0.29233  0.40300  0.82523  1.0000
  C   C265      1.0  0.31879  0.47780  0.68244  1.0000
  H   H390      1.0  0.30710  0.42523  0.77076  1.0000
  H   H391      1.0  0.27204  0.42810  0.78604  1.0000
  H   H392      1.0  0.28833  0.39692  0.84043  1.0000
  Fe  Fe52      1.0  0.09154  0.44258  0.98281  1.0000
  H   H393      1.0  0.05611  0.24576  0.78469  1.0000
  H   H394      1.0  0.29110  0.29830  0.65889  1.0000
  H   H395      1.0  0.17914  0.45127  0.87776  1.0000
  H   H396      1.0  0.32657  0.41887  0.66904  1.0000
  H   H397      1.0  0.05567  0.37810  0.92197  1.0000
  C   C266      1.0  0.03477  0.40253  0.94919  1.0000
  H   H398      1.0  0.21790  0.41093  0.98510  1.0000
  H   H399      1.0  0.06161  0.36356  0.90297  1.0000
  H   H400      1.0  0.07058  0.35457  0.92558  1.0000
  S   S109      1.0  0.02874  0.40211  0.88934  1.0000
  Fe  Fe53      1.0  0.02971  0.37516  0.87674  1.0000
  H   H401      1.0  0.24474  0.36240  0.80878  1.0000
  C   C267      1.0  0.06338  0.24626  0.82047  1.0000
  C   C268      1.0  0.28324  0.28415  0.69727  1.0000
  H   H402      1.0  0.20513  0.42113  0.85595  1.0000
  H   H403      1.0  0.18060  0.43113  0.85263  1.0000
  H   H404      1.0  0.31456  0.29887  0.70128  1.0000
  H   H405      1.0  0.31720  0.29640  0.55567  1.0000
  S   S110      1.0  0.16256  0.45222  0.96314  1.0000
  S   S111      1.0  0.07320  0.44419  0.95910  1.0000
  C   C269      1.0  0.32152  0.26424  0.58866  1.0000
  Fe  Fe54      1.0  0.00010  0.41273  0.87876  1.0000
  C   C270      1.0  0.18676  0.46817  0.83979  1.0000
  S   S112      1.0  0.31408  0.27422  0.62570  1.0000
  H   H406      1.0  0.10435  0.34939  0.90654  1.0000
  H   H407      1.0  0.03622  0.38877  0.97896  1.0000
  H   H408      1.0  0.25088  0.39353  0.95643  1.0000
  H   H409      1.0  0.02382  0.27517  0.80360  1.0000
  H   H410      1.0  0.30369  0.32018  0.54903  1.0000
  H   H411      1.0  0.22451  0.45329  0.82772  1.0000
  H   H412      1.0  0.05790  0.41039  0.98454  1.0000
  H   H413      1.0  0.29166  0.47858  0.67253  1.0000
  C   C271      1.0  0.25821  0.36753  0.81038  1.0000
  H   H414      1.0  0.08156  0.39255  0.93076  1.0000
  H   H415      1.0  0.07446  0.39162  0.88030  1.0000
  H   H416      1.0  0.28252  0.25483  0.62371  1.0000
  C   C272      1.0  0.03831  0.27156  0.80853  1.0000
  C   C273      1.0  0.29211  0.25537  0.60974  1.0000
  H   H417      1.0  0.01453  0.24562  0.82615  1.0000
  C   C274      1.0  0.31755  0.40932  0.79688  1.0000
  H   H418      1.0  0.09668  0.36903  0.93361  1.0000
  N   N21       1.0  0.19941  0.45237  0.85063  1.0000
  H   H419      1.0  0.19866  0.41371  0.97095  1.0000
  H   H420      1.0  0.11394  0.36953  0.89024  1.0000
  C   C275      1.0  0.31216  0.40137  0.81655  1.0000
  H   H421      1.0  0.28776  0.48508  0.96564  1.0000
  C   C276      1.0  0.09273  0.38218  0.92275  1.0000
  H   H422      1.0  0.28068  0.36172  0.77613  1.0000
  C   C277      1.0  0.27863  0.34834  0.78713  1.0000
  N   N22       1.0  0.04404  0.25023  0.81415  1.0000
  C   C278      1.0  0.30214  0.29907  0.66787  1.0000
  N   N23       1.0  0.27579  0.35256  0.80720  1.0000
  C   C279      1.0  0.29314  0.35991  0.80993  1.0000
  H   H423      1.0  0.17462  0.27116  0.87226  1.0000
  Fe  Fe55      1.0  0.32379  0.43711  0.97567  1.0000
  C   C280      1.0  0.27313  0.33449  0.82136  1.0000
  H   H424      1.0  0.29151  0.36318  0.82497  1.0000
  H   H425      1.0  0.12631  0.25393  0.88211  1.0000
  H   H426      1.0  0.22230  0.41963  0.95935  1.0000
  H   H427      1.0  0.07484  0.25150  0.80843  1.0000
  H   H428      1.0  0.30674  0.34908  0.80756  1.0000
  C   C281      1.0  0.31763  0.28459  0.69592  1.0000
  H   H429      1.0  0.05758  0.44111  0.92597  1.0000
  C   C282      1.0  0.19452  0.45353  0.87170  1.0000
  H   H430      1.0  0.12729  0.28829  0.90249  1.0000
  C   C283      1.0  0.30615  0.48258  0.66869  1.0000
  C   C284      1.0  0.05308  0.42955  0.93751  1.0000
  H   H431      1.0  0.28308  0.27219  0.71010  1.0000
  N   N24       1.0  0.30264  0.28294  0.68464  1.0000
  C   C285      1.0  0.31684  0.39655  0.89922  1.0000
  H   H432      1.0  0.24815  0.36840  0.96441  1.0000
  H   H433      1.0  0.31564  0.39537  0.94764  1.0000
  S   S113      1.0  0.01389  0.35917  0.90409  1.0000
  H   H434      1.0  0.25576  0.37121  0.82529  1.0000
  C   C286      1.0  0.32286  0.39874  0.91635  1.0000
  H   H435      1.0  0.29673  0.26243  0.66855  1.0000
  H   H436      1.0  0.29179  0.33711  0.78420  1.0000
  H   H437      1.0  0.09503  0.35916  0.88417  1.0000
  H   H438      1.0  0.30800  0.25142  0.68965  1.0000
  C   C287      1.0  0.19615  0.43324  0.84755  1.0000
  C   C288      1.0  0.31110  0.39389  0.93436  1.0000
  H   H439      1.0  0.22329  0.46866  0.84557  1.0000
  S   S114      1.0  0.15813  0.25005  0.82676  1.0000
  C   C289      1.0  0.31866  0.31142  0.54771  1.0000
  H   H440      1.0  0.10600  0.38928  0.91727  1.0000
  H   H441      1.0  0.00630  0.46618  0.89378  1.0000
  H   H442      1.0  0.32590  0.40015  0.88523  1.0000
  H   H443      1.0  0.20023  0.43146  0.83192  1.0000
  H   H444      1.0  0.31888  0.34980  0.54650  1.0000
  N   N25       1.0  0.14848  0.26471  0.89209  1.0000
  N   N26       1.0  0.08523  0.37705  0.90663  1.0000
  C   C290      1.0  0.08028  0.39496  0.89261  1.0000
  C   C291      1.0  0.10034  0.36316  0.89648  1.0000
  H   H445      1.0  0.31650  0.29841  0.65807  1.0000
  H   H446      1.0  0.22251  0.37210  0.94454  1.0000
  H   H447      1.0  0.04926  0.27776  0.79648  1.0000
  H   H448      1.0  0.32337  0.39395  0.82510  1.0000
  C   C292      1.0  0.00742  0.45426  0.90659  1.0000
  H   H449      1.0  0.20409  0.44202  0.88019  1.0000
  H   H450      1.0  0.26575  0.34279  0.78459  1.0000
  S   S115      1.0  0.10487  0.46987  0.97982  1.0000
  C   C293      1.0  0.16326  0.26158  0.87459  1.0000
  H   H451      1.0  0.19002  0.46758  0.82386  1.0000
  H   H452      1.0  0.27108  0.33714  0.83668  1.0000
  C   C294      1.0  0.21736  0.38719  0.94789  1.0000
  Fe  Fe56      1.0  0.13312  0.44925  0.98197  1.0000
  S   S116      1.0  0.11603  0.24679  0.81431  1.0000
  H   H453      1.0  0.31847  0.27271  0.70874  1.0000
  C   C295      1.0  0.13838  0.28521  0.88950  1.0000
  C   C296      1.0  0.29916  0.24892  0.57637  1.0000
  H   H454      1.0  0.08668  0.24754  0.86822  1.0000
  H   H455      1.0  0.32387  0.31031  0.53202  1.0000
  H   H456      1.0  0.12269  0.25314  0.90795  1.0000
  C   C297      1.0  0.21055  0.37550  0.98252  1.0000
  H   H457      1.0  0.19441  0.37956  0.98305  1.0000
  H   H458      1.0  0.32586  0.25767  0.55942  1.0000
  H   H459      1.0  0.00413  0.43942  0.94515  1.0000
  H   H460      1.0  0.14758  0.26293  0.92288  1.0000
  H   H461      1.0  0.16618  0.24545  0.91161  1.0000
  H   H462      1.0  0.21482  0.36008  0.98001  1.0000
  H   H463      1.0  0.06324  0.25400  0.83278  1.0000
  H   H464      1.0  0.16925  0.27068  0.90773  1.0000
  H   H465      1.0  0.00030  0.47525  0.93566  1.0000
  H   H466      1.0  0.99999  0.24424  0.88222  1.0000
  H   H467      1.0  0.02844  0.24945  0.84352  1.0000
  C   C298      1.0  0.15830  0.26076  0.90936  1.0000
  C   C299      1.0  0.13406  0.25132  0.89483  1.0000
  C   C300      1.0  0.02933  0.24269  0.83036  1.0000
  C   C301      1.0  0.30172  0.49080  0.96419  1.0000
  H   H468      1.0  0.32759  0.43661  0.63498  1.0000
  H   H469      1.0  0.03077  0.24304  0.79214  1.0000
  H   H470      1.0  0.17075  0.24613  0.87556  1.0000
  H   H471      1.0  0.27389  0.24159  0.59708  1.0000
  S   S117      1.0  0.29234  0.24168  0.55643  1.0000
  H   H472      1.0  0.10791  0.55984  0.46080  1.0000
  H   H473      1.0  0.05033  0.53856  0.21656  1.0000
  S   S118      1.0  0.11318  0.69433  0.14373  1.0000
  H   H474      1.0  0.18480  0.68321  0.46387  1.0000
  H   H475      1.0  0.15683  0.52015  0.11602  1.0000
  S   S119      1.0  0.06647  0.54425  0.17623  1.0000
  H   H476      1.0  0.06767  0.71209  0.04286  1.0000
  C   C302      1.0  0.09077  0.51252  0.19325  1.0000
  H   H477      1.0  0.25413  0.70563  0.42728  1.0000
  C   C303      1.0  0.30144  0.63725  0.41590  1.0000
  H   H478      1.0  0.23176  0.67597  0.21823  1.0000
  H   H479      1.0  0.26205  0.67206  0.44521  1.0000
  C   C304      1.0  0.05641  0.71905  0.05320  1.0000
  H   H480      1.0  0.00999  0.49739  0.31038  1.0000
  C   C305      1.0  0.29959  0.63803  0.39644  1.0000
  H   H481      1.0  0.14752  0.49569  0.15699  1.0000
  Fe  Fe57      1.0  0.08547  0.52380  0.32556  1.0000
  S   S120      1.0  0.11074  0.52633  0.33904  1.0000
  S   S121      1.0  0.08432  0.53786  0.29444  1.0000
  Fe  Fe58      1.0  0.08878  0.53007  0.36617  1.0000
  S   S122      1.0  0.08759  0.55620  0.38105  1.0000
  S   S123      1.0  0.06308  0.52995  0.35166  1.0000
  Fe  Fe59      1.0  0.15913  0.64294  0.23309  1.0000
  S   S124      1.0  0.18436  0.61797  0.23286  1.0000
  S   S125      1.0  0.16147  0.67209  0.21357  1.0000
  Fe  Fe60      1.0  0.13506  0.62197  0.26822  1.0000
  S   S126      1.0  0.15852  0.59591  0.27108  1.0000
  S   S127      1.0  0.10764  0.62033  0.29028  1.0000
  Fe  Fe61      1.0  0.17933  0.61744  0.26539  1.0000
  S   S128      1.0  0.20472  0.61267  0.28212  1.0000
  Fe  Fe62      1.0  0.16095  0.59886  0.23862  1.0000
  S   S129      1.0  0.15951  0.57042  0.22906  1.0000
  S   S130      1.0  0.15550  0.64342  0.26529  1.0000
  S   S131      1.0  0.13614  0.62398  0.23609  1.0000
  Fe  Fe63      1.0  0.09399  0.57616  0.10994  1.0000
  S   S132      1.0  0.12515  0.56183  0.10241  1.0000
  S   S133      1.0  0.08351  0.60284  0.08894  1.0000
  Fe  Fe64      1.0  0.08788  0.54854  0.14825  1.0000
  S   S134      1.0  0.11840  0.53196  0.14381  1.0000
  Fe  Fe65      1.0  0.12722  0.56150  0.13364  1.0000
  S   S135      1.0  0.15329  0.57098  0.14086  1.0000
  Fe  Fe66      1.0  0.11367  0.53347  0.11294  1.0000
  S   S136      1.0  0.09706  0.57818  0.14030  1.0000
  S   S137      1.0  0.08211  0.54778  0.11818  1.0000
  Fe  Fe67      1.0  0.27324  0.70490  0.34615  1.0000
  H   H482      1.0  0.18000  0.68617  0.24230  1.0000
  C   C306      1.0  0.31993  0.63560  0.42101  1.0000
  Fe  Fe68      1.0  0.25187  0.68063  0.38161  1.0000
  S   S138      1.0  0.25485  0.65496  0.36647  1.0000
  S   S139      1.0  0.23868  0.67756  0.41348  1.0000
  Fe  Fe69      1.0  0.28544  0.66102  0.35483  1.0000
  Fe  Fe70      1.0  0.24637  0.67742  0.34100  1.0000
  S   S140      1.0  0.22058  0.67678  0.32627  1.0000
  S   S141      1.0  0.28311  0.68490  0.37202  1.0000
  S   S142      1.0  0.24141  0.70296  0.35719  1.0000
  Fe  Fe71      1.0  0.14599  0.63504  0.44575  1.0000
  S   S143      1.0  0.16911  0.60844  0.44728  1.0000
  S   S144      1.0  0.15191  0.66162  0.42373  1.0000
  C   C307      1.0  0.09600  0.50787  0.07913  1.0000
  Fe  Fe72      1.0  0.14441  0.59183  0.44930  1.0000
  S   S145      1.0  0.14724  0.56580  0.43394  1.0000
  C   C308      1.0  0.18592  0.70788  0.14665  1.0000
  S   S146      1.0  0.12189  0.61863  0.44517  1.0000
  H   H483      1.0  0.29562  0.69895  0.40756  1.0000
  H   H484      1.0  0.19306  0.65056  0.48373  1.0000
  H   H485      1.0  0.28041  0.68017  0.41305  1.0000
  C   C309      1.0  0.21444  0.67348  0.41661  1.0000
  C   C310      1.0  0.20212  0.68380  0.40353  1.0000
  C   C311      1.0  0.18273  0.68047  0.40614  1.0000
  C   C312      1.0  0.17571  0.66663  0.42164  1.0000
  C   C313      1.0  0.18803  0.65633  0.43476  1.0000
  C   C314      1.0  0.20737  0.65979  0.43226  1.0000
  H   H486      1.0  0.20747  0.69444  0.39145  1.0000
  H   H487      1.0  0.17324  0.68847  0.39597  1.0000
  H   H488      1.0  0.18269  0.64566  0.44680  1.0000
  H   H489      1.0  0.21697  0.65156  0.44220  1.0000
  C   C315      1.0  0.30294  0.73216  0.36660  1.0000
  H   H490      1.0  0.28519  0.63993  0.39258  1.0000
  H   H491      1.0  0.28844  0.63851  0.42691  1.0000
  C   C316      1.0  0.21625  0.65796  0.31530  1.0000
  C   C317      1.0  0.23071  0.64208  0.31119  1.0000
  C   C318      1.0  0.22683  0.62807  0.30137  1.0000
  C   C319      1.0  0.20855  0.62987  0.29554  1.0000
  C   C320      1.0  0.19393  0.64545  0.30018  1.0000
  C   C321      1.0  0.19777  0.65938  0.31006  1.0000
  H   H492      1.0  0.24498  0.64079  0.31520  1.0000
  H   H493      1.0  0.23819  0.61598  0.29793  1.0000
  H   H494      1.0  0.17971  0.64687  0.29602  1.0000
  H   H495      1.0  0.18645  0.67156  0.31335  1.0000
  C   C322      1.0  0.15771  0.57092  0.20450  1.0000
  C   C323      1.0  0.16056  0.58742  0.19038  1.0000
  C   C324      1.0  0.15904  0.58737  0.17090  1.0000
  C   C325      1.0  0.15412  0.57106  0.16554  1.0000
  C   C326      1.0  0.15093  0.55468  0.17974  1.0000
  C   C327      1.0  0.15289  0.55456  0.19914  1.0000
  H   H496      1.0  0.16427  0.60010  0.19439  1.0000
  H   H497      1.0  0.16171  0.60000  0.15992  1.0000
  H   H498      1.0  0.14737  0.54196  0.17568  1.0000
  H   H499      1.0  0.15068  0.54175  0.21000  1.0000
  C   C328      1.0  0.10455  0.55856  0.39546  1.0000
  C   C329      1.0  0.11891  0.54301  0.40111  1.0000
  C   C330      1.0  0.13199  0.54551  0.41276  1.0000
  C   C331      1.0  0.13080  0.56352  0.41890  1.0000
  C   C332      1.0  0.11661  0.57916  0.41298  1.0000
  C   C333      1.0  0.10358  0.57667  0.40129  1.0000
  H   H500      1.0  0.11985  0.52900  0.39666  1.0000
  H   H501      1.0  0.14298  0.53335  0.41720  1.0000
  H   H502      1.0  0.11567  0.59316  0.41739  1.0000
  H   H503      1.0  0.09259  0.58882  0.39684  1.0000
  C   C334      1.0  0.08856  0.56189  0.29223  1.0000
  C   C335      1.0  0.08187  0.57215  0.30789  1.0000
  C   C336      1.0  0.08654  0.59082  0.30663  1.0000
  C   C337      1.0  0.09879  0.59878  0.29016  1.0000
  C   C338      1.0  0.10538  0.58854  0.27446  1.0000
  C   C339      1.0  0.09980  0.57036  0.27527  1.0000
  H   H504      1.0  0.07307  0.56573  0.32100  1.0000
  H   H505      1.0  0.08120  0.59877  0.31872  1.0000
  H   H506      1.0  0.11500  0.59450  0.26179  1.0000
  H   H507      1.0  0.10491  0.56251  0.26312  1.0000
  H   H508      1.0  0.29767  0.49638  0.01146  1.0000
  H   H509      1.0  0.29196  0.72359  0.37471  1.0000
  H   H510      1.0  0.28487  0.52728  0.99105  1.0000
  H   H511      1.0  0.18144  0.49705  0.15880  1.0000
  C   C340      1.0  0.12770  0.50071  0.27125  1.0000
  H   H512      1.0  0.19284  0.70415  0.46867  1.0000
  C   C341      1.0  0.01762  0.62353  0.09153  1.0000
  C   C342      1.0  0.03106  0.63395  0.07843  1.0000
  C   C343      1.0  0.05127  0.62750  0.07782  1.0000
  C   C344      1.0  0.05812  0.61074  0.09042  1.0000
  C   C345      1.0  0.04471  0.60041  0.10363  1.0000
  C   C346      1.0  0.02450  0.60677  0.10412  1.0000
  H   H513      1.0  0.02588  0.64687  0.06867  1.0000
  H   H514      1.0  0.06159  0.63550  0.06752  1.0000
  H   H515      1.0  0.04987  0.58749  0.11343  1.0000
  H   H516      1.0  0.01417  0.59865  0.11428  1.0000
  C   C347      1.0  0.12568  0.68854  0.16381  1.0000
  C   C348      1.0  0.13061  0.66886  0.17201  1.0000
  C   C349      1.0  0.14116  0.66372  0.18762  1.0000
  C   C350      1.0  0.14700  0.67824  0.19498  1.0000
  C   C351      1.0  0.14191  0.69795  0.18692  1.0000
  C   C352      1.0  0.13111  0.70310  0.17147  1.0000
  H   H517      1.0  0.12640  0.65754  0.16615  1.0000
  H   H518      1.0  0.14512  0.64849  0.19367  1.0000
  H   H519      1.0  0.14615  0.70926  0.19278  1.0000
  H   H520      1.0  0.12676  0.71830  0.16562  1.0000
  H   H521      1.0  0.07154  0.50734  0.06521  1.0000
  H   H522      1.0  0.31600  0.73219  0.39171  1.0000
  C   C353      1.0  0.11617  0.50248  0.07881  1.0000
  C   C354      1.0  0.31625  0.63640  0.38206  1.0000
  H   H523      1.0  0.15304  0.53821  0.26660  1.0000
  H   H524      1.0  0.32863  0.69785  0.36801  1.0000
  H   H525      1.0  0.15429  0.73463  0.15379  1.0000
  H   H526      1.0  0.21989  0.67420  0.27219  1.0000
  H   H527      1.0  0.09186  0.68989  0.07270  1.0000
  H   H528      1.0  0.20966  0.65140  0.23299  1.0000
  C   C355      1.0  0.15900  0.50512  0.25127  1.0000
  H   H529      1.0  0.11733  0.50348  0.28484  1.0000
  H   H530      1.0  0.23134  0.69627  0.23026  1.0000
  N   N27       1.0  0.09314  0.58137  0.20963  1.0000
  C   C356      1.0  0.10836  0.58584  0.21897  1.0000
  C   C357      1.0  0.10247  0.56977  0.19404  1.0000
  C   C358      1.0  0.08185  0.59983  0.20104  1.0000
  C   C359      1.0  0.07986  0.57005  0.22438  1.0000
  H   H531      1.0  0.10185  0.59472  0.23071  1.0000
  H   H532      1.0  0.11875  0.59426  0.20823  1.0000
  H   H533      1.0  0.11717  0.57226  0.22565  1.0000
  H   H534      1.0  0.09139  0.56639  0.18654  1.0000
  H   H535      1.0  0.11274  0.57777  0.18270  1.0000
  H   H536      1.0  0.11085  0.55555  0.19996  1.0000
  H   H537      1.0  0.09153  0.60869  0.18987  1.0000
  H   H538      1.0  0.07453  0.60897  0.21238  1.0000
  H   H539      1.0  0.07033  0.59696  0.19372  1.0000
  H   H540      1.0  0.06803  0.56673  0.21780  1.0000
  H   H541      1.0  0.07283  0.57816  0.23661  1.0000
  H   H542      1.0  0.08786  0.55579  0.23080  1.0000
  C   C360      1.0  0.20904  0.65628  0.24715  1.0000
  C   C361      1.0  0.20863  0.68321  0.26369  1.0000
  H   H543      1.0  0.21854  0.65282  0.47728  1.0000
  H   H544      1.0  0.08717  0.51547  0.09051  1.0000
  H   H545      1.0  0.19522  0.69592  0.13932  1.0000
  C   C362      1.0  0.02196  0.72697  0.06679  1.0000
  Fe  Fe73      1.0  0.06792  0.49729  0.36112  1.0000
  Fe  Fe74      1.0  0.10857  0.72528  0.12744  1.0000
  H   H546      1.0  0.21033  0.69879  0.26225  1.0000
  H   H547      1.0  0.28963  0.70501  0.46004  1.0000
  H   H548      1.0  0.20040  0.49457  0.13791  1.0000
  H   H549      1.0  0.30253  0.71218  0.43588  1.0000
  S   S147      1.0  0.08639  0.73192  0.06404  1.0000
  H   H550      1.0  0.12963  0.53483  0.28129  1.0000
  H   H551      1.0  0.05740  0.54901  0.47919  1.0000
  C   C363      1.0  0.27331  0.67719  0.45113  1.0000
  N   N28       1.0  0.13364  0.58113  0.33734  1.0000
  C   C364      1.0  0.13893  0.56501  0.35310  1.0000
  C   C365      1.0  0.14769  0.59505  0.33329  1.0000
  C   C366      1.0  0.11368  0.59142  0.34342  1.0000
  C   C367      1.0  0.13422  0.57307  0.31946  1.0000
  H   H552      1.0  0.12845  0.55438  0.35651  1.0000
  H   H553      1.0  0.13863  0.57053  0.36685  1.0000
  H   H554      1.0  0.15383  0.55677  0.34904  1.0000
  H   H555      1.0  0.14764  0.60142  0.34647  1.0000
  H   H556      1.0  0.16289  0.58784  0.32842  1.0000
  H   H557      1.0  0.14394  0.60740  0.32146  1.0000
  H   H558      1.0  0.11244  0.59702  0.35731  1.0000
  H   H559      1.0  0.10258  0.58153  0.34586  1.0000
  H   H560      1.0  0.10943  0.60408  0.33212  1.0000
  H   H561      1.0  0.13127  0.58494  0.30709  1.0000
  H   H562      1.0  0.12291  0.56354  0.32149  1.0000
  H   H563      1.0  0.14877  0.56439  0.31493  1.0000
  N   N29       1.0  0.07840  0.67441  0.09971  1.0000
  C   C368      1.0  0.06905  0.65672  0.10649  1.0000
  C   C369      1.0  0.09571  0.67246  0.10922  1.0000
  C   C370      1.0  0.06429  0.69177  0.10478  1.0000
  C   C371      1.0  0.08458  0.67676  0.07831  1.0000
  H   H564      1.0  0.05580  0.65786  0.09974  1.0000
  H   H565      1.0  0.06441  0.65431  0.12261  1.0000
  H   H566      1.0  0.07921  0.64334  0.10263  1.0000
  H   H567      1.0  0.10311  0.68560  0.10437  1.0000
  H   H568      1.0  0.09159  0.67093  0.12540  1.0000
  H   H569      1.0  0.10670  0.65949  0.10584  1.0000
  H   H570      1.0  0.07109  0.70527  0.10016  1.0000
  H   H571      1.0  0.05910  0.69046  0.12080  1.0000
  H   H572      1.0  0.05124  0.69412  0.09745  1.0000
  H   H573      1.0  0.07182  0.67862  0.07066  1.0000
  H   H574      1.0  0.09510  0.66384  0.07393  1.0000
  C   C372      1.0  0.06883  0.51413  0.23053  1.0000
  S   S148      1.0  0.08826  0.49133  0.33368  1.0000
  C   C373      1.0  0.19683  0.68811  0.46883  1.0000
  N   N30       1.0  0.14551  0.50956  0.26924  1.0000
  H   H575      1.0  0.09907  0.51161  0.17886  1.0000
  C   C374      1.0  0.19454  0.73197  0.11843  1.0000
  H   H576      1.0  0.28498  0.66435  0.45376  1.0000
  C   C375      1.0  0.16634  0.74002  0.14262  1.0000
  H   H577      1.0  0.19501  0.65313  0.25646  1.0000
  S   S149      1.0  0.31355  0.64018  0.35739  1.0000
  C   C376      1.0  0.09717  0.57211  0.46634  1.0000
  C   C377      1.0  0.15537  0.50144  0.28634  1.0000
  N   N31       1.0  0.19604  0.62962  0.37619  1.0000
  C   C378      1.0  0.20419  0.64792  0.37330  1.0000
  C   C379      1.0  0.18977  0.62789  0.35797  1.0000
  C   C380      1.0  0.17905  0.62992  0.39218  1.0000
  C   C381      1.0  0.21122  0.61280  0.38132  1.0000
  H   H578      1.0  0.20958  0.64948  0.38657  1.0000
  H   H579      1.0  0.19310  0.66105  0.36981  1.0000
  H   H580      1.0  0.21670  0.64837  0.36100  1.0000
  H   H581      1.0  0.20238  0.62715  0.34574  1.0000
  H   H582      1.0  0.18309  0.61450  0.35973  1.0000
  H   H583      1.0  0.17882  0.64076  0.35336  1.0000
  H   H584      1.0  0.17240  0.61638  0.39485  1.0000
  H   H585      1.0  0.16741  0.64263  0.38897  1.0000
  H   H586      1.0  0.18335  0.63117  0.40612  1.0000
  H   H587      1.0  0.20561  0.59869  0.38364  1.0000
  H   H588      1.0  0.21624  0.61373  0.39503  1.0000
  H   H589      1.0  0.22434  0.61223  0.36962  1.0000
  N   N32       1.0  0.28137  0.69349  0.43745  1.0000
  C   C382      1.0  0.26537  0.70998  0.43389  1.0000
  C   C383      1.0  0.29072  0.68676  0.41885  1.0000
  C   C384      1.0  0.29612  0.69994  0.44588  1.0000
  H   H590      1.0  0.25787  0.71526  0.44770  1.0000
  H   H591      1.0  0.27092  0.72256  0.42364  1.0000
  H   H592      1.0  0.30376  0.67533  0.42080  1.0000
  S   S150      1.0  0.27756  0.68127  0.32782  1.0000
  H   H593      1.0  0.30838  0.68776  0.44866  1.0000
  C   C385      1.0  0.07419  0.52691  0.19583  1.0000
  C   C386      1.0  0.22977  0.68056  0.23276  1.0000
  N   N33       1.0  0.08130  0.56603  0.05003  1.0000
  C   C387      1.0  0.06617  0.56157  0.06720  1.0000
  C   C388      1.0  0.08115  0.55389  0.03527  1.0000
  C   C389      1.0  0.10076  0.56177  0.05614  1.0000
  C   C390      1.0  0.07710  0.58694  0.04152  1.0000
  H   H594      1.0  0.06871  0.54587  0.07388  1.0000
  H   H595      1.0  0.05124  0.56492  0.06325  1.0000
  H   H596      1.0  0.06611  0.57034  0.07869  1.0000
  H   H597      1.0  0.09219  0.55710  0.02198  1.0000
  H   H598      1.0  0.08469  0.53803  0.04098  1.0000
  H   H599      1.0  0.06656  0.55634  0.03066  1.0000
  H   H600      1.0  0.10433  0.54616  0.06284  1.0000
  H   H601      1.0  0.10141  0.57083  0.06714  1.0000
  H   H602      1.0  0.11258  0.56483  0.04356  1.0000
  H   H603      1.0  0.08824  0.59090  0.02856  1.0000
  H   H604      1.0  0.07712  0.59653  0.05225  1.0000
  H   H605      1.0  0.06246  0.59071  0.03690  1.0000
  C   C391      1.0  0.03668  0.71733  0.05404  1.0000
  H   H606      1.0  0.22103  0.64689  0.25440  1.0000
  S   S151      1.0  0.12778  0.50841  0.09637  1.0000
  H   H607      1.0  0.26640  0.68157  0.46549  1.0000
  C   C392      1.0  0.12737  0.49202  0.06433  1.0000
  C   C393      1.0  0.19471  0.68891  0.23420  1.0000
  H   H608      1.0  0.19594  0.68511  0.21943  1.0000
  H   H609      1.0  0.19400  0.68154  0.27260  1.0000
  H   H610      1.0  0.02139  0.52736  0.28986  1.0000
  C   C394      1.0  0.07402  0.56994  0.44622  1.0000
  H   H611      1.0  0.11967  0.50671  0.25877  1.0000
  S   S152      1.0  0.12447  0.72880  0.09665  1.0000
  N   N34       1.0  0.21054  0.67725  0.24445  1.0000
  H   H612      1.0  0.23011  0.68151  0.48403  1.0000
  Fe  Fe75      1.0  0.16068  0.60754  0.47973  1.0000
  H   H613      1.0  0.32799  0.67261  0.36873  1.0000
  H   H614      1.0  0.24198  0.67206  0.24026  1.0000
  C   C395      1.0  0.31650  0.73714  0.37620  1.0000
  H   H615      1.0  0.21024  0.68563  0.45772  1.0000
  S   S153      1.0  0.07907  0.73774  0.11906  1.0000
  H   H616      1.0  0.10083  0.58584  0.45682  1.0000
  C   C396      1.0  0.30340  0.73861  0.34656  1.0000
  H   H617      1.0  0.16309  0.52439  0.13809  1.0000
  N   N35       1.0  0.17814  0.72426  0.13233  1.0000
  N   N36       1.0  0.17132  0.49466  0.13278  1.0000
  H   H618      1.0  0.03279  0.70927  0.04425  1.0000
  C   C397      1.0  0.16810  0.51598  0.12575  1.0000
  C   C398      1.0  0.08717  0.50313  0.06487  1.0000
  S   S154      1.0  0.09170  0.49784  0.37806  1.0000
  H   H619      1.0  0.15184  0.51046  0.23813  1.0000
  N   N37       1.0  0.07677  0.56985  0.46640  1.0000
  C   C399      1.0  0.03560  0.51793  0.28571  1.0000
  H   H620      1.0  0.08267  0.53848  0.47298  1.0000
  Fe  Fe76      1.0  0.11724  0.61585  0.47782  1.0000
  H   H621      1.0  0.32422  0.67106  0.47690  1.0000
  H   H622      1.0  0.17386  0.70492  0.11407  1.0000
  C   C400      1.0  0.06155  0.73000  0.06541  1.0000
  S   S155      1.0  0.13845  0.58796  0.48208  1.0000
  C   C401      1.0  0.09615  0.49871  0.20931  1.0000
  C   C402      1.0  0.06325  0.52762  0.21451  1.0000
  C   C403      1.0  0.14001  0.53098  0.26806  1.0000
  H   H623      1.0  0.05892  0.56784  0.44568  1.0000
  C   C404      1.0  0.09840  0.49304  0.05011  1.0000
  H   H624      1.0  0.07656  0.58404  0.43668  1.0000
  H   H625      1.0  0.17230  0.51215  0.24895  1.0000
  H   H626      1.0  0.20360  0.72061  0.11013  1.0000
  C   C405      1.0  0.16569  0.71724  0.12153  1.0000
  H   H627      1.0  0.04403  0.49835  0.33162  1.0000
  H   H628      1.0  0.13285  0.53759  0.25512  1.0000
  Fe  Fe77      1.0  0.11172  0.49422  0.34956  1.0000
  H   H629      1.0  0.16847  0.50829  0.28567  1.0000
  H   H630      1.0  0.18175  0.52109  0.11729  1.0000
  H   H631      1.0  0.15265  0.71209  0.13138  1.0000
  H   H632      1.0  0.06644  0.60065  0.46595  1.0000
  H   H633      1.0  0.14103  0.49228  0.13467  1.0000
  H   H634      1.0  0.16026  0.72910  0.11010  1.0000
  H   H635      1.0  0.03472  0.51222  0.27239  1.0000
  S   S156      1.0  0.28712  0.73205  0.33383  1.0000
  H   H636      1.0  0.08440  0.55806  0.43959  1.0000
  H   H637      1.0  0.06032  0.51481  0.24488  1.0000
  C   C406      1.0  0.08507  0.49946  0.22796  1.0000
  S   S157      1.0  0.13899  0.63524  0.47801  1.0000
  C   C407      1.0  0.04690  0.73902  0.07863  1.0000
  H   H638      1.0  0.19493  0.70487  0.23238  1.0000
  H   H639      1.0  0.04717  0.52744  0.28171  1.0000
  S   S158      1.0  0.32132  0.63710  0.44512  1.0000
  H   H640      1.0  0.17386  0.70138  0.15694  1.0000
  H   H641      1.0  0.20426  0.73742  0.12603  1.0000
  H   H642      1.0  0.32091  0.51686  0.98917  1.0000
  C   C408      1.0  0.04029  0.51004  0.31932  1.0000
  H   H643      1.0  0.07120  0.49944  0.29236  1.0000
  N   N38       1.0  0.04002  0.50181  0.30176  1.0000
  H   H644      1.0  0.14537  0.50372  0.30029  1.0000
  H   H645      1.0  0.19488  0.71277  0.15550  1.0000
  H   H646      1.0  0.02581  0.51849  0.32452  1.0000
  H   H647      1.0  0.05127  0.52007  0.31637  1.0000
  H   H648      1.0  0.32187  0.70361  0.33386  1.0000
  C   C409      1.0  0.06320  0.58623  0.47434  1.0000
  C   C410      1.0  0.07273  0.55113  0.47868  1.0000
  C   C411      1.0  0.02720  0.73765  0.07919  1.0000
  H   H649      1.0  0.04767  0.58546  0.47400  1.0000
  H   H650      1.0  0.32255  0.67798  0.33495  1.0000
  H   H651      1.0  0.09962  0.57277  0.48124  1.0000
  H   H652      1.0  0.14157  0.59689  0.57735  1.0000
  C   C412      1.0  0.08757  0.64998  0.53361  1.0000
  C   C413      1.0  0.09889  0.72905  0.60373  1.0000
  S   S159      1.0  0.25048  0.69203  0.56865  1.0000
  H   H653      1.0  0.18178  0.70168  0.60787  1.0000
  S   S160      1.0  0.29389  0.69068  0.66370  1.0000
  Fe  Fe78      1.0  0.01840  0.67177  0.62592  1.0000
  S   S161      1.0  0.02442  0.68751  0.59534  1.0000
  H   H654      1.0  0.06342  0.71905  0.60617  1.0000
  Fe  Fe79      1.0  0.03767  0.65782  0.58774  1.0000
  S   S162      1.0  0.03370  0.64246  0.61881  1.0000
  H   H655      1.0  0.29018  0.66555  0.48659  1.0000
  H   H656      1.0  0.09674  0.65996  0.53534  1.0000
  H   H657      1.0  0.28414  0.67302  0.79319  1.0000
  H   H658      1.0  0.30266  0.49560  0.63912  1.0000
  H   H659      1.0  0.30438  0.63483  0.57624  1.0000
  Fe  Fe80      1.0  0.24524  0.66294  0.58635  1.0000
  S   S163      1.0  0.26538  0.64590  0.60742  1.0000
  Fe  Fe81      1.0  0.20900  0.66266  0.56827  1.0000
  S   S164      1.0  0.21154  0.69190  0.54975  1.0000
  S   S165      1.0  0.18248  0.65053  0.56524  1.0000
  Fe  Fe82      1.0  0.24357  0.68038  0.54396  1.0000
  S   S166      1.0  0.25835  0.68179  0.51271  1.0000
  S   S167      1.0  0.24083  0.65041  0.56084  1.0000
  S   S168      1.0  0.21290  0.67216  0.59567  1.0000
  C   C414      1.0  0.28295  0.68486  0.50786  1.0000
  C   C415      1.0  0.12812  0.57696  0.55565  1.0000
  C   C416      1.0  0.07148  0.64611  0.54806  1.0000
  Fe  Fe83      1.0  0.00460  0.63796  0.61335  1.0000
  C   C417      1.0  0.29013  0.69691  0.51737  1.0000
  C   C418      1.0  0.29099  0.65891  0.80108  1.0000
  H   H660      1.0  0.28043  0.70440  0.52841  1.0000
  C   C419      1.0  0.18396  0.61606  0.51637  1.0000
  C   C420      1.0  0.16838  0.63100  0.52050  1.0000
  C   C421      1.0  0.16810  0.64153  0.53548  1.0000
  C   C422      1.0  0.18387  0.63792  0.54574  1.0000
  C   C423      1.0  0.19988  0.62359  0.54103  1.0000
  C   C424      1.0  0.19975  0.61248  0.52662  1.0000
  H   H661      1.0  0.15639  0.63423  0.51240  1.0000
  H   H662      1.0  0.15566  0.65260  0.53909  1.0000
  H   H663      1.0  0.21201  0.62056  0.54901  1.0000
  H   H664      1.0  0.21191  0.60098  0.52345  1.0000
  C   C425      1.0  0.05956  0.63335  0.54569  1.0000
  C   C426      1.0  0.06411  0.62406  0.52917  1.0000
  C   C427      1.0  0.08049  0.62761  0.51495  1.0000
  H   H665      1.0  0.04716  0.63023  0.55683  1.0000
  H   H666      1.0  0.05510  0.61388  0.52759  1.0000
  S   S169      1.0  0.02334  0.68228  0.65247  1.0000
  H   H667      1.0  0.21565  0.70347  0.61734  1.0000
  H   H668      1.0  0.00959  0.64506  0.66383  1.0000
  C   C428      1.0  0.02627  0.70687  0.65069  1.0000
  H   H669      1.0  0.15153  0.70511  0.63225  1.0000
  H   H670      1.0  0.30449  0.49994  0.94953  1.0000
  C   C429      1.0  0.33050  0.61970  0.61443  1.0000
  C   C430      1.0  0.28712  0.67763  0.64784  1.0000
  C   C431      1.0  0.28148  0.68786  0.63021  1.0000
  C   C432      1.0  0.27489  0.67826  0.61771  1.0000
  C   C433      1.0  0.27383  0.65831  0.62275  1.0000
  C   C434      1.0  0.27989  0.64794  0.64017  1.0000
  C   C435      1.0  0.28641  0.65757  0.65274  1.0000
  H   H671      1.0  0.28225  0.70331  0.62618  1.0000
  H   H672      1.0  0.27075  0.68630  0.60412  1.0000
  H   H673      1.0  0.27910  0.63249  0.64419  1.0000
  H   H674      1.0  0.29050  0.64957  0.66638  1.0000
  H   H675      1.0  0.20889  0.73923  0.65126  1.0000
  C   C436      1.0  0.09195  0.64091  0.51701  1.0000
  C   C437      1.0  0.03302  0.71240  0.66583  1.0000
  H   H676      1.0  0.10581  0.62283  0.56264  1.0000
  Fe  Fe84      1.0  0.21779  0.70061  0.57635  1.0000
  S   S170      1.0  0.30319  0.67138  0.71904  1.0000
  H   H677      1.0  0.32624  0.64588  0.76368  1.0000
  H   H678      1.0  0.31171  0.66243  0.53732  1.0000
  C   C438      1.0  0.18193  0.68142  0.50270  1.0000
  H   H679      1.0  0.09005  0.72918  0.64250  1.0000
  H   H680      1.0  0.11585  0.70324  0.63111  1.0000
  H   H681      1.0  0.31371  0.60059  0.55327  1.0000
  N   N39       1.0  0.22066  0.71069  0.64376  1.0000
  H   H682      1.0  0.06835  0.73628  0.63175  1.0000
  H   H683      1.0  0.09499  0.60405  0.55713  1.0000
  H   H684      1.0  0.30191  0.64019  0.77043  1.0000
  H   H685      1.0  0.32012  0.63502  0.81762  1.0000
  Fe  Fe85      1.0  0.32079  0.64131  0.71942  1.0000
  H   H686      1.0  0.20171  0.73468  0.62984  1.0000
  H   H687      1.0  0.32248  0.61839  0.65327  1.0000
  H   H688      1.0  0.11640  0.57285  0.54952  1.0000
  S   S171      1.0  0.30891  0.61510  0.73780  1.0000
  H   H689      1.0  0.10429  0.64409  0.50591  1.0000
  H   H690      1.0  0.12679  0.57011  0.57130  1.0000
  H   H691      1.0  0.10983  0.73497  0.60941  1.0000
  C   C439      1.0  0.15713  0.71804  0.62403  1.0000
  C   C440      1.0  0.18207  0.73263  0.59997  1.0000
  H   H692      1.0  0.20858  0.68548  0.66002  1.0000
  C   C441      1.0  0.21404  0.73189  0.63821  1.0000
  C   C442      1.0  0.17435  0.71606  0.61025  1.0000
  C   C443      1.0  0.03540  0.73187  0.66497  1.0000
  H   H693      1.0  0.14248  0.57034  0.54794  1.0000
  C   C444      1.0  0.12846  0.60674  0.53233  1.0000
  Fe  Fe86      1.0  0.31294  0.67554  0.68650  1.0000
  C   C445      1.0  0.14721  0.73662  0.62725  1.0000
  H   H694      1.0  0.06446  0.58625  0.48977  1.0000
  H   H695      1.0  0.10492  0.60032  0.57934  1.0000
  H   H696      1.0  0.01639  0.71695  0.62301  1.0000
  C   C446      1.0  0.31631  0.58629  0.79152  1.0000
  H   H697      1.0  0.15705  0.59787  0.55382  1.0000
  H   H698      1.0  0.03648  0.70157  0.67828  1.0000
  H   H699      1.0  0.07237  0.71305  0.64746  1.0000
  H   H700      1.0  0.23203  0.71375  0.66889  1.0000
  N   N40       1.0  0.12652  0.59842  0.55332  1.0000
  C   C447      1.0  0.07513  0.70701  0.61082  1.0000
  S   S172      1.0  0.00979  0.65102  0.58155  1.0000
  S   S173      1.0  0.08713  0.61434  0.49543  1.0000
  C   C448      1.0  0.30987  0.69964  0.51216  1.0000
  C   C449      1.0  0.31498  0.67809  0.48837  1.0000
  C   C450      1.0  0.32231  0.69015  0.49763  1.0000
  N   N41       1.0  0.08964  0.71441  0.61878  1.0000
  C   C451      1.0  0.32321  0.66808  0.79156  1.0000
  H   H701      1.0  0.28849  0.62006  0.53481  1.0000
  H   H702      1.0  0.10668  0.72262  0.59062  1.0000
  C   C452      1.0  0.32964  0.51024  0.71530  1.0000
  H   H703      1.0  0.14116  0.61942  0.56052  1.0000
  H   H704      1.0  0.28611  0.64940  0.56285  1.0000
  C   C453      1.0  0.22760  0.70174  0.62595  1.0000
  C   C454      1.0  0.14227  0.60332  0.56163  1.0000
  H   H705      1.0  0.30569  0.66516  0.76245  1.0000
  C   C455      1.0  0.10724  0.60670  0.56356  1.0000
  H   H706      1.0  0.20766  0.64794  0.50245  1.0000
  H   H707      1.0  0.00835  0.62410  0.65369  1.0000
  C   C456      1.0  0.29601  0.63505  0.56441  1.0000
  H   H708      1.0  0.14290  0.60096  0.52413  1.0000
  N   N42       1.0  0.19997  0.67752  0.48842  1.0000
  H   H709      1.0  0.12710  0.62293  0.53007  1.0000
  H   H710      1.0  0.31665  0.68272  0.78446  1.0000
  H   H711      1.0  0.09838  0.68671  0.63617  1.0000
  H   H712      1.0  0.30713  0.57972  0.80426  1.0000
  S   S174      1.0  0.06792  0.65587  0.56970  1.0000
  C   C457      1.0  0.29548  0.67532  0.49357  1.0000
  H   H713      1.0  0.24259  0.69178  0.65901  1.0000
  H   H714      1.0  0.28169  0.64775  0.80134  1.0000
  C   C458      1.0  0.28553  0.51870  0.97927  1.0000
  H   H715      1.0  0.23305  0.68579  0.62947  1.0000
  S   S175      1.0  0.12604  0.73830  0.64513  1.0000
  S   S176      1.0  0.18404  0.60135  0.49890  1.0000
  C   C459      1.0  0.31974  0.63413  0.80220  1.0000
  H   H716      1.0  0.29346  0.59355  0.77395  1.0000
  H   H717      1.0  0.11690  0.60323  0.52552  1.0000
  N   N43       1.0  0.30915  0.63200  0.54585  1.0000
  S   S177      1.0  0.20490  0.73040  0.58438  1.0000
  H   H718      1.0  0.31104  0.62248  0.80251  1.0000
  H   H719      1.0  0.24935  0.71476  0.64664  1.0000
  C   C460      1.0  0.23681  0.70762  0.65509  1.0000
  H   H720      1.0  0.99965  0.72301  0.58320  1.0000
  H   H721      1.0  0.16959  0.67558  0.49937  1.0000
  C   C461      1.0  0.02168  0.72102  0.63473  1.0000
  C   C462      1.0  0.32047  0.50851  0.97754  1.0000
  H   H722      1.0  0.07485  0.55054  0.49397  1.0000
  C   C463      1.0  0.32110  0.64786  0.53948  1.0000
  H   H723      1.0  0.04057  0.73600  0.67676  1.0000
  H   H724      1.0  0.11288  0.69084  0.61227  1.0000
  C   C464      1.0  0.31237  0.49219  0.64982  1.0000
  H   H725      1.0  0.21896  0.67637  0.50905  1.0000
  H   H726      1.0  0.32366  0.51804  0.96314  1.0000
  H   H727      1.0  0.21291  0.70012  0.49516  1.0000
  C   C465      1.0  0.30857  0.59418  0.77439  1.0000
  H   H728      1.0  0.23965  0.70872  0.61621  1.0000
  C   C466      1.0  0.32218  0.61296  0.54872  1.0000
  H   H729      1.0  0.28766  0.52871  0.96504  1.0000
  C   C467      1.0  0.00828  0.62927  0.66752  1.0000
  C   C468      1.0  0.10486  0.69804  0.62484  1.0000
  H   H730      1.0  0.17722  0.69736  0.50285  1.0000
  H   H731      1.0  0.00394  0.62409  0.70671  1.0000
  C   C469      1.0  0.31125  0.65098  0.77116  1.0000
  H   H732      1.0  0.18419  0.67453  0.51781  1.0000
  C   C470      1.0  0.32001  0.60354  0.75814  1.0000
  H   H733      1.0  0.19845  0.70791  0.66929  1.0000
  H   H734      1.0  0.31467  0.62448  0.61973  1.0000
  C   C471      1.0  0.21617  0.68422  0.49435  1.0000
  H   H735      1.0  0.28678  0.64608  0.52878  1.0000
  H   H736      1.0  0.28654  0.62352  0.56960  1.0000
  H   H737      1.0  0.31547  0.70901  0.51939  1.0000
  C   C472      1.0  0.20501  0.65630  0.48793  1.0000
  H   H738      1.0  0.19168  0.70365  0.64755  1.0000
  N   N44       1.0  0.31131  0.65302  0.79151  1.0000
  C   C473      1.0  0.07964  0.72361  0.63587  1.0000
  C   C474      1.0  0.29728  0.63218  0.53077  1.0000
  H   H739      1.0  0.06773  0.69607  0.62191  1.0000
  H   H740      1.0  0.22601  0.73922  0.62873  1.0000
  C   C475      1.0  0.20412  0.70151  0.65571  1.0000
  H   H741      1.0  0.02169  0.62133  0.67331  1.0000
  N   N45       1.0  0.30144  0.50171  0.98004  1.0000
  H   H742      1.0  0.30666  0.63067  0.51635  1.0000
  H   H743      1.0  0.29046  0.66074  0.81643  1.0000
  H   H744      1.0  0.31705  0.51489  0.72650  1.0000
  H   H745      1.0  0.08209  0.69983  0.59792  1.0000
  H   H746      1.0  0.00177  0.59592  0.69165  1.0000
  H   H747      1.0  0.27102  0.51397  0.98103  1.0000
  H   H748      1.0  0.32445  0.66936  0.80664  1.0000
  S   S178      1.0  0.32786  0.64463  0.68681  1.0000
  H   H749      1.0  0.32479  0.51467  0.70081  1.0000
  H   H750      1.0  0.32991  0.54579  0.72352  1.0000
  H   H751      1.0  0.32408  0.65107  0.63236  1.0000
  S   S179      1.0  0.32950  0.69841  0.74496  1.0000
  H   H752      1.0  0.33034  0.64810  0.55043  1.0000
  C   C476      1.0  0.02360  0.74061  0.63410  1.0000
  Fe  Fe87      1.0  0.08653  0.76670  0.12110  1.0000
  S   S180      1.0  0.10054  0.77297  0.08969  1.0000
  S   S181      1.0  0.06543  0.79133  0.13301  1.0000
  H   H753      1.0  0.17364  0.85219  0.10061  1.0000
  Fe  Fe88      1.0  0.12819  0.75844  0.10119  1.0000
  S   S182      1.0  0.15739  0.76929  0.09026  1.0000
  C   C477      1.0  0.30896  0.84503  0.04587  1.0000
  S   S183      1.0  0.11453  0.75379  0.13280  1.0000
  H   H754      1.0  0.06637  0.87041  0.00848  1.0000
  H   H755      1.0  0.05069  0.74744  0.08815  1.0000
  H   H756      1.0  0.30434  0.85106  0.21492  1.0000
  H   H757      1.0  0.26330  0.88197  0.00307  1.0000
  S   S184      1.0  0.01680  0.91795  0.04103  1.0000
  C   C478      1.0  0.14059  0.86118  0.12571  1.0000
  H   H758      1.0  0.14993  0.84743  0.13133  1.0000
  S   S185      1.0  0.28999  0.91710  0.19368  1.0000
  S   S186      1.0  0.16460  0.93601  0.99742  1.0000
  C   C479      1.0  0.30701  0.86903  0.10984  1.0000
  C   C480      1.0  0.28137  0.84497  0.24945  1.0000
  Fe  Fe89      1.0  0.25092  0.85169  0.09063  1.0000
  S   S187      1.0  0.25493  0.87621  0.10439  1.0000
  S   S188      1.0  0.27119  0.84339  0.06374  1.0000
  Fe  Fe90      1.0  0.21544  0.84169  0.12069  1.0000
  S   S189      1.0  0.21692  0.86552  0.13717  1.0000
  S   S190      1.0  0.18971  0.82518  0.13261  1.0000
  Fe  Fe91      1.0  0.22226  0.88360  0.10743  1.0000
  S   S191      1.0  0.20778  0.91480  0.10198  1.0000
  Fe  Fe92      1.0  0.24949  0.85596  0.13279  1.0000
  S   S192      1.0  0.27054  0.85077  0.15456  1.0000
  S   S193      1.0  0.21852  0.86075  0.09125  1.0000
  S   S194      1.0  0.24775  0.83043  0.11873  1.0000
  Fe  Fe93      1.0  0.12685  0.90089  0.00426  1.0000
  S   S195      1.0  0.11832  0.93235  0.00771  1.0000
  S   S196      1.0  0.10355  0.88189  0.00753  1.0000
  Fe  Fe94      1.0  0.14345  0.92674  0.02402  1.0000
  S   S197      1.0  0.13978  0.93875  0.05168  1.0000
  S   S198      1.0  0.15059  0.89474  0.02272  1.0000
  C   C481      1.0  0.18980  0.92132  0.08689  1.0000
  C   C482      1.0  0.18913  0.91041  0.07256  1.0000
  C   C483      1.0  0.17424  0.91607  0.06099  1.0000
  C   C484      1.0  0.15978  0.93230  0.06421  1.0000
  C   C485      1.0  0.16051  0.94305  0.07856  1.0000
  C   C486      1.0  0.17560  0.93774  0.08966  1.0000
  H   H759      1.0  0.20005  0.89772  0.07037  1.0000
  H   H760      1.0  0.17367  0.90768  0.04995  1.0000
  H   H761      1.0  0.14936  0.95557  0.08109  1.0000
  H   H762      1.0  0.17608  0.94624  0.10067  1.0000
  H   H763      1.0  0.21454  0.88654  0.03523  1.0000
  C   C487      1.0  0.30866  0.88283  0.05245  1.0000
  C   C488      1.0  0.29182  0.87397  0.05895  1.0000
  C   C489      1.0  0.29195  0.85503  0.05567  1.0000
  N   N46       1.0  0.15261  0.87496  0.11256  1.0000
  H   H764      1.0  0.31168  0.84873  0.26568  1.0000
  H   H765      1.0  0.30856  0.89736  0.05524  1.0000
  H   H766      1.0  0.27879  0.88189  0.06638  1.0000
  C   C490      1.0  0.27621  0.86993  0.16422  1.0000
  C   C491      1.0  0.26415  0.88815  0.16389  1.0000
  C   C492      1.0  0.26865  0.90260  0.17273  1.0000
  C   C493      1.0  0.28551  0.89917  0.18146  1.0000
  C   C494      1.0  0.29790  0.88119  0.18113  1.0000
  C   C495      1.0  0.29310  0.86653  0.17288  1.0000
  H   H767      1.0  0.25107  0.89095  0.15731  1.0000
  H   H768      1.0  0.25895  0.91647  0.17291  1.0000
  H   H769      1.0  0.31099  0.87844  0.18759  1.0000
  H   H770      1.0  0.30247  0.85246  0.17332  1.0000
  H   H771      1.0  0.31148  0.84115  0.14125  1.0000
  C   C496      1.0  0.32581  0.87262  0.04303  1.0000
  C   C497      1.0  0.28264  0.87879  0.23536  1.0000
  C   C498      1.0  0.04082  0.90728  0.03238  1.0000
  C   C499      1.0  0.05656  0.91604  0.03379  1.0000
  C   C500      1.0  0.07584  0.90803  0.02668  1.0000
  C   C501      1.0  0.07949  0.89168  0.01736  1.0000
  C   C502      1.0  0.06372  0.88298  0.01580  1.0000
  C   C503      1.0  0.04443  0.89061  0.02351  1.0000
  H   H772      1.0  0.05387  0.92880  0.04086  1.0000
  H   H773      1.0  0.08782  0.91434  0.02881  1.0000
  C   C504      1.0  0.18066  0.81042  0.12001  1.0000
  C   C505      1.0  0.16262  0.80408  0.12800  1.0000
  C   C506      1.0  0.15499  0.79207  0.11869  1.0000
  C   C507      1.0  0.16556  0.78589  0.10148  1.0000
  C   C508      1.0  0.18353  0.79234  0.09340  1.0000
  C   C509      1.0  0.19099  0.80470  0.10252  1.0000
  H   H774      1.0  0.15453  0.80842  0.14153  1.0000
  H   H775      1.0  0.14107  0.78735  0.12500  1.0000
  H   H776      1.0  0.19178  0.78770  0.08006  1.0000
  H   H777      1.0  0.20489  0.80948  0.09621  1.0000
  C   C510      1.0  0.04673  0.79983  0.11893  1.0000
  C   C511      1.0  0.04423  0.78890  0.10542  1.0000
  C   C512      1.0  0.03013  0.79620  0.09329  1.0000
  H   H778      1.0  0.30938  0.82102  0.10728  1.0000
  C   C513      1.0  0.02127  0.82571  0.10773  1.0000
  C   C514      1.0  0.03507  0.81815  0.12026  1.0000
  H   H779      1.0  0.05321  0.77482  0.10429  1.0000
  H   H780      1.0  0.24788  0.88810  0.05567  1.0000
  Fe  Fe95      1.0  0.17015  0.90427  0.99474  1.0000
  H   H781      1.0  0.03702  0.82665  0.13068  1.0000
  H   H782      1.0  0.29114  0.86733  0.27170  1.0000
  H   H783      1.0  0.23575  0.90798  0.99771  1.0000
  Fe  Fe96      1.0  0.31924  0.91529  0.20335  1.0000
  H   H784      1.0  0.31771  0.75539  0.32081  1.0000
  H   H785      1.0  0.01251  0.83997  0.10857  1.0000
  C   C515      1.0  0.01885  0.81472  0.09421  1.0000
  H   H786      1.0  0.15366  0.86170  0.08741  1.0000
  C   C516      1.0  0.13976  0.89304  0.10547  1.0000
  C   C517      1.0  0.22980  0.88025  0.02940  1.0000
  C   C518      1.0  0.16364  0.86576  0.09577  1.0000
  H   H787      1.0  0.02833  0.78765  0.08284  1.0000
  H   H788      1.0  0.13090  0.90018  0.11776  1.0000
  H   H789      1.0  0.01600  0.74500  0.08925  1.0000
  H   H790      1.0  0.22089  0.91881  0.01767  1.0000
  H   H791      1.0  0.31262  0.87367  0.25524  1.0000
  H   H792      1.0  0.22932  0.87505  0.01566  1.0000
  H   H793      1.0  0.14845  0.90394  0.09600  1.0000
  H   H794      1.0  0.29644  0.84212  0.09396  1.0000
  H   H795      1.0  0.31719  0.87849  0.11170  1.0000
  H   H796      1.0  0.25454  0.91103  0.04260  1.0000
  H   H797      1.0  0.17541  0.74646  0.15010  1.0000
  Fe  Fe97      1.0  0.09528  0.74284  0.08850  1.0000
  H   H798      1.0  0.03232  0.88391  0.02215  1.0000
  C   C519      1.0  0.24373  0.90092  0.04453  1.0000
  H   H799      1.0  0.31964  0.86535  0.22166  1.0000
  C   C520      1.0  0.26303  0.88597  0.01756  1.0000
  S   S199      1.0  0.31518  0.93262  0.02587  1.0000
  H   H800      1.0  0.17277  0.87577  0.08549  1.0000
  N   N47       1.0  0.29421  0.86005  0.24299  1.0000
  H   H801      1.0  0.22925  0.90873  0.05066  1.0000
  N   N48       1.0  0.24314  0.89480  0.02588  1.0000
  H   H802      1.0  0.28969  0.83060  0.25513  1.0000
  H   H803      1.0  0.17618  0.88978  0.11377  1.0000
  C   C521      1.0  0.16647  0.87984  0.12333  1.0000
  S   S200      1.0  0.20231  0.89277  0.98847  1.0000
  H   H804      1.0  0.17608  0.86650  0.12929  1.0000
  H   H805      1.0  0.28990  0.83662  0.11987  1.0000
  H   H806      1.0  0.27041  0.88397  0.24663  1.0000
  Fe  Fe98      1.0  0.31153  0.93582  0.99455  1.0000
  H   H807      1.0  0.13004  0.85705  0.11806  1.0000
  N   N49       1.0  0.07341  0.83246  0.05805  1.0000
  C   C522      1.0  0.07226  0.81315  0.05363  1.0000
  C   C523      1.0  0.08909  0.84109  0.04387  1.0000
  C   C524      1.0  0.07787  0.83007  0.07799  1.0000
  C   C525      1.0  0.05445  0.84550  0.05674  1.0000
  H   H808      1.0  0.06876  0.81438  0.03875  1.0000
  H   H809      1.0  0.06066  0.80618  0.06414  1.0000
  H   H810      1.0  0.08631  0.80291  0.05445  1.0000
  H   H811      1.0  0.09025  0.85579  0.04661  1.0000
  H   H812      1.0  0.10364  0.83173  0.04456  1.0000
  H   H813      1.0  0.08635  0.84299  0.02862  1.0000
  H   H814      1.0  0.07873  0.84436  0.08189  1.0000
  H   H815      1.0  0.09203  0.82023  0.07959  1.0000
  H   H816      1.0  0.06639  0.82354  0.08903  1.0000
  H   H817      1.0  0.05484  0.86033  0.05967  1.0000
  H   H818      1.0  0.04234  0.83957  0.06748  1.0000
  H   H819      1.0  0.05039  0.84731  0.04202  1.0000
  H   H820      1.0  0.18908  0.74446  0.10754  1.0000
  H   H821      1.0  0.31988  0.84036  0.23287  1.0000
  H   H822      1.0  0.26848  0.87245  0.02722  1.0000
  H   H823      1.0  0.15871  0.88724  0.13583  1.0000
  H   H824      1.0  0.30913  0.83042  0.04322  1.0000
  H   H825      1.0  0.24564  0.92342  0.00933  1.0000
  H   H826      1.0  0.27372  0.89622  0.01551  1.0000
  C   C526      1.0  0.31017  0.85389  0.22741  1.0000
  C   C527      1.0  0.30269  0.86254  0.25967  1.0000
  S   S201      1.0  0.32380  0.91070  0.23465  1.0000
  H   H827      1.0  0.26921  0.84911  0.26128  1.0000
  H   H828      1.0  0.27623  0.87755  0.22257  1.0000
  H   H829      1.0  0.12950  0.89010  0.09672  1.0000
  C   C528      1.0  0.31737  0.75022  0.33628  1.0000
  H   H830      1.0  0.23458  0.86716  0.04003  1.0000
  H   H831      1.0  0.30149  0.87525  0.09589  1.0000
  N   N50       1.0  0.31669  0.84849  0.11001  1.0000
  C   C529      1.0  0.23604  0.91203  0.01204  1.0000
  H   H832      1.0  0.29423  0.87032  0.12183  1.0000
  H   H833      1.0  0.27465  0.84284  0.23719  1.0000
  H   H834      1.0  0.13210  0.86759  0.13859  1.0000
  H   H835      1.0  0.05999  0.92330  0.98642  1.0000
  H   H836      1.0  0.29186  0.89052  0.23036  1.0000
  C   C530      1.0  0.32382  0.84089  0.12875  1.0000
  H   H837      1.0  0.15947  0.75209  0.13227  1.0000
  C   C531      1.0  0.30253  0.83652  0.10768  1.0000
  S   S202      1.0  0.00262  0.82393  0.07756  1.0000
  S   S203      1.0  0.28367  0.92984  0.98692  1.0000
  C   C532      1.0  0.32593  0.85367  0.03984  1.0000
  H   H838      1.0  0.99893  0.96758  0.03989  1.0000
  H   H839      1.0  0.32843  0.85279  0.07947  1.0000
  H   H840      1.0  0.07788  0.94474  0.99733  1.0000
  C   C533      1.0  0.33063  0.74855  0.36585  1.0000
  H   H841      1.0  0.33048  0.94434  0.09761  1.0000
  Fe  Fe99      1.0  0.17628  0.87800  0.76511  1.0000
  S   S204      1.0  0.15447  0.85758  0.76860  1.0000
  S   S205      1.0  0.20264  0.86765  0.78048  1.0000
  Fe  Fe100     1.0  0.15402  0.90918  0.73784  1.0000
  S   S206      1.0  0.13030  0.89167  0.73936  1.0000
  S   S207      1.0  0.15462  0.93961  0.72092  1.0000
  Fe  Fe101     1.0  0.13206  0.88450  0.77125  1.0000
  S   S208      1.0  0.10377  0.88448  0.79211  1.0000
  Fe  Fe102     1.0  0.15462  0.86636  0.73635  1.0000
  S   S209      1.0  0.15695  0.84444  0.71607  1.0000
  S   S210      1.0  0.15362  0.90429  0.77018  1.0000
  S   S211      1.0  0.17857  0.88446  0.73242  1.0000
  S   S212      1.0  0.14773  0.95881  0.86840  1.0000
  H   H842      1.0  0.06589  0.96600  0.98326  1.0000
  Fe  Fe103     1.0  0.24987  0.87942  0.88917  1.0000
  S   S213      1.0  0.23880  0.91126  0.88099  1.0000
  S   S214      1.0  0.22679  0.86294  0.90761  1.0000
  Fe  Fe104     1.0  0.28963  0.88207  0.86409  1.0000
  S   S215      1.0  0.28112  0.91416  0.85334  1.0000
  H   H843      1.0  0.19093  0.93129  0.92063  1.0000
  Fe  Fe105     1.0  0.26829  0.91575  0.88477  1.0000
  S   S216      1.0  0.27363  0.94041  0.89816  1.0000
  Fe  Fe106     1.0  0.25240  0.90636  0.85056  1.0000
  S   S217      1.0  0.23293  0.92036  0.82790  1.0000
  S   S218      1.0  0.27829  0.88421  0.89573  1.0000
  S   S219      1.0  0.26199  0.87407  0.85860  1.0000
  H   H844      1.0  0.19843  0.91717  0.86190  1.0000
  H   H845      1.0  0.00672  0.96880  0.64091  1.0000
  H   H846      1.0  0.21055  0.91481  0.93057  1.0000
  C   C534      1.0  0.21526  0.93770  0.95521  1.0000
  C   C535      1.0  0.27158  0.91966  0.95626  1.0000
  Fe  Fe107     1.0  0.08635  0.80048  0.66812  1.0000
  S   S220      1.0  0.11164  0.79772  0.64334  1.0000
  S   S221      1.0  0.08458  0.81840  0.69216  1.0000
  Fe  Fe108     1.0  0.06124  0.77928  0.65019  1.0000
  S   S222      1.0  0.08468  0.77543  0.62433  1.0000
  S   S223      1.0  0.07600  0.96869  0.81513  1.0000
  Fe  Fe109     1.0  0.10546  0.76710  0.64585  1.0000
  H   H847      1.0  0.23307  0.93825  0.91781  1.0000
  Fe  Fe110     1.0  0.08822  0.80619  0.62440  1.0000
  S   S224      1.0  0.08888  0.82771  0.59646  1.0000
  S   S225      1.0  0.08164  0.76905  0.67215  1.0000
  S   S226      1.0  0.06335  0.81087  0.64874  1.0000
  H   H848      1.0  0.17030  0.86678  0.87260  1.0000
  H   H849      1.0  0.08801  0.80623  0.78533  1.0000
  C   C536      1.0  0.13122  0.97653  0.90031  1.0000
  H   H850      1.0  0.21079  0.98869  0.78067  1.0000
  H   H851      1.0  0.32157  0.90441  0.95532  1.0000
  Fe  Fe111     1.0  0.00751  0.92909  0.57598  1.0000
  H   H852      1.0  0.08784  0.74169  0.59890  1.0000
  H   H853      1.0  0.17176  0.88226  0.84916  1.0000
  H   H854      1.0  0.06438  0.95018  0.59638  1.0000
  H   H855      1.0  0.14702  0.76765  0.61906  1.0000
  H   H856      1.0  0.20143  0.95568  0.82822  1.0000
  C   C537      1.0  0.09603  0.92684  0.96674  1.0000
  C   C538      1.0  0.31254  0.84134  0.83810  1.0000
  C   C539      1.0  0.12236  0.93836  0.67993  1.0000
  H   H857      1.0  0.17014  0.89824  0.89646  1.0000
  C   C540      1.0  0.18090  0.96983  0.79888  1.0000
  C   C541      1.0  0.17041  0.88218  0.86512  1.0000
  C   C542      1.0  0.06538  0.83423  0.59014  1.0000
  C   C543      1.0  0.05007  0.84436  0.60199  1.0000
  C   C544      1.0  0.03213  0.85191  0.59548  1.0000
  C   C545      1.0  0.02920  0.84856  0.57750  1.0000
  C   C546      1.0  0.04420  0.83769  0.56610  1.0000
  C   C547      1.0  0.06239  0.83091  0.57220  1.0000
  H   H858      1.0  0.05237  0.84704  0.61583  1.0000
  H   H859      1.0  0.04198  0.83506  0.55220  1.0000
  H   H860      1.0  0.07418  0.82311  0.56299  1.0000
  H   H861      1.0  0.10982  0.93317  0.96298  1.0000
  C   C548      1.0  0.20549  0.87838  0.86262  1.0000
  H   H862      1.0  0.02343  0.94947  0.63071  1.0000
  S   S227      1.0  0.14731  0.90710  0.97579  1.0000
  C   C549      1.0  0.22032  0.87013  0.93061  1.0000
  C   C550      1.0  0.20121  0.86983  0.94080  1.0000
  C   C551      1.0  0.19561  0.87663  0.95871  1.0000
  C   C552      1.0  0.20925  0.88325  0.96666  1.0000
  C   C553      1.0  0.22850  0.88302  0.95675  1.0000
  C   C554      1.0  0.23394  0.87679  0.93856  1.0000
  H   H863      1.0  0.19071  0.86445  0.93481  1.0000
  H   H864      1.0  0.09213  0.96074  0.97978  1.0000
  H   H865      1.0  0.23914  0.88795  0.96296  1.0000
  H   H866      1.0  0.24876  0.87680  0.93087  1.0000
  C   C555      1.0  0.28151  0.93238  0.96213  1.0000
  C   C556      1.0  0.03564  0.96112  0.58890  1.0000
  H   H867      1.0  0.29151  0.96163  0.91830  1.0000
  C   C557      1.0  0.27665  0.93678  0.92282  1.0000
  C   C558      1.0  0.28615  0.94972  0.92882  1.0000
  H   H868      1.0  0.04728  0.94441  0.97278  1.0000
  H   H869      1.0  0.26210  0.91155  0.93210  1.0000
  C   C559      1.0  0.15107  0.94471  0.90670  1.0000
  C   C560      1.0  0.14740  0.94562  0.92677  1.0000
  H   H870      1.0  0.16009  0.93203  0.90143  1.0000
  H   H871      1.0  0.15350  0.93362  0.93694  1.0000
  C   C561      1.0  0.13677  0.83827  0.70848  1.0000
  C   C562      1.0  0.13999  0.82313  0.69743  1.0000
  C   C563      1.0  0.12422  0.81730  0.69176  1.0000
  C   C564      1.0  0.10504  0.82646  0.69728  1.0000
  C   C565      1.0  0.10188  0.84190  0.70800  1.0000
  C   C566      1.0  0.11769  0.84799  0.71333  1.0000
  H   H872      1.0  0.15471  0.81561  0.69349  1.0000
  H   H873      1.0  0.12685  0.80538  0.68355  1.0000
  H   H874      1.0  0.08710  0.84920  0.71213  1.0000
  H   H875      1.0  0.11510  0.86000  0.72138  1.0000
  C   C567      1.0  0.21091  0.88263  0.79341  1.0000
  C   C568      1.0  0.20211  0.90207  0.79400  1.0000
  C   C569      1.0  0.20918  0.91353  0.80441  1.0000
  C   C570      1.0  0.22496  0.90564  0.81444  1.0000
  C   C571      1.0  0.23377  0.88623  0.81382  1.0000
  C   C572      1.0  0.22676  0.87479  0.80336  1.0000
  H   H876      1.0  0.18996  0.90829  0.78633  1.0000
  H   H877      1.0  0.20228  0.92849  0.80480  1.0000
  H   H878      1.0  0.24607  0.88001  0.82127  1.0000
  H   H879      1.0  0.23371  0.85979  0.80290  1.0000
  C   C573      1.0  0.09622  0.90735  0.79977  1.0000
  C   C574      1.0  0.10953  0.91685  0.80518  1.0000
  C   C575      1.0  0.10336  0.93546  0.81063  1.0000
  C   C576      1.0  0.08398  0.94472  0.81026  1.0000
  C   C577      1.0  0.07072  0.93513  0.80496  1.0000
  C   C578      1.0  0.07676  0.91641  0.79996  1.0000
  H   H880      1.0  0.12448  0.90972  0.80548  1.0000
  H   H881      1.0  0.11362  0.94264  0.81492  1.0000
  H   H882      1.0  0.05572  0.94222  0.80470  1.0000
  H   H883      1.0  0.06641  0.90913  0.79585  1.0000
  C   C579      1.0  0.14212  0.94613  0.70091  1.0000
  C   C580      1.0  0.13109  0.93347  0.69675  1.0000
  C   C581      1.0  0.13476  0.96906  0.67190  1.0000
  C   C582      1.0  0.14370  0.96406  0.68861  1.0000
  H   H884      1.0  0.12952  0.91980  0.70625  1.0000
  C   C583      1.0  0.14291  0.96013  0.89346  1.0000
  H   H885      1.0  0.17109  0.97989  0.83446  1.0000
  S   S228      1.0  0.00728  0.85856  0.56864  1.0000
  S   S229      1.0  0.13174  0.96434  0.95839  1.0000
  H   H886      1.0  0.17223  0.92015  0.86416  1.0000
  C   C584      1.0  0.13603  0.96223  0.93354  1.0000
  S   S230      1.0  0.03482  0.93962  0.57992  1.0000
  H   H887      1.0  0.11395  0.92850  0.67662  1.0000
  C   C585      1.0  0.28895  0.94730  0.94831  1.0000
  H   H888      1.0  0.15593  0.89087  0.86995  1.0000
  H   H889      1.0  0.20687  0.86316  0.87083  1.0000
  H   H890      1.0  0.29810  0.84999  0.83844  1.0000
  S   S231      1.0  0.03220  0.77082  0.64848  1.0000
  H   H891      1.0  0.22737  0.92517  0.95355  1.0000
  C   C586      1.0  0.18959  0.96001  0.94061  1.0000
  H   H892      1.0  0.29635  0.95735  0.95276  1.0000
  H   H893      1.0  0.11555  0.97945  0.72323  1.0000
  H   H894      1.0  0.13646  0.98270  0.66220  1.0000
  Fe  Fe112     1.0  0.14027  0.93821  0.98070  1.0000
  H   H895      1.0  0.20454  0.93298  0.96826  1.0000
  S   S232      1.0  0.09470  0.98567  0.85756  1.0000
  H   H896      1.0  0.09627  0.91710  0.98108  1.0000
  C   C587      1.0  0.12798  0.97765  0.92028  1.0000
  C   C588      1.0  0.18620  0.91069  0.85925  1.0000
  C   C589      1.0  0.07927  0.95522  0.94819  1.0000
  C   C590      1.0  0.26947  0.92161  0.93657  1.0000
  S   S233      1.0  0.11491  0.96098  0.64551  1.0000
  H   H897      1.0  0.21615  0.97469  0.82333  1.0000
  H   H898      1.0  0.22154  0.94980  0.95840  1.0000
  C   C591      1.0  0.32365  0.90133  0.94015  1.0000
  H   H899      1.0  0.08304  0.97797  0.74441  1.0000
  N   N51       1.0  0.10002  0.83263  0.77341  1.0000
  C   C592      1.0  0.09353  0.85255  0.76334  1.0000
  C   C593      1.0  0.10621  0.83393  0.79181  1.0000
  C   C594      1.0  0.11665  0.82274  0.76071  1.0000
  C   C595      1.0  0.08363  0.82136  0.77778  1.0000
  H   H900      1.0  0.08829  0.85219  0.74962  1.0000
  H   H901      1.0  0.10564  0.86134  0.75954  1.0000
  H   H902      1.0  0.08141  0.86068  0.77276  1.0000
  H   H903      1.0  0.11101  0.81922  0.80000  1.0000
  H   H904      1.0  0.11862  0.84227  0.78901  1.0000
  H   H905      1.0  0.09415  0.84175  0.80156  1.0000
  H   H906      1.0  0.12255  0.80803  0.76817  1.0000
  H   H907      1.0  0.12895  0.83135  0.75622  1.0000
  H   H908      1.0  0.07084  0.82844  0.78734  1.0000
  H   H909      1.0  0.07857  0.82018  0.76417  1.0000
  H   H910      1.0  0.21808  0.88469  0.86463  1.0000
  N   N52       1.0  0.16868  0.88973  0.67060  1.0000
  C   C596      1.0  0.16956  0.89090  0.64940  1.0000
  C   C597      1.0  0.14887  0.88662  0.68085  1.0000
  C   C598      1.0  0.17299  0.90817  0.67445  1.0000
  C   C599      1.0  0.18326  0.87320  0.67770  1.0000
  H   H911      1.0  0.16635  0.87720  0.64602  1.0000
  H   H912      1.0  0.18429  0.89327  0.64116  1.0000
  H   H913      1.0  0.15866  0.90323  0.64363  1.0000
  H   H914      1.0  0.14755  0.88599  0.69686  1.0000
  H   H915      1.0  0.13743  0.89854  0.67557  1.0000
  H   H916      1.0  0.14534  0.87259  0.67865  1.0000
  H   H917      1.0  0.17154  0.90823  0.69040  1.0000
  H   H918      1.0  0.16281  0.92107  0.66850  1.0000
  H   H919      1.0  0.18813  0.91057  0.66764  1.0000
  H   H920      1.0  0.19838  0.87477  0.67009  1.0000
  H   H921      1.0  0.18010  0.85896  0.67557  1.0000
  H   H922      1.0  0.18312  0.87208  0.69361  1.0000
  N   N53       1.0  0.07685  0.89212  0.56544  1.0000
  C   C600      1.0  0.05828  0.89130  0.55919  1.0000
  C   C601      1.0  0.09196  0.87593  0.55914  1.0000
  C   C602      1.0  0.07376  0.89024  0.58694  1.0000
  C   C603      1.0  0.08336  0.91102  0.55652  1.0000
  H   H923      1.0  0.04648  0.90315  0.56393  1.0000
  H   H924      1.0  0.05304  0.87719  0.56555  1.0000
  H   H925      1.0  0.05992  0.89280  0.54305  1.0000
  H   H926      1.0  0.10604  0.87574  0.56404  1.0000
  H   H927      1.0  0.08736  0.86147  0.56538  1.0000
  H   H928      1.0  0.09481  0.87695  0.54299  1.0000
  H   H929      1.0  0.08736  0.89114  0.59220  1.0000
  H   H930      1.0  0.06932  0.87593  0.59412  1.0000
  H   H931      1.0  0.06208  0.90196  0.59223  1.0000
  H   H932      1.0  0.07230  0.92352  0.56109  1.0000
  H   H933      1.0  0.08562  0.91302  0.54031  1.0000
  H   H934      1.0  0.09735  0.91213  0.56092  1.0000
  S   S234      1.0  0.00630  0.91518  0.55025  1.0000
  N   N54       1.0  0.07864  0.94231  0.96738  1.0000
  H   H935      1.0  0.18516  0.87453  0.89877  1.0000
  H   H936      1.0  0.00519  0.91542  0.65692  1.0000
  C   C604      1.0  0.12077  0.98345  0.73556  1.0000
  H   H937      1.0  0.99921  0.94694  0.60978  1.0000
  C   C605      1.0  0.22068  0.95029  0.92070  1.0000
  H   H938      1.0  0.06669  0.97960  0.60934  1.0000
  C   C606      1.0  0.11768  0.98077  0.77050  1.0000
  N   N55       1.0  0.19182  0.98075  0.80769  1.0000
  C   C607      1.0  0.18439  0.88979  0.89069  1.0000
  H   H939      1.0  0.12953  0.94730  0.75706  1.0000
  C   C608      1.0  0.31736  0.82478  0.82885  1.0000
  N   N56       1.0  0.18662  0.89027  0.86943  1.0000
  H   H940      1.0  0.06630  0.96701  0.94799  1.0000
  H   H941      1.0  0.15217  0.97395  0.69177  1.0000
  H   H942      1.0  0.18085  0.87637  0.96655  1.0000
  C   C609      1.0  0.15459  0.75326  0.61662  1.0000
  H   H943      1.0  0.13368  0.97560  0.76993  1.0000
  C   C610      1.0  0.07862  0.95396  0.98260  1.0000
  H   H944      1.0  0.19631  0.89599  0.89437  1.0000
  H   H945      1.0  0.11224  0.82064  0.74710  1.0000
  H   H946      1.0  0.30649  0.82065  0.82228  1.0000
  H   H947      1.0  0.21420  0.95525  0.90711  1.0000
  C   C611      1.0  0.05240  0.96232  0.59622  1.0000
  H   H948      1.0  0.02056  0.86028  0.60435  1.0000
  C   C612      1.0  0.12440  0.95603  0.66735  1.0000
  H   H949      1.0  0.22711  0.96258  0.92328  1.0000
  H   H950      1.0  0.26577  0.90810  0.96690  1.0000
  Fe  Fe113     1.0  0.12756  0.98115  0.85091  1.0000
  H   H951      1.0  0.20720  0.87749  0.84687  1.0000
  H   H952      1.0  0.01068  0.81021  0.64491  1.0000
  S   S235      1.0  0.12889  0.97617  0.82034  1.0000
  H   H953      1.0  0.18773  0.91155  0.84319  1.0000
  N   N57       1.0  0.20600  0.94379  0.93752  1.0000
  H   H954      1.0  0.19466  0.97283  0.94383  1.0000
  H   H955      1.0  0.10511  0.94659  0.77012  1.0000
  H   H956      1.0  0.00693  0.83388  0.63011  1.0000
  H   H957      1.0  0.18227  0.96507  0.92752  1.0000
  H   H958      1.0  0.17812  0.95551  0.95307  1.0000
  H   H959      1.0  0.10986  0.94856  0.74405  1.0000
  C   C613      1.0  0.20752  0.96703  0.81657  1.0000
  H   H960      1.0  0.18791  0.92130  0.94627  1.0000
  C   C614      1.0  0.00040  0.92189  0.64266  1.0000
  C   C615      1.0  0.19848  0.92708  0.93357  1.0000
  H   H961      1.0  0.19065  0.96222  0.78734  1.0000
  H   H962      1.0  0.17805  0.76413  0.59528  1.0000
  H   H963      1.0  0.06024  0.92428  0.96086  1.0000
  H   H964      1.0  0.09637  0.91750  0.95569  1.0000
  H   H965      1.0  0.00738  0.97635  0.58296  1.0000
  H   H966      1.0  0.09255  0.96246  0.94450  1.0000
  H   H967      1.0  0.01901  0.81291  0.61910  1.0000
  H   H968      1.0  0.21797  0.95920  0.80557  1.0000
  C   C616      1.0  0.00692  0.81807  0.63056  1.0000
  S   S236      1.0  0.32797  0.96132  0.98533  1.0000
  H   H969      1.0  0.07970  0.94690  0.93625  1.0000
  S   S237      1.0  0.00098  0.90243  0.59764  1.0000
  H   H970      1.0  0.11920  0.99056  0.92544  1.0000
  N   N58       1.0  0.11036  0.97498  0.75465  1.0000
  H   H971      1.0  0.31050  0.79409  0.75787  1.0000
  H   H972      1.0  0.01597  0.94723  0.65669  1.0000
  Fe  Fe114     1.0  0.09627  0.98332  0.82617  1.0000
  C   C617      1.0  0.01077  0.95259  0.64245  1.0000
  S   S238      1.0  0.32144  0.86843  0.85681  1.0000
  C   C618      1.0  0.05376  0.97904  0.60355  1.0000
  H   H973      1.0  0.01976  0.75153  0.62186  1.0000
  H   H974      1.0  0.16897  0.97978  0.79200  1.0000
  H   H975      1.0  0.32649  0.93836  0.92108  1.0000
  C   C619      1.0  0.17213  0.75124  0.60316  1.0000
  C   C620      1.0  0.02025  0.97694  0.58885  1.0000
  H   H976      1.0  0.31009  0.90835  0.93419  1.0000
  C   C621      1.0  0.32394  0.78622  0.74981  1.0000
  H   H977      1.0  0.13682  0.97800  0.73400  1.0000
  H   H978      1.0  0.17403  0.95860  0.81005  1.0000
  H   H979      1.0  0.01283  0.91818  0.63090  1.0000
  C   C622      1.0  0.06073  0.93320  0.97203  1.0000
  C   C623      1.0  0.11385  0.95342  0.75657  1.0000
  H   H980      1.0  0.11015  0.97454  0.78508  1.0000
  C   C624      1.0  0.17832  0.99057  0.82290  1.0000
  H   H981      1.0  0.12490  0.98851  0.89019  1.0000
  H   H982      1.0  0.00001  0.78791  0.61627  1.0000
  C   C625      1.0  0.03065  0.74606  0.64913  1.0000
  C   C626      1.0  0.08911  0.98226  0.75601  1.0000
  H   H983      1.0  0.08089  0.97631  0.77040  1.0000
  H   H984      1.0  0.32480  0.88527  0.94104  1.0000
  H   H985      1.0  0.32789  0.79568  0.73556  1.0000
  C   C627      1.0  0.32652  0.84685  0.84652  1.0000
  H   H986      1.0  0.32144  0.77660  0.78904  1.0000
  H   H987      1.0  0.32903  0.91283  0.90142  1.0000
  H   H988      1.0  0.32009  0.77271  0.74666  1.0000
  H   H989      1.0  0.33026  0.75520  0.77761  1.0000
  Fe  Fe115     1.0  0.38318  0.12554  0.23483  1.0000
  S   S239      1.0  0.35541  0.11379  0.23765  1.0000
  S   S240      1.0  0.39951  0.11600  0.26012  1.0000
  Fe  Fe116     1.0  0.37798  0.15095  0.19577  1.0000
  H   H990      1.0  0.36959  0.04493  0.06423  1.0000
  S   S241      1.0  0.39304  0.16935  0.16939  1.0000
  C   C628      1.0  0.41239  0.05261  0.17418  1.0000
  Fe  Fe117     1.0  0.36453  0.11143  0.20600  1.0000
  S   S242      1.0  0.36313  0.08315  0.19648  1.0000
  S   S243      1.0  0.37010  0.15696  0.22662  1.0000
  S   S244      1.0  0.39373  0.12043  0.20400  1.0000
  Fe  Fe118     1.0  0.40233  0.02961  0.07776  1.0000
  S   S245      1.0  0.42859  0.02214  0.09315  1.0000
  S   S246      1.0  0.40104  0.01397  0.05294  1.0000
  Fe  Fe119     1.0  0.38382  0.06243  0.10051  1.0000
  S   S247      1.0  0.40820  0.05769  0.11764  1.0000
  S   S248      1.0  0.35946  0.08667  0.10748  1.0000
  Fe  Fe120     1.0  0.42803  0.05473  0.08934  1.0000
  S   S249      1.0  0.45473  0.06986  0.07883  1.0000
  Fe  Fe121     1.0  0.40637  0.02597  0.12018  1.0000
  S   S250      1.0  0.40555  0.00842  0.15040  1.0000
  S   S251      1.0  0.40366  0.06191  0.07171  1.0000
  S   S252      1.0  0.38020  0.03094  0.10521  1.0000
  H   H991      1.0  0.36664  0.05486  0.13836  1.0000
  Fe  Fe122     1.0  0.40248  0.01282  0.31085  1.0000
  S   S253      1.0  0.36976  0.02087  0.31695  1.0000
  S   S254      1.0  0.41759  0.02402  0.28100  1.0000
  Fe  Fe123     1.0  0.37481  0.02318  0.34682  1.0000
  S   S255      1.0  0.35755  0.04697  0.36374  1.0000
  C   C629      1.0  0.44163  0.06376  0.15496  1.0000
  S   S256      1.0  0.40765  0.01736  0.33991  1.0000
  N   N59       1.0  0.62443  0.08878  0.03228  1.0000
  Fe  Fe124     1.0  0.38965  0.11944  0.47419  1.0000
  Fe  Fe125     1.0  0.37079  0.13983  0.43868  1.0000
  S   S257      1.0  0.35471  0.11532  0.43925  1.0000
  S   S258      1.0  0.36385  0.16587  0.41576  1.0000
  Fe  Fe126     1.0  0.38264  0.09585  0.44468  1.0000
  S   S259      1.0  0.39588  0.07091  0.42774  1.0000
  S   S260      1.0  0.36233  0.14125  0.47061  1.0000
  S   S261      1.0  0.39971  0.12046  0.44175  1.0000
  C   C630      1.0  0.43011  0.16441  0.09181  1.0000
  H   H992      1.0  0.43238  0.18072  0.04308  1.0000
  H   H993      1.0  0.59483  0.10105  0.02849  1.0000
  H   H994      1.0  0.43799  0.15213  0.10121  1.0000
  H   H995      1.0  0.36662  0.15026  0.35301  1.0000
  H   H996      1.0  0.55608  0.13002  0.01448  1.0000
  H   H997      1.0  0.45754  0.20639  0.13163  1.0000
  Fe  Fe127     1.0  0.50959  0.19448  0.10537  1.0000
  S   S262      1.0  0.52410  0.20023  0.07419  1.0000
  S   S263      1.0  0.50106  0.21592  0.12666  1.0000
  Fe  Fe128     1.0  0.49683  0.15633  0.10037  1.0000
  S   S264      1.0  0.51074  0.15910  0.06880  1.0000
  S   S265      1.0  0.47495  0.13660  0.11680  1.0000
  Fe  Fe129     1.0  0.53573  0.16792  0.07872  1.0000
  Fe  Fe130     1.0  0.49812  0.19092  0.06709  1.0000
  S   S266      1.0  0.52278  0.16270  0.11084  1.0000
  S   S267      1.0  0.48262  0.18762  0.09777  1.0000
  H   H998      1.0  0.40029  0.08552  0.23798  1.0000
  H   H999      1.0  0.62554  0.11198  0.00774  1.0000
  C   C631      1.0  0.41161  0.08669  0.15980  1.0000
  H   H1000     1.0  0.46276  0.22051  0.07876  1.0000
  Fe  Fe131     1.0  0.34283  0.14474  0.22732  1.0000
  H   H1001     1.0  0.45540  0.21359  0.15488  1.0000
  H   H1002     1.0  0.33224  0.15178  0.44391  1.0000
  H   H1003     1.0  0.42888  0.17695  0.14459  1.0000
  H   H1004     1.0  0.64899  0.10074  0.01402  1.0000
  C   C632      1.0  0.34781  0.99403  0.18967  1.0000
  H   H1005     1.0  0.49204  0.23715  0.06375  1.0000
  H   H1006     1.0  0.37344  0.00366  0.20802  1.0000
  C   C633      1.0  0.59823  0.14598  0.01567  1.0000
  C   C634      1.0  0.59283  0.15269  0.03371  1.0000
  C   C635      1.0  0.57408  0.15155  0.04467  1.0000
  C   C636      1.0  0.56079  0.14365  0.03748  1.0000
  C   C637      1.0  0.56631  0.13659  0.01967  1.0000
  H   H1007     1.0  0.41424  0.16329  0.09557  1.0000
  H   H1008     1.0  0.54642  0.14245  0.04588  1.0000
  H   H1009     1.0  0.37425  0.08081  0.01860  1.0000
  H   H1010     1.0  0.40728  0.01562  0.40126  1.0000
  H   H1011     1.0  0.35116  0.10998  0.31138  1.0000
  C   C638      1.0  0.44671  0.22690  0.03549  1.0000
  H   H1012     1.0  0.37183  0.06485  0.28982  1.0000
  C   C639      1.0  0.42827  0.23798  0.04044  1.0000
  H   H1013     1.0  0.47599  0.16074  0.16329  1.0000
  H   H1014     1.0  0.43810  0.06046  0.14143  1.0000
  H   H1015     1.0  0.37625  0.08500  0.04235  1.0000
  C   C640      1.0  0.33897  0.08160  0.04177  1.0000
  H   H1016     1.0  0.43204  0.17827  0.09589  1.0000
  C   C641      1.0  0.34785  0.99740  0.05728  1.0000
  C   C642      1.0  0.36839  0.05483  0.38068  1.0000
  C   C643      1.0  0.38863  0.05075  0.38032  1.0000
  C   C644      1.0  0.39684  0.05621  0.39458  1.0000
  C   C645      1.0  0.38496  0.06592  0.40926  1.0000
  C   C646      1.0  0.36473  0.07043  0.40939  1.0000
  C   C647      1.0  0.35649  0.06491  0.39513  1.0000
  H   H1017     1.0  0.39799  0.04331  0.36911  1.0000
  H   H1018     1.0  0.41251  0.05283  0.39430  1.0000
  H   H1019     1.0  0.35541  0.07768  0.42080  1.0000
  H   H1020     1.0  0.62596  0.21603  0.08699  1.0000
  C   C648      1.0  0.38169  0.00294  0.04966  1.0000
  C   C649      1.0  0.35414  0.05081  0.03130  1.0000
  H   H1021     1.0  0.35624  0.06582  0.32387  1.0000
  H   H1022     1.0  0.34079  0.06805  0.39556  1.0000
  C   C650      1.0  0.45981  0.08860  0.08951  1.0000
  C   C651      1.0  0.44780  0.09490  0.10608  1.0000
  C   C652      1.0  0.45270  0.10952  0.11438  1.0000
  C   C653      1.0  0.46943  0.11815  0.10604  1.0000
  C   C654      1.0  0.48117  0.11216  0.08924  1.0000
  C   C655      1.0  0.47641  0.09739  0.08110  1.0000
  H   H1023     1.0  0.43482  0.08848  0.11248  1.0000
  H   H1024     1.0  0.44343  0.11426  0.12723  1.0000
  H   H1025     1.0  0.49412  0.11863  0.08270  1.0000
  H   H1026     1.0  0.48576  0.09262  0.06828  1.0000
  H   H1027     1.0  0.42118  0.03893  0.18069  1.0000
  H   H1028     1.0  0.37585  0.01647  0.18340  1.0000
  N   N60       1.0  0.38684  0.99612  0.41517  1.0000
  H   H1029     1.0  0.44585  0.17185  0.47936  1.0000
  H   H1030     1.0  0.61861  0.06103  0.02865  1.0000
  H   H1031     1.0  0.46480  0.16517  0.05092  1.0000
  C   C656      1.0  0.38623  0.19491  0.16696  1.0000
  C   C657      1.0  0.39199  0.20651  0.14903  1.0000
  H   H1032     1.0  0.44280  0.16620  0.18370  1.0000
  C   C658      1.0  0.37189  0.22441  0.18067  1.0000
  C   C659      1.0  0.37603  0.20389  0.18275  1.0000
  H   H1033     1.0  0.39955  0.19967  0.13666  1.0000
  H   H1034     1.0  0.64044  0.06852  0.01346  1.0000
  H   H1035     1.0  0.37156  0.19505  0.19663  1.0000
  C   C660      1.0  0.45921  0.22048  0.04930  1.0000
  H   H1036     1.0  0.34937  0.06231  0.28311  1.0000
  C   C661      1.0  0.35828  0.08614  0.13258  1.0000
  C   C662      1.0  0.35396  0.10340  0.14061  1.0000
  C   C663      1.0  0.35517  0.10275  0.16034  1.0000
  C   C664      1.0  0.36036  0.08479  0.17207  1.0000
  C   C665      1.0  0.36428  0.06760  0.16404  1.0000
  C   C666      1.0  0.36328  0.06826  0.14442  1.0000
  H   H1037     1.0  0.65501  0.19038  0.05959  1.0000
  H   H1038     1.0  0.35220  0.11612  0.16638  1.0000
  S   S268      1.0  0.56800  0.15904  0.06774  1.0000
  C   C667      1.0  0.40513  0.09046  0.26558  1.0000
  C   C668      1.0  0.41004  0.08166  0.28386  1.0000
  C   C669      1.0  0.41351  0.06121  0.28882  1.0000
  C   C670      1.0  0.41286  0.04956  0.27519  1.0000
  C   C671      1.0  0.40833  0.05837  0.25677  1.0000
  C   C672      1.0  0.40413  0.07880  0.25208  1.0000
  H   H1039     1.0  0.41097  0.09066  0.29426  1.0000
  H   H1040     1.0  0.41718  0.05444  0.30300  1.0000
  H   H1041     1.0  0.40776  0.04935  0.24625  1.0000
  C   C673      1.0  0.64189  0.21298  0.08774  1.0000
  H   H1042     1.0  0.44306  0.13236  0.07482  1.0000
  H   H1043     1.0  0.63278  0.11714  0.02881  1.0000
  H   H1044     1.0  0.35624  0.09961  0.36845  1.0000
  H   H1045     1.0  0.36230  0.08189  0.27040  1.0000
  H   H1046     1.0  0.62933  0.06755  0.05780  1.0000
  H   H1047     1.0  0.35784  0.06758  0.07213  1.0000
  H   H1048     1.0  0.39896  0.05597  0.18499  1.0000
  C   C674      1.0  0.51518  0.23209  0.13152  1.0000
  C   C675      1.0  0.36914  0.01087  0.41278  1.0000
  H   H1049     1.0  0.64953  0.22091  0.07407  1.0000
  N   N61       1.0  0.35491  0.12821  0.37533  1.0000
  H   H1050     1.0  0.34031  0.15367  0.35863  1.0000
  C   C676      1.0  0.58507  0.13755  0.00878  1.0000
  H   H1051     1.0  0.33257  0.20218  0.46699  1.0000
  H   H1052     1.0  0.33804  0.08894  0.02650  1.0000
  C   C677      1.0  0.62512  0.07386  0.02005  1.0000
  C   C678      1.0  0.47339  0.17638  0.15639  1.0000
  C   C679      1.0  0.37423  0.07382  0.03411  1.0000
  C   C680      1.0  0.38462  0.99269  0.03395  1.0000
  H   H1053     1.0  0.44697  0.19013  0.18538  1.0000
  H   H1054     1.0  0.33644  0.13630  0.40141  1.0000
  H   H1055     1.0  0.35432  0.15872  0.37518  1.0000
  C   C681      1.0  0.36623  0.01581  0.19793  1.0000
  H   H1056     1.0  0.47973  0.18501  0.16444  1.0000
  H   H1057     1.0  0.35025  0.11731  0.13147  1.0000
  H   H1058     1.0  0.35622  0.00689  0.42361  1.0000
  H   H1059     1.0  0.34648  0.03000  0.16813  1.0000
  H   H1060     1.0  0.60247  0.10801  0.04846  1.0000
  S   S269      1.0  0.48225  0.20672  0.04262  1.0000
  N   N62       1.0  0.64948  0.19177  0.09029  1.0000
  C   C682      1.0  0.45318  0.22514  0.06811  1.0000
  H   H1061     1.0  0.41924  0.14326  0.06926  1.0000
  H   H1062     1.0  0.43736  0.08551  0.18335  1.0000
  C   C683      1.0  0.53457  0.23350  0.12234  1.0000
  S   S270      1.0  0.34932  0.14151  0.19561  1.0000
  H   H1063     1.0  0.65117  0.07513  0.04281  1.0000
  C   C684      1.0  0.45859  0.16539  0.06662  1.0000
  H   H1064     1.0  0.40634  0.08397  0.14691  1.0000
  H   H1065     1.0  0.64052  0.18783  0.12142  1.0000
  H   H1066     1.0  0.42555  0.18733  0.17673  1.0000
  H   H1067     1.0  0.44655  0.15619  0.15158  1.0000
  H   H1068     1.0  0.39205  0.23575  0.13298  1.0000
  H   H1069     1.0  0.36575  0.02970  0.20335  1.0000
  H   H1070     1.0  0.62283  0.18393  0.10807  1.0000
  H   H1071     1.0  0.66069  0.13410  0.00920  1.0000
  H   H1072     1.0  0.36858  0.11598  0.34951  1.0000
  H   H1073     1.0  0.36728  0.03918  0.03079  1.0000
  N   N63       1.0  0.34702  0.08583  0.29916  1.0000
  H   H1074     1.0  0.46107  0.17929  0.07005  1.0000
  H   H1075     1.0  0.33988  0.09296  0.05033  1.0000
  C   C685      1.0  0.63549  0.08026  0.04844  1.0000
  C   C686      1.0  0.36329  0.00497  0.06156  1.0000
  C   C687      1.0  0.64667  0.18364  0.07351  1.0000
  H   H1076     1.0  0.34339  0.05004  0.06993  1.0000
  H   H1077     1.0  0.34227  0.11906  0.35407  1.0000
  H   H1078     1.0  0.41571  0.07694  0.19756  1.0000
  H   H1079     1.0  0.38734  0.06212  0.03450  1.0000
  C   C688      1.0  0.43493  0.14510  0.06612  1.0000
  H   H1080     1.0  0.45048  0.07585  0.15049  1.0000
  H   H1081     1.0  0.43816  0.06010  0.19398  1.0000
  H   H1082     1.0  0.36420  0.23130  0.19298  1.0000
  H   H1083     1.0  0.48195  0.17749  0.14134  1.0000
  H   H1084     1.0  0.45112  0.05054  0.16136  1.0000
  C   C689      1.0  0.35670  0.05669  0.06311  1.0000
  C   C690      1.0  0.39196  0.99535  0.43459  1.0000
  C   C691      1.0  0.38775  0.22697  0.14692  1.0000
  H   H1085     1.0  0.36090  0.01251  0.07391  1.0000
  N   N64       1.0  0.43756  0.16380  0.07087  1.0000
  C   C692      1.0  0.60381  0.09569  0.04032  1.0000
  N   N65       1.0  0.34641  0.01270  0.19671  1.0000
  H   H1086     1.0  0.63511  0.09122  0.05793  1.0000
  H   H1087     1.0  0.33601  0.04326  0.18792  1.0000
  H   H1088     1.0  0.61261  0.14711  0.00726  1.0000
  Fe  Fe132     1.0  0.34798  0.11544  0.47150  1.0000
  C   C693      1.0  0.35896  0.10034  0.30066  1.0000
  C   C694      1.0  0.35806  0.07318  0.28500  1.0000
  H   H1089     1.0  0.41992  0.09913  0.15490  1.0000
  H   H1090     1.0  0.60315  0.15889  0.03915  1.0000
  C   C695      1.0  0.44149  0.18175  0.17640  1.0000
  N   N66       1.0  0.42367  0.06903  0.16889  1.0000
  C   C696      1.0  0.42901  0.07306  0.18671  1.0000
  H   H1091     1.0  0.42164  0.15258  0.47443  1.0000
  C   C697      1.0  0.33417  0.01206  0.21627  1.0000
  H   H1092     1.0  0.46729  0.15319  0.07534  1.0000
  C   C698      1.0  0.37786  0.23598  0.16279  1.0000
  H   H1093     1.0  0.36867  0.05378  0.17286  1.0000
  H   H1094     1.0  0.45252  0.17298  0.12970  1.0000
  H   H1095     1.0  0.38625  0.12360  0.37350  1.0000
  H   H1096     1.0  0.39846  0.09163  0.17024  1.0000
  H   H1097     1.0  0.33966  0.18974  0.38857  1.0000
  C   C699      1.0  0.33844  0.17025  0.41614  1.0000
  C   C700      1.0  0.37272  0.12256  0.38452  1.0000
  H   H1098     1.0  0.37309  0.09310  0.30539  1.0000
  C   C701      1.0  0.35399  0.14861  0.36506  1.0000
  H   H1099     1.0  0.40771  0.04936  0.16120  1.0000
  S   S271      1.0  0.37447  0.09330  0.47739  1.0000
  H   H1100     1.0  0.37269  0.13218  0.39525  1.0000
  H   H1101     1.0  0.33371  0.17824  0.46162  1.0000
  C   C702      1.0  0.44473  0.17197  0.14501  1.0000
  H   H1102     1.0  0.33374  0.06238  0.31793  1.0000
  C   C703      1.0  0.63335  0.10538  0.02021  1.0000
  H   H1103     1.0  0.61676  0.07994  0.00779  1.0000
  H   H1104     1.0  0.64428  0.16590  0.11096  1.0000
  N   N67       1.0  0.45231  0.18364  0.15618  1.0000
  H   H1105     1.0  0.43384  0.21043  0.14663  1.0000
  C   C704      1.0  0.33737  0.12659  0.39054  1.0000
  C   C705      1.0  0.63880  0.18191  0.10850  1.0000
  H   H1106     1.0  0.37132  0.02548  0.41482  1.0000
  H   H1107     1.0  0.39494  0.00981  0.43631  1.0000
  H   H1108     1.0  0.65197  0.16759  0.07515  1.0000
  H   H1109     1.0  0.64397  0.21963  0.10006  1.0000
  C   C706      1.0  0.44961  0.20442  0.14692  1.0000
  H   H1110     1.0  0.35610  0.99443  0.17454  1.0000
  C   C707      1.0  0.42672  0.18034  0.05896  1.0000
  H   H1111     1.0  0.44049  0.14412  0.05045  1.0000
  H   H1112     1.0  0.42814  0.19464  0.06251  1.0000
  H   H1113     1.0  0.41081  0.17949  0.06147  1.0000
  H   H1114     1.0  0.54175  0.22418  0.11173  1.0000
  H   H1115     1.0  0.59691  0.08381  0.05039  1.0000
  H   H1116     1.0  0.45130  0.22336  0.02092  1.0000
  N   N68       1.0  0.35599  0.06573  0.04256  1.0000
  S   S272      1.0  0.59212  0.12608  0.98793  1.0000
  H   H1117     1.0  0.34446  0.14980  0.26647  1.0000
  H   H1118     1.0  0.35269  0.05729  0.01592  1.0000
  H   H1119     1.0  0.37391  0.10730  0.39253  1.0000
  H   H1120     1.0  0.36252  0.10988  0.28634  1.0000
  H   H1121     1.0  0.34360  0.14656  0.30209  1.0000
  C   C708      1.0  0.35554  0.11513  0.36121  1.0000
  H   H1122     1.0  0.63096  0.18612  0.07191  1.0000
  H   H1123     1.0  0.51666  0.22180  0.47530  1.0000
  C   C709      1.0  0.34257  0.07367  0.31848  1.0000
  H   H1124     1.0  0.33355  0.99934  0.06629  1.0000
  H   H1125     1.0  0.33759  0.11139  0.39864  1.0000
  C   C710      1.0  0.40330  0.00155  0.39986  1.0000
  S   S273      1.0  0.37194  0.99180  0.35828  1.0000
  H   H1126     1.0  0.66173  0.15132  0.03613  1.0000
  H   H1127     1.0  0.39960  0.00315  0.38500  1.0000
  C   C711      1.0  0.33746  0.02893  0.18299  1.0000
  H   H1128     1.0  0.36529  0.01254  0.39795  1.0000
  C   C712      1.0  0.43487  0.23651  0.07297  1.0000
  H   H1129     1.0  0.33423  0.08264  0.32962  1.0000
  H   H1130     1.0  0.34090  0.00047  0.22714  1.0000
  H   H1131     1.0  0.39878  0.99108  0.02464  1.0000
  H   H1132     1.0  0.33144  0.10566  0.27810  1.0000
  H   H1133     1.0  0.34118  0.04349  0.03785  1.0000
  H   H1134     1.0  0.43027  0.24002  0.08749  1.0000
  H   H1135     1.0  0.37984  0.99134  0.44651  1.0000
  H   H1136     1.0  0.47580  0.24024  0.09798  1.0000
  H   H1137     1.0  0.33230  0.02616  0.22172  1.0000
  C   C713      1.0  0.33066  0.14946  0.27633  1.0000
  Fe  Fe133     1.0  0.49571  0.18498  0.56434  1.0000
  S   S274      1.0  0.48243  0.16905  0.59306  1.0000
  H   H1138     1.0  0.43098  0.11343  0.52750  1.0000
  Fe  Fe134     1.0  0.47521  0.16523  0.54073  1.0000
  S   S275      1.0  0.46087  0.14745  0.56757  1.0000
  S   S276      1.0  0.46854  0.16805  0.51013  1.0000
  Fe  Fe135     1.0  0.45465  0.17496  0.58052  1.0000
  S   S277      1.0  0.42389  0.18550  0.59446  1.0000
  Fe  Fe136     1.0  0.49003  0.14293  0.57758  1.0000
  S   S278      1.0  0.50153  0.11357  0.59406  1.0000
  S   S279      1.0  0.46707  0.19307  0.55316  1.0000
  S   S280      1.0  0.50520  0.15849  0.54950  1.0000
  H   H1139     1.0  0.62897  0.04441  0.87979  1.0000
  C   C714      1.0  0.48272  0.21600  0.49874  1.0000
  H   H1140     1.0  0.55142  0.07248  0.87605  1.0000
  H   H1141     1.0  0.65825  0.00502  0.78845  1.0000
  H   H1142     1.0  0.52439  0.23597  0.49004  1.0000
  Fe  Fe137     1.0  0.63940  0.12186  0.76344  1.0000
  H   H1143     1.0  0.55127  0.13532  0.64228  1.0000
  N   N69       1.0  0.59096  0.04577  0.55146  1.0000
  C   C715      1.0  0.39577  0.16916  0.56622  1.0000
  H   H1144     1.0  0.36028  0.16513  0.56015  1.0000
  C   C716      1.0  0.60949  0.04957  0.90641  1.0000
  S   S281      1.0  0.62619  0.13321  0.93719  1.0000
  C   C717      1.0  0.43765  0.21563  0.60413  1.0000
  S   S282      1.0  0.56090  0.02565  0.87094  1.0000
  S   S283      1.0  0.64155  0.11705  0.73263  1.0000
  S   S284      1.0  0.56402  0.05722  0.82009  1.0000
  Fe  Fe138     1.0  0.59674  0.02654  0.64381  1.0000
  S   S285      1.0  0.62832  0.01241  0.64076  1.0000
  Fe  Fe139     1.0  0.60349  0.05834  0.60938  1.0000
  S   S286      1.0  0.63566  0.04688  0.60359  1.0000
  S   S287      1.0  0.59286  0.08504  0.58858  1.0000
  Fe  Fe140     1.0  0.62673  0.01724  0.60876  1.0000
  Fe  Fe141     1.0  0.63429  0.04327  0.63605  1.0000
  H   H1145     1.0  0.59322  0.08973  0.88836  1.0000
  S   S288      1.0  0.59455  0.02894  0.61224  1.0000
  S   S289      1.0  0.60278  0.05713  0.64142  1.0000
  C   C718      1.0  0.40243  0.21822  0.60809  1.0000
  C   C719      1.0  0.60991  0.04268  0.55845  1.0000
  H   H1146     1.0  0.59982  0.08030  0.84700  1.0000
  C   C720      1.0  0.62605  0.05201  0.89216  1.0000
  H   H1147     1.0  0.44801  0.23903  0.61256  1.0000
  H   H1148     1.0  0.59271  0.02447  0.72311  1.0000
  C   C721      1.0  0.52246  0.14066  0.62106  1.0000
  H   H1149     1.0  0.64002  0.17455  0.72113  1.0000
  C   C722      1.0  0.40005  0.23609  0.61486  1.0000
  C   C723      1.0  0.44254  0.15916  0.48996  1.0000
  H   H1150     1.0  0.54895  0.15096  0.58947  1.0000
  C   C724      1.0  0.56511  0.10363  0.85253  1.0000
  H   H1151     1.0  0.57400  0.05148  0.57907  1.0000
  C   C725      1.0  0.59808  0.10756  0.79253  1.0000
  C   C726      1.0  0.60832  0.08913  0.79919  1.0000
  C   C727      1.0  0.59806  0.07350  0.80787  1.0000
  C   C728      1.0  0.57763  0.07619  0.80948  1.0000
  C   C729      1.0  0.56754  0.09456  0.80273  1.0000
  C   C730      1.0  0.57767  0.11023  0.79461  1.0000
  H   H1152     1.0  0.62403  0.08710  0.79803  1.0000
  H   H1153     1.0  0.60587  0.05939  0.81320  1.0000
  H   H1154     1.0  0.55176  0.09674  0.80392  1.0000
  C   C731      1.0  0.55375  0.14864  0.60392  1.0000
  C   C732      1.0  0.63576  0.07363  0.91041  1.0000
  C   C733      1.0  0.63913  0.06398  0.89419  1.0000
  C   C734      1.0  0.60603  0.05939  0.92250  1.0000
  C   C735      1.0  0.61905  0.07142  0.92448  1.0000
  H   H1155     1.0  0.59326  0.05759  0.93360  1.0000
  H   H1156     1.0  0.61627  0.07877  0.93703  1.0000
  H   H1157     1.0  0.54133  0.23875  0.72126  1.0000
  H   H1158     1.0  0.66211  0.22785  0.67495  1.0000
  C   C736      1.0  0.59214  0.03249  0.53738  1.0000
  H   H1159     1.0  0.38968  0.21233  0.60704  1.0000
  H   H1160     1.0  0.60376  0.03523  0.52451  1.0000
  N   N70       1.0  0.53710  0.15355  0.61940  1.0000
  H   H1161     1.0  0.51540  0.17844  0.62579  1.0000
  H   H1162     1.0  0.58555  0.07666  0.55213  1.0000
  C   C737      1.0  0.62553  0.20710  0.68219  1.0000
  C   C738      1.0  0.63919  0.19959  0.66722  1.0000
  H   H1163     1.0  0.36673  0.14005  0.55673  1.0000
  S   S290      1.0  0.60837  0.22829  0.67722  1.0000
  C   C739      1.0  0.63986  0.18151  0.70611  1.0000
  C   C740      1.0  0.62594  0.19809  0.70161  1.0000
  H   H1164     1.0  0.63884  0.20636  0.65220  1.0000
  H   H1165     1.0  0.62923  0.06735  0.67769  1.0000
  H   H1166     1.0  0.41124  0.17164  0.56126  1.0000
  H   H1167     1.0  0.61543  0.20386  0.71326  1.0000
  C   C741      1.0  0.52693  0.10543  0.59186  1.0000
  C   C742      1.0  0.54020  0.11562  0.57828  1.0000
  C   C743      1.0  0.56043  0.10916  0.57734  1.0000
  C   C744      1.0  0.56746  0.09262  0.59009  1.0000
  C   C745      1.0  0.55422  0.08241  0.60365  1.0000
  C   C746      1.0  0.53399  0.08878  0.60447  1.0000
  H   H1168     1.0  0.53489  0.12843  0.56847  1.0000
  H   H1169     1.0  0.57066  0.11707  0.56678  1.0000
  H   H1170     1.0  0.55952  0.06963  0.61354  1.0000
  H   H1171     1.0  0.52375  0.08088  0.61504  1.0000
  C   C747      1.0  0.45177  0.15384  0.50654  1.0000
  C   C748      1.0  0.56941  0.20860  0.58385  1.0000
  S   S291      1.0  0.51206  0.21035  0.56157  1.0000
  Fe  Fe142     1.0  0.59103  0.02069  0.87882  1.0000
  H   H1172     1.0  0.56074  0.04394  0.56348  1.0000
  C   C749      1.0  0.44751  0.13730  0.52001  1.0000
  C   C750      1.0  0.53387  0.20876  0.57098  1.0000
  H   H1173     1.0  0.55524  0.16034  0.63739  1.0000
  H   H1174     1.0  0.56967  0.12443  0.78961  1.0000
  H   H1175     1.0  0.45483  0.13276  0.53257  1.0000
  H   H1176     1.0  0.39386  0.16481  0.58239  1.0000
  H   H1177     1.0  0.58035  0.06611  0.85133  1.0000
  H   H1178     1.0  0.63061  0.02826  0.67836  1.0000
  H   H1179     1.0  0.57224  0.06922  0.53651  1.0000
  C   C751      1.0  0.56717  0.19336  0.57476  1.0000
  C   C752      1.0  0.54942  0.19334  0.56847  1.0000
  S   S292      1.0  0.57673  0.23157  0.63768  1.0000
  H   H1180     1.0  0.54800  0.18174  0.56115  1.0000
  H   H1181     1.0  0.51693  0.14240  0.60707  1.0000
  C   C753      1.0  0.58573  0.09998  0.87699  1.0000
  C   C754      1.0  0.43403  0.12631  0.51705  1.0000
  H   H1182     1.0  0.55659  0.09620  0.84534  1.0000
  H   H1183     1.0  0.45218  0.20783  0.59998  1.0000
  S   S293      1.0  0.61008  0.12783  0.78249  1.0000
  H   H1184     1.0  0.47313  0.22887  0.49194  1.0000
  C   C755      1.0  0.58829  0.07420  0.85838  1.0000
  H   H1185     1.0  0.52525  0.20772  0.51699  1.0000
  H   H1186     1.0  0.33875  0.12897  0.54403  1.0000
  H   H1187     1.0  0.59723  0.10680  0.86615  1.0000
  S   S294      1.0  0.40651  0.11814  0.49893  1.0000
  H   H1188     1.0  0.57932  0.18169  0.57233  1.0000
  H   H1189     1.0  0.38617  0.18346  0.56303  1.0000
  H   H1190     1.0  0.61285  0.00251  0.80423  1.0000
  C   C756      1.0  0.42886  0.14824  0.48709  1.0000
  C   C757      1.0  0.65379  0.17424  0.69122  1.0000
  C   C758      1.0  0.39436  0.16040  0.53529  1.0000
  H   H1191     1.0  0.64031  0.05805  0.77502  1.0000
  H   H1192     1.0  0.56646  0.07031  0.89423  1.0000
  C   C759      1.0  0.53616  0.22402  0.57996  1.0000
  C   C760      1.0  0.64284  0.06253  0.68333  1.0000
  H   H1193     1.0  0.63548  0.12715  0.66621  1.0000
  Fe  Fe143     1.0  0.62235  0.12575  0.96995  1.0000
  C   C761      1.0  0.42122  0.20796  0.60272  1.0000
  Fe  Fe144     1.0  0.65086  0.14760  0.94019  1.0000
  N   N71       1.0  0.57469  0.08970  0.86763  1.0000
  Fe  Fe145     1.0  0.57671  0.03109  0.84010  1.0000
  H   H1194     1.0  0.56071  0.13305  0.60700  1.0000
  S   S295      1.0  0.59251  0.03473  0.90468  1.0000
  H   H1195     1.0  0.56105  0.23050  0.69000  1.0000
  C   C762      1.0  0.55969  0.08080  0.88254  1.0000
  H   H1196     1.0  0.59565  0.01690  0.54414  1.0000
  S   S296      1.0  0.60654  0.02784  0.84801  1.0000
  H   H1197     1.0  0.57803  0.03422  0.53196  1.0000
  C   C763      1.0  0.65739  0.01389  0.80006  1.0000
  C   C764      1.0  0.57527  0.04166  0.56819  1.0000
  Fe  Fe146     1.0  0.60768  0.99612  0.84663  1.0000
  H   H1198     1.0  0.52221  0.17673  0.60041  1.0000
  H   H1199     1.0  0.62708  0.02767  0.72216  1.0000
  H   H1200     1.0  0.53865  0.18436  0.61271  1.0000
  H   H1201     1.0  0.57592  0.11173  0.88426  1.0000
  H   H1202     1.0  0.52877  0.12494  0.62474  1.0000
  H   H1203     1.0  0.57810  0.02629  0.57582  1.0000
  H   H1204     1.0  0.56527  0.15785  0.60248  1.0000
  S   S297      1.0  0.66183  0.14214  0.75602  1.0000
  H   H1205     1.0  0.61361  0.02747  0.56610  1.0000
  H   H1206     1.0  0.62214  0.04542  0.54622  1.0000
  C   C765      1.0  0.54422  0.15072  0.63817  1.0000
  H   H1207     1.0  0.50953  0.14396  0.63244  1.0000
  H   H1208     1.0  0.64949  0.14069  0.64583  1.0000
  C   C766      1.0  0.58651  0.06630  0.54185  1.0000
  H   H1209     1.0  0.41997  0.13711  0.55688  1.0000
  H   H1210     1.0  0.40213  0.13007  0.57760  1.0000
  S   S298      1.0  0.57474  0.01503  0.66867  1.0000
  H   H1211     1.0  0.59806  0.06999  0.52919  1.0000
  H   H1212     1.0  0.57608  0.11027  0.84079  1.0000
  H   H1213     1.0  0.60964  0.05262  0.56893  1.0000
  H   H1214     1.0  0.51743  0.19336  0.50233  1.0000
  H   H1215     1.0  0.53200  0.15417  0.65021  1.0000
  Fe  Fe147     1.0  0.64815  0.10567  0.93740  1.0000
  C   C767      1.0  0.52796  0.17416  0.61440  1.0000
  N   N72       1.0  0.39124  0.15411  0.55669  1.0000
  H   H1216     1.0  0.59802  0.99830  0.72881  1.0000
  C   C768      1.0  0.40428  0.13544  0.56159  1.0000
  C   C769      1.0  0.49304  0.23511  0.51855  1.0000
  C   C770      1.0  0.37060  0.15136  0.56363  1.0000
  C   C771      1.0  0.59790  0.01089  0.71664  1.0000
  H   H1217     1.0  0.61081  0.04174  0.69325  1.0000
  C   C772      1.0  0.65942  0.05398  0.67156  1.0000
  H   H1218     1.0  0.40160  0.12384  0.55426  1.0000
  C   C773      1.0  0.66193  0.05981  0.70927  1.0000
  H   H1219     1.0  0.64645  0.01432  0.70709  1.0000
  H   H1220     1.0  0.48727  0.20536  0.48833  1.0000
  H   H1221     1.0  0.47353  0.20874  0.51172  1.0000
  H   H1222     1.0  0.64119  0.04461  0.81819  1.0000
  C   C774      1.0  0.51224  0.20403  0.51263  1.0000
  H   H1223     1.0  0.65216  0.10154  0.68861  1.0000
  S   S299      1.0  0.62173  0.23659  0.61695  1.0000
  H   H1224     1.0  0.65207  0.06555  0.88328  1.0000
  S   S300      1.0  0.59191  0.20826  0.59150  1.0000
  H   H1225     1.0  0.60577  0.02596  0.67875  1.0000
  H   H1226     1.0  0.54896  0.09205  0.88970  1.0000
  Fe  Fe148     1.0  0.59411  0.23230  0.60766  1.0000
  C   C775      1.0  0.64109  0.04213  0.78088  1.0000
  H   H1227     1.0  0.60147  0.99338  0.59210  1.0000
  C   C776      1.0  0.43527  0.23330  0.61126  1.0000
  H   H1228     1.0  0.34368  0.11718  0.51232  1.0000
  S   S301      1.0  0.65283  0.08816  0.91261  1.0000
  H   H1229     1.0  0.36767  0.14663  0.57973  1.0000
  S   S302      1.0  0.66052  0.09511  0.77177  1.0000
  N   N73       1.0  0.61744  0.01115  0.70438  1.0000
  H   H1230     1.0  0.55527  0.23568  0.59354  1.0000
  H   H1231     1.0  0.48430  0.22811  0.53206  1.0000
  C   C777      1.0  0.65351  0.18338  0.67177  1.0000
  H   H1232     1.0  0.55485  0.11572  0.85884  1.0000
  S   S303      1.0  0.64286  0.09698  0.97012  1.0000
  C   C778      1.0  0.62398  0.99255  0.69667  1.0000
  Fe  Fe149     1.0  0.60299  0.23882  0.64630  1.0000
  H   H1233     1.0  0.59570  0.06335  0.86930  1.0000
  C   C779      1.0  0.55374  0.22384  0.58660  1.0000
  H   H1234     1.0  0.63118  0.07160  0.71142  1.0000
  C   C780      1.0  0.63164  0.01381  0.71606  1.0000
  H   H1235     1.0  0.38464  0.17433  0.53101  1.0000
  N   N74       1.0  0.49982  0.22169  0.50409  1.0000
  H   H1236     1.0  0.60804  0.99885  0.77156  1.0000
  H   H1237     1.0  0.64275  0.03454  0.76814  1.0000
  H   H1238     1.0  0.39138  0.14921  0.52760  1.0000
  C   C781      1.0  0.64404  0.06523  0.70226  1.0000
  H   H1239     1.0  0.52430  0.23611  0.58176  1.0000
  H   H1240     1.0  0.40975  0.16274  0.52957  1.0000
  C   C782      1.0  0.51134  0.23157  0.48647  1.0000
  S   S304      1.0  0.64478  0.14316  0.97286  1.0000
  C   C783      1.0  0.42451  0.13177  0.50071  1.0000
  S   S305      1.0  0.57914  0.99993  0.83590  1.0000
  H   H1241     1.0  0.65142  0.14545  0.87904  1.0000
  S   S306      1.0  0.64287  0.99569  0.58878  1.0000
  H   H1242     1.0  0.65055  0.14306  0.67036  1.0000
  H   H1243     1.0  0.58680  0.00959  0.70797  1.0000
  C   C784      1.0  0.61616  0.02754  0.68796  1.0000
  C   C785      1.0  0.65527  0.04593  0.80805  1.0000
  Fe  Fe150     1.0  0.56618  0.99395  0.86756  1.0000
  H   H1244     1.0  0.50401  0.19643  0.52602  1.0000
  H   H1245     1.0  0.64377  0.01182  0.81067  1.0000
  S   S307      1.0  0.65860  0.17530  0.92118  1.0000
  S   S308      1.0  0.65927  0.05114  0.64734  1.0000
  S   S309      1.0  0.66370  0.06164  0.73334  1.0000
  H   H1246     1.0  0.65545  0.06175  0.80251  1.0000
  H   H1247     1.0  0.63866  0.99223  0.68734  1.0000
  H   H1248     1.0  0.62676  0.03989  0.79015  1.0000
  C   C786      1.0  0.64975  0.13249  0.66090  1.0000
  H   H1249     1.0  0.50559  0.23937  0.52322  1.0000
  H   H1250     1.0  0.65035  0.09613  0.65465  1.0000
  N   N75       1.0  0.65751  0.03478  0.79191  1.0000
  H   H1251     1.0  0.63315  0.00162  0.72853  1.0000
  Fe  Fe151     1.0  0.64013  0.41344  0.46333  1.0000
  C   C787      1.0  0.39675  0.40269  0.06008  1.0000
  H   H1252     1.0  0.43402  0.43474  0.14698  1.0000
  S   S310      1.0  0.60884  0.42534  0.47389  1.0000
  S   S311      1.0  0.39956  0.25739  0.06470  1.0000
  Fe  Fe152     1.0  0.38518  0.27730  0.13107  1.0000
  S   S312      1.0  0.36798  0.28258  0.10662  1.0000
  S   S313      1.0  0.37292  0.26165  0.16052  1.0000
  Fe  Fe153     1.0  0.41714  0.29928  0.10690  1.0000
  S   S314      1.0  0.40265  0.30631  0.08036  1.0000
  S   S315      1.0  0.44662  0.30841  0.10413  1.0000
  Fe  Fe154     1.0  0.37475  0.31307  0.10102  1.0000
  S   S316      1.0  0.35342  0.34092  0.09478  1.0000
  Fe  Fe155     1.0  0.39723  0.27527  0.08820  1.0000
  H   H1253     1.0  0.64213  0.47919  0.43740  1.0000
  S   S317      1.0  0.38966  0.30858  0.12715  1.0000
  S   S318      1.0  0.41408  0.26751  0.11312  1.0000
  Fe  Fe156     1.0  0.61691  0.28650  0.11628  1.0000
  S   S319      1.0  0.60599  0.27153  0.14659  1.0000
  Fe  Fe157     1.0  0.59046  0.32491  0.12138  1.0000
  S   S320      1.0  0.57729  0.31278  0.15152  1.0000
  S   S321      1.0  0.58026  0.35712  0.11301  1.0000
  Fe  Fe158     1.0  0.60801  0.29996  0.15582  1.0000
  S   S322      1.0  0.61459  0.30419  0.18484  1.0000
  Fe  Fe159     1.0  0.57626  0.28588  0.13957  1.0000
  S   S323      1.0  0.62141  0.31360  0.12606  1.0000
  S   S324      1.0  0.58689  0.29930  0.10890  1.0000
  Fe  Fe160     1.0  0.45871  0.41084  0.09650  1.0000
  S   S325      1.0  0.46311  0.40332  0.06656  1.0000
  S   S326      1.0  0.44076  0.39393  0.12158  1.0000
  Fe  Fe161     1.0  0.48402  0.44343  0.08376  1.0000
  S   S327      1.0  0.49043  0.43826  0.05255  1.0000
  C   C788      1.0  0.39730  0.44016  0.00655  1.0000
  Fe  Fe162     1.0  0.45846  0.43558  0.05615  1.0000
  S   S328      1.0  0.43670  0.45125  0.03622  1.0000
  Fe  Fe163     1.0  0.49435  0.40635  0.06594  1.0000
  S   S329      1.0  0.51756  0.38177  0.05667  1.0000
  S   S330      1.0  0.45169  0.44308  0.08644  1.0000
  S   S331      1.0  0.49013  0.41165  0.09684  1.0000
  H   H1254     1.0  0.49566  0.28957  0.05918  1.0000
  H   H1255     1.0  0.59071  0.43795  0.38758  1.0000
  H   H1256     1.0  0.41867  0.24298  0.02968  1.0000
  Fe  Fe164     1.0  0.63770  0.40616  0.25142  1.0000
  C   C789      1.0  0.54387  0.46898  0.12536  1.0000
  S   S332      1.0  0.60638  0.41527  0.26451  1.0000
  H   H1257     1.0  0.41632  0.37480  0.03895  1.0000
  H   H1258     1.0  0.33717  0.31412  0.13042  1.0000
  H   H1259     1.0  0.50165  0.33156  0.14928  1.0000
  S   S333      1.0  0.64667  0.41198  0.21895  1.0000
  H   H1260     1.0  0.57520  0.48548  0.06653  1.0000
  H   H1261     1.0  0.52754  0.33224  0.14251  1.0000
  S   S334      1.0  0.58975  0.44647  0.34478  1.0000
  N   N76       1.0  0.40363  0.38191  0.06737  1.0000
  H   H1262     1.0  0.50804  0.34727  0.09556  1.0000
  C   C790      1.0  0.45408  0.46463  0.13359  1.0000
  H   H1263     1.0  0.33243  0.27679  0.17508  1.0000
  C   C791      1.0  0.65563  0.46043  0.18780  1.0000
  H   H1264     1.0  0.38398  0.40894  0.07020  1.0000
  H   H1265     1.0  0.45999  0.43562  0.17703  1.0000
  H   H1266     1.0  0.50791  0.26348  0.09689  1.0000
  C   C792      1.0  0.50607  0.24424  0.14517  1.0000
  H   H1267     1.0  0.62756  0.44338  0.42678  1.0000
  S   S335      1.0  0.65111  0.44151  0.46109  1.0000
  H   H1268     1.0  0.43271  0.38275  0.05111  1.0000
  C   C793      1.0  0.50776  0.25699  0.08382  1.0000
  C   C794      1.0  0.60261  0.42355  0.28694  1.0000
  C   C795      1.0  0.61478  0.43544  0.29059  1.0000
  C   C796      1.0  0.61049  0.44315  0.30808  1.0000
  C   C797      1.0  0.59457  0.43819  0.32228  1.0000
  C   C798      1.0  0.58283  0.42583  0.31883  1.0000
  C   C799      1.0  0.58656  0.41892  0.30102  1.0000
  H   H1269     1.0  0.62725  0.43897  0.27982  1.0000
  H   H1270     1.0  0.61971  0.45258  0.31076  1.0000
  H   H1271     1.0  0.57055  0.42192  0.32979  1.0000
  H   H1272     1.0  0.57709  0.40977  0.29824  1.0000
  H   H1273     1.0  0.52450  0.43808  0.10539  1.0000
  C   C800      1.0  0.42458  0.43921  0.02356  1.0000
  C   C801      1.0  0.43129  0.41984  0.02074  1.0000
  C   C802      1.0  0.42097  0.41066  0.01097  1.0000
  H   H1274     1.0  0.65224  0.42315  0.30777  1.0000
  H   H1275     1.0  0.40251  0.46442  0.01814  1.0000
  C   C803      1.0  0.40769  0.44937  0.01620  1.0000
  H   H1276     1.0  0.44456  0.41203  0.02588  1.0000
  C   C804      1.0  0.61169  0.48988  0.43583  1.0000
  H   H1277     1.0  0.42636  0.39576  0.00862  1.0000
  H   H1278     1.0  0.49115  0.24336  0.15230  1.0000
  C   C805      1.0  0.62896  0.32106  0.18786  1.0000
  C   C806      1.0  0.64138  0.32997  0.17216  1.0000
  H   H1279     1.0  0.62167  0.40094  0.33403  1.0000
  C   C807      1.0  0.65080  0.34857  0.19365  1.0000
  C   C808      1.0  0.63825  0.33980  0.20933  1.0000
  C   C809      1.0  0.62756  0.32596  0.20646  1.0000
  H   H1280     1.0  0.64280  0.32614  0.15783  1.0000
  H   H1281     1.0  0.57424  0.47280  0.23844  1.0000
  H   H1282     1.0  0.63706  0.34339  0.22373  1.0000
  H   H1283     1.0  0.61807  0.31905  0.21873  1.0000
  C   C810      1.0  0.56395  0.36413  0.09622  1.0000
  C   C811      1.0  0.55272  0.38283  0.09502  1.0000
  C   C812      1.0  0.53885  0.38851  0.08246  1.0000
  C   C813      1.0  0.53614  0.37551  0.07105  1.0000
  C   C814      1.0  0.54785  0.35703  0.07173  1.0000
  C   C815      1.0  0.56175  0.35133  0.08433  1.0000
  H   H1284     1.0  0.55468  0.39293  0.10388  1.0000
  H   H1285     1.0  0.53050  0.40307  0.08137  1.0000
  H   H1286     1.0  0.54605  0.34709  0.06262  1.0000
  H   H1287     1.0  0.57083  0.33711  0.08474  1.0000
  H   H1288     1.0  0.55977  0.24774  0.12044  1.0000
  C   C816      1.0  0.44516  0.33183  0.10976  1.0000
  C   C817      1.0  0.43039  0.33896  0.12416  1.0000
  C   C818      1.0  0.42946  0.35781  0.12831  1.0000
  C   C819      1.0  0.44317  0.36962  0.11793  1.0000
  C   C820      1.0  0.45819  0.36225  0.10389  1.0000
  C   C821      1.0  0.45915  0.34345  0.09979  1.0000
  H   H1289     1.0  0.41977  0.32993  0.13219  1.0000
  H   H1290     1.0  0.41786  0.36339  0.13926  1.0000
  H   H1291     1.0  0.46912  0.37104  0.09615  1.0000
  H   H1292     1.0  0.47056  0.33807  0.08858  1.0000
  H   H1293     1.0  0.34494  0.36166  0.03271  1.0000
  S   S336      1.0  0.63708  0.27244  0.09207  1.0000
  C   C822      1.0  0.54144  0.45167  0.11975  1.0000
  Fe  Fe165     1.0  0.59097  0.47851  0.34084  1.0000
  H   H1294     1.0  0.41494  0.36464  0.09236  1.0000
  H   H1295     1.0  0.43932  0.45364  0.17130  1.0000
  S   S337      1.0  0.56328  0.46848  0.13808  1.0000
  S   S338      1.0  0.65183  0.37463  0.25447  1.0000
  H   H1296     1.0  0.57374  0.49057  0.09070  1.0000
  H   H1297     1.0  0.55223  0.48719  0.08276  1.0000
  Fe  Fe166     1.0  0.66306  0.38126  0.22225  1.0000
  H   H1298     1.0  0.60627  0.41755  0.43588  1.0000
  H   H1299     1.0  0.62815  0.45863  0.40327  1.0000
  C   C823      1.0  0.65831  0.25594  0.09679  1.0000
  H   H1300     1.0  0.59155  0.46847  0.41103  1.0000
  H   H1301     1.0  0.64641  0.45300  0.19988  1.0000
  S   S339      1.0  0.39009  0.40789  0.99384  1.0000
  H   H1302     1.0  0.53312  0.31821  0.09419  1.0000
  H   H1303     1.0  0.51880  0.30928  0.14864  1.0000
  H   H1304     1.0  0.59473  0.45574  0.24611  1.0000
  H   H1305     1.0  0.38265  0.37149  0.05531  1.0000
  C   C824      1.0  0.61550  0.48240  0.25013  1.0000
  C   C825      1.0  0.65968  0.48038  0.15553  1.0000
  H   H1306     1.0  0.62072  0.46735  0.25726  1.0000
  H   H1307     1.0  0.50891  0.26622  0.16104  1.0000
  H   H1308     1.0  0.45447  0.41656  0.15309  1.0000
  H   H1309     1.0  0.51984  0.26168  0.07221  1.0000
  H   H1310     1.0  0.40846  0.41176  0.05844  1.0000
  N   N77       1.0  0.60685  0.43925  0.40998  1.0000
  S   S340      1.0  0.60292  0.48066  0.46026  1.0000
  C   C826      1.0  0.50935  0.34604  0.11121  1.0000
  H   H1311     1.0  0.65173  0.41760  0.15117  1.0000
  C   C827      1.0  0.53307  0.31651  0.11015  1.0000
  C   C828      1.0  0.33435  0.37043  0.02332  1.0000
  N   N78       1.0  0.59426  0.48539  0.24969  1.0000
  N   N79       1.0  0.48858  0.26273  0.07714  1.0000
  C   C829      1.0  0.60499  0.41919  0.42023  1.0000
  H   H1312     1.0  0.55161  0.43837  0.12300  1.0000
  H   H1313     1.0  0.47223  0.26336  0.10613  1.0000
  H   H1314     1.0  0.65492  0.36829  0.34629  1.0000
  C   C830      1.0  0.59015  0.47104  0.23899  1.0000
  N   N80       1.0  0.65312  0.39746  0.32986  1.0000
  S   S341      1.0  0.64969  0.39960  0.43627  1.0000
  C   C831      1.0  0.65231  0.34356  0.17508  1.0000
  C   C832      1.0  0.51556  0.32464  0.14113  1.0000
  C   C833      1.0  0.63355  0.40425  0.34057  1.0000
  C   C834      1.0  0.62607  0.44380  0.41133  1.0000
  C   C835      1.0  0.54476  0.24684  0.12725  1.0000
  H   H1315     1.0  0.57634  0.44990  0.41908  1.0000
  C   C836      1.0  0.60528  0.44070  0.38923  1.0000
  C   C837      1.0  0.49863  0.31447  0.11935  1.0000
  H   H1316     1.0  0.48410  0.32080  0.12697  1.0000
  H   H1317     1.0  0.61678  0.40820  0.41385  1.0000
  N   N81       1.0  0.58923  0.37087  0.16425  1.0000
  C   C838      1.0  0.57011  0.37039  0.15897  1.0000
  C   C839      1.0  0.59054  0.35922  0.18384  1.0000
  C   C840      1.0  0.59115  0.39131  0.16436  1.0000
  C   C841      1.0  0.60516  0.36250  0.14982  1.0000
  H   H1318     1.0  0.56848  0.37940  0.14443  1.0000
  H   H1319     1.0  0.55772  0.37603  0.16983  1.0000
  H   H1320     1.0  0.56855  0.35522  0.15805  1.0000
  H   H1321     1.0  0.60473  0.35946  0.18834  1.0000
  H   H1322     1.0  0.57864  0.36486  0.19515  1.0000
  H   H1323     1.0  0.58951  0.34360  0.18415  1.0000
  H   H1324     1.0  0.60539  0.39214  0.16844  1.0000
  H   H1325     1.0  0.57928  0.39813  0.17501  1.0000
  H   H1326     1.0  0.59037  0.40045  0.14972  1.0000
  H   H1327     1.0  0.61981  0.36300  0.15308  1.0000
  H   H1328     1.0  0.60434  0.37053  0.13474  1.0000
  H   H1329     1.0  0.60441  0.34692  0.14969  1.0000
  N   N82       1.0  0.46036  0.44621  0.14641  1.0000
  H   H1330     1.0  0.38416  0.44807  0.00125  1.0000
  C   C842      1.0  0.48176  0.44027  0.14134  1.0000
  C   C843      1.0  0.45023  0.43073  0.14367  1.0000
  C   C844      1.0  0.51281  0.46855  0.10552  1.0000
  C   C845      1.0  0.40379  0.42068  0.00406  1.0000
  H   H1331     1.0  0.63836  0.43311  0.40521  1.0000
  C   C846      1.0  0.66028  0.41503  0.16330  1.0000
  H   H1332     1.0  0.62415  0.48456  0.23516  1.0000
  N   N83       1.0  0.51413  0.32543  0.12045  1.0000
  H   H1333     1.0  0.46222  0.47640  0.13440  1.0000
  H   H1334     1.0  0.65266  0.25549  0.12785  1.0000
  C   C847      1.0  0.51616  0.25729  0.15009  1.0000
  H   H1335     1.0  0.53653  0.30061  0.11576  1.0000
  H   H1336     1.0  0.45689  0.46266  0.11803  1.0000
  H   H1337     1.0  0.64481  0.37162  0.32421  1.0000
  H   H1338     1.0  0.66215  0.35006  0.16289  1.0000
  H   H1339     1.0  0.49717  0.31471  0.10396  1.0000
  H   H1340     1.0  0.42636  0.35866  0.05877  1.0000
  C   C848      1.0  0.53556  0.25860  0.14140  1.0000
  C   C849      1.0  0.47307  0.25635  0.09314  1.0000
  S   S342      1.0  0.54693  0.27527  0.14930  1.0000
  H   H1341     1.0  0.63100  0.42036  0.34022  1.0000
  H   H1342     1.0  0.39740  0.38578  0.09749  1.0000
  C   C850      1.0  0.65458  0.40693  0.30922  1.0000
  H   H1343     1.0  0.54533  0.32333  0.11214  1.0000
  H   H1344     1.0  0.60714  0.45549  0.38090  1.0000
  H   H1345     1.0  0.46278  0.46089  0.16946  1.0000
  H   H1346     1.0  0.48446  0.29172  0.08395  1.0000
  H   H1347     1.0  0.50050  0.25783  0.04774  1.0000
  C   C851      1.0  0.48453  0.28421  0.07152  1.0000
  H   H1348     1.0  0.37468  0.37574  0.08005  1.0000
  H   H1349     1.0  0.46987  0.28905  0.06697  1.0000
  C   C852      1.0  0.42050  0.37419  0.05343  1.0000
  H   H1350     1.0  0.65617  0.42808  0.17069  1.0000
  C   C853      1.0  0.64777  0.47073  0.17123  1.0000
  C   C854      1.0  0.40970  0.38016  0.08651  1.0000
  H   H1351     1.0  0.42184  0.38853  0.08545  1.0000
  Fe  Fe167     1.0  0.62036  0.45284  0.47373  1.0000
  H   H1352     1.0  0.39232  0.35471  0.07495  1.0000
  C   C855      1.0  0.52606  0.45145  0.10978  1.0000
  H   H1353     1.0  0.61665  0.42999  0.38200  1.0000
  H   H1354     1.0  0.59242  0.45341  0.43448  1.0000
  H   H1355     1.0  0.49523  0.35333  0.11867  1.0000
  C   C856      1.0  0.38763  0.37050  0.06949  1.0000
  S   S343      1.0  0.61910  0.48967  0.32800  1.0000
  H   H1356     1.0  0.63263  0.47082  0.17048  1.0000
  H   H1357     1.0  0.52092  0.35461  0.11161  1.0000
  S   S344      1.0  0.49278  0.46905  0.09364  1.0000
  H   H1358     1.0  0.39222  0.40459  0.04553  1.0000
  H   H1359     1.0  0.34989  0.29825  0.14848  1.0000
  H   H1360     1.0  0.48706  0.42641  0.15065  1.0000
  H   H1361     1.0  0.48597  0.43789  0.12591  1.0000
  S   S345      1.0  0.66281  0.41728  0.25821  1.0000
  H   H1362     1.0  0.50183  0.29887  0.12629  1.0000
  H   H1363     1.0  0.65541  0.40248  0.17409  1.0000
  H   H1364     1.0  0.59065  0.41526  0.41955  1.0000
  C   C857      1.0  0.59108  0.45334  0.41906  1.0000
  C   C858      1.0  0.45539  0.44923  0.16698  1.0000
  H   H1365     1.0  0.45389  0.42797  0.12834  1.0000
  H   H1366     1.0  0.48993  0.45170  0.14297  1.0000
  H   H1367     1.0  0.33326  0.31958  0.15468  1.0000
  C   C859      1.0  0.51514  0.48580  0.11129  1.0000
  H   H1368     1.0  0.64357  0.40294  0.30200  1.0000
  H   H1369     1.0  0.63174  0.39716  0.35614  1.0000
  C   C860      1.0  0.33563  0.30747  0.14611  1.0000
  H   H1370     1.0  0.45840  0.26032  0.08856  1.0000
  H   H1371     1.0  0.59809  0.47268  0.22368  1.0000
  C   C861      1.0  0.53059  0.48604  0.12114  1.0000
  C   C862      1.0  0.65594  0.37601  0.33094  1.0000
  H   H1372     1.0  0.56728  0.48529  0.27012  1.0000
  H   H1373     1.0  0.34008  0.38422  0.01630  1.0000
  C   C863      1.0  0.58337  0.48268  0.26987  1.0000
  C   C864      1.0  0.63166  0.48665  0.42809  1.0000
  H   H1374     1.0  0.58735  0.46758  0.27769  1.0000
  C   C865      1.0  0.48896  0.25338  0.06010  1.0000
  H   H1375     1.0  0.33579  0.30837  0.09051  1.0000
  H   H1376     1.0  0.47470  0.25733  0.05466  1.0000
  C   C866      1.0  0.42244  0.24305  0.05909  1.0000
  H   H1377     1.0  0.33709  0.27032  0.14144  1.0000
  H   H1378     1.0  0.33440  0.36213  0.01147  1.0000
  H   H1379     1.0  0.43814  0.46997  0.13739  1.0000
  H   H1380     1.0  0.50243  0.24501  0.47966  1.0000
  C   C867      1.0  0.66236  0.24964  0.11575  1.0000
  H   H1381     1.0  0.51129  0.24083  0.08801  1.0000
  Fe  Fe168     1.0  0.61650  0.41632  0.50402  1.0000
  S   S346      1.0  0.62562  0.44485  0.50491  1.0000
  S   S347      1.0  0.59907  0.40056  0.53069  1.0000
  H   H1382     1.0  0.56795  0.26946  0.71525  1.0000
  H   H1383     1.0  0.46500  0.43873  0.53696  1.0000
  C   C868      1.0  0.37212  0.34836  0.66917  1.0000
  S   S348      1.0  0.34538  0.40690  0.91501  1.0000
  Fe  Fe169     1.0  0.38409  0.28393  0.62554  1.0000
  S   S349      1.0  0.36792  0.28919  0.60021  1.0000
  S   S350      1.0  0.41385  0.26553  0.62575  1.0000
  Fe  Fe170     1.0  0.36429  0.32066  0.60365  1.0000
  S   S351      1.0  0.36997  0.34527  0.57918  1.0000
  S   S352      1.0  0.38234  0.31561  0.62727  1.0000
  Fe  Fe171     1.0  0.56899  0.26383  0.62896  1.0000
  S   S353      1.0  0.58443  0.26439  0.59807  1.0000
  S   S354      1.0  0.53758  0.27626  0.63783  1.0000
  C   C869      1.0  0.55172  0.32740  0.57971  1.0000
  Fe  Fe172     1.0  0.61052  0.26889  0.60973  1.0000
  S   S355      1.0  0.62971  0.29106  0.59269  1.0000
  H   H1384     1.0  0.58703  0.31406  0.56044  1.0000
  S   S356      1.0  0.59387  0.27133  0.63975  1.0000
  Fe  Fe173     1.0  0.34095  0.28826  0.62322  1.0000
  Fe  Fe174     1.0  0.49788  0.37939  0.60331  1.0000
  S   S357      1.0  0.50230  0.37239  0.57315  1.0000
  S   S358      1.0  0.52192  0.36821  0.62105  1.0000
  Fe  Fe175     1.0  0.45896  0.40553  0.59950  1.0000
  S   S359      1.0  0.46018  0.40114  0.56871  1.0000
  S   S360      1.0  0.43200  0.42335  0.61407  1.0000
  Fe  Fe176     1.0  0.47041  0.36966  0.58000  1.0000
  S   S361      1.0  0.46095  0.34396  0.57219  1.0000
  Fe  Fe177     1.0  0.49183  0.40434  0.56474  1.0000
  S   S362      1.0  0.50681  0.42215  0.53817  1.0000
  S   S363      1.0  0.46688  0.37363  0.61122  1.0000
  S   S364      1.0  0.48974  0.41171  0.59448  1.0000
  S   S365      1.0  0.37453  0.43374  0.94252  1.0000
  C   C870      1.0  0.53351  0.30178  0.63305  1.0000
  C   C871      1.0  0.54674  0.31241  0.63682  1.0000
  C   C872      1.0  0.54280  0.33289  0.63365  1.0000
  C   C873      1.0  0.52606  0.34270  0.62601  1.0000
  C   C874      1.0  0.51310  0.33205  0.62178  1.0000
  C   C875      1.0  0.51671  0.31158  0.62557  1.0000
  H   H1385     1.0  0.55983  0.30491  0.64244  1.0000
  H   H1386     1.0  0.55282  0.34116  0.63691  1.0000
  H   H1387     1.0  0.50031  0.33959  0.61562  1.0000
  H   H1388     1.0  0.50679  0.30327  0.62227  1.0000
  S   S366      1.0  0.34284  0.40820  0.97267  1.0000
  C   C876      1.0  0.65184  0.31101  0.63270  1.0000
  S   S367      1.0  0.34729  0.45170  0.98092  1.0000
  C   C877      1.0  0.39481  0.48867  0.75250  1.0000
  H   H1389     1.0  0.56558  0.34073  0.54219  1.0000
  H   H1390     1.0  0.45200  0.43764  0.64842  1.0000
  C   C878      1.0  0.39524  0.34574  0.57580  1.0000
  C   C879      1.0  0.40218  0.36255  0.57744  1.0000
  C   C880      1.0  0.42239  0.36228  0.57617  1.0000
  C   C881      1.0  0.43568  0.34537  0.57264  1.0000
  C   C882      1.0  0.42870  0.32880  0.57046  1.0000
  C   C883      1.0  0.40853  0.32883  0.57248  1.0000
  H   H1391     1.0  0.39192  0.37560  0.58023  1.0000
  H   H1392     1.0  0.42765  0.37510  0.57798  1.0000
  H   H1393     1.0  0.43889  0.31574  0.56757  1.0000
  H   H1394     1.0  0.40328  0.31575  0.57133  1.0000
  S   S368      1.0  0.35758  0.28030  0.64844  1.0000
  C   C884      1.0  0.41550  0.46176  0.61154  1.0000
  C   C885      1.0  0.43295  0.44837  0.61110  1.0000
  C   C886      1.0  0.45084  0.45512  0.60822  1.0000
  H   H1395     1.0  0.64853  0.31135  0.64822  1.0000
  H   H1396     1.0  0.53191  0.28008  0.68081  1.0000
  H   H1397     1.0  0.40165  0.45665  0.61350  1.0000
  H   H1398     1.0  0.46433  0.44487  0.60823  1.0000
  H   H1399     1.0  0.39362  0.43140  0.87295  1.0000
  H   H1400     1.0  0.37928  0.34016  0.65765  1.0000
  H   H1401     1.0  0.38978  0.47250  0.92149  1.0000
  H   H1402     1.0  0.41123  0.41935  0.68484  1.0000
  H   H1403     1.0  0.37976  0.43018  0.85458  1.0000
  H   H1404     1.0  0.45374  0.30786  0.59773  1.0000
  H   H1405     1.0  0.53789  0.43326  0.50739  1.0000
  Fe  Fe178     1.0  0.34994  0.42102  0.75505  1.0000
  H   H1406     1.0  0.34712  0.47988  0.68802  1.0000
  Fe  Fe179     1.0  0.35428  0.31269  0.64790  1.0000
  Fe  Fe180     1.0  0.34853  0.42028  0.94064  1.0000
  H   H1407     1.0  0.55195  0.36072  0.55387  1.0000
  H   H1408     1.0  0.45134  0.28503  0.61365  1.0000
  C   C887      1.0  0.57350  0.40765  0.53291  1.0000
  C   C888      1.0  0.56151  0.40080  0.55017  1.0000
  C   C889      1.0  0.54104  0.40533  0.55191  1.0000
  C   C890      1.0  0.53245  0.41689  0.53642  1.0000
  C   C891      1.0  0.54444  0.42419  0.51936  1.0000
  C   C892      1.0  0.56493  0.41958  0.51760  1.0000
  H   H1409     1.0  0.56805  0.39208  0.56225  1.0000
  H   H1410     1.0  0.53192  0.40002  0.56532  1.0000
  C   C893      1.0  0.46410  0.45458  0.53077  1.0000
  H   H1411     1.0  0.57405  0.42514  0.50433  1.0000
  C   C894      1.0  0.45128  0.47525  0.60552  1.0000
  H   H1412     1.0  0.35768  0.44316  0.90361  1.0000
  C   C895      1.0  0.39880  0.48810  0.89272  1.0000
  N   N84       1.0  0.64288  0.38261  0.56920  1.0000
  C   C896      1.0  0.37624  0.46762  0.85973  1.0000
  H   H1413     1.0  0.33498  0.27010  0.58641  1.0000
  H   H1414     1.0  0.33427  0.43889  0.67600  1.0000
  C   C897      1.0  0.43387  0.48866  0.60541  1.0000
  C   C898      1.0  0.34053  0.44251  0.63678  1.0000
  H   H1415     1.0  0.55480  0.36197  0.58802  1.0000
  H   H1416     1.0  0.47839  0.45635  0.52112  1.0000
  H   H1417     1.0  0.45247  0.45842  0.52148  1.0000
  S   S369      1.0  0.34551  0.45374  0.74575  1.0000
  C   C899      1.0  0.33964  0.42514  0.66981  1.0000
  H   H1418     1.0  0.36825  0.39956  0.65268  1.0000
  C   C900      1.0  0.45881  0.48757  0.53766  1.0000
  H   H1419     1.0  0.58214  0.26379  0.69242  1.0000
  H   H1420     1.0  0.33447  0.32798  0.58277  1.0000
  C   C901      1.0  0.33746  0.48310  0.67741  1.0000
  C   C902      1.0  0.36539  0.45431  0.89332  1.0000
  H   H1421     1.0  0.44196  0.33961  0.61196  1.0000
  Fe  Fe181     1.0  0.35269  0.46053  0.94833  1.0000
  H   H1422     1.0  0.46391  0.31762  0.64366  1.0000
  H   H1423     1.0  0.35798  0.30740  0.53779  1.0000
  H   H1424     1.0  0.53333  0.26390  0.72420  1.0000
  H   H1425     1.0  0.39517  0.36562  0.66509  1.0000
  H   H1426     1.0  0.37743  0.46641  0.84411  1.0000
  H   H1427     1.0  0.42908  0.46639  0.55075  1.0000
  H   H1428     1.0  0.34784  0.41471  0.68048  1.0000
  H   H1429     1.0  0.47235  0.31846  0.61793  1.0000
  H   H1430     1.0  0.37792  0.42720  0.66269  1.0000
  S   S370      1.0  0.39824  0.46907  0.72072  1.0000
  S   S371      1.0  0.34246  0.40655  0.78630  1.0000
  C   C903      1.0  0.64410  0.30200  0.60401  1.0000
  H   H1431     1.0  0.64247  0.40810  0.54685  1.0000
  H   H1432     1.0  0.58090  0.36005  0.58091  1.0000
  C   C904      1.0  0.56589  0.35010  0.55301  1.0000
  N   N85       1.0  0.35206  0.42870  0.65045  1.0000
  H   H1433     1.0  0.44216  0.44787  0.56688  1.0000
  H   H1434     1.0  0.39133  0.46726  0.86250  1.0000
  C   C905      1.0  0.41693  0.45468  0.66468  1.0000
  Fe  Fe182     1.0  0.33624  0.44678  0.71972  1.0000
  H   H1435     1.0  0.43553  0.42013  0.65446  1.0000
  H   H1436     1.0  0.34950  0.44580  0.62209  1.0000
  N   N86       1.0  0.36676  0.45185  0.87286  1.0000
  H   H1437     1.0  0.42442  0.46494  0.65284  1.0000
  H   H1438     1.0  0.45523  0.41734  0.66785  1.0000
  H   H1439     1.0  0.43163  0.33803  0.63733  1.0000
  H   H1440     1.0  0.40676  0.46360  0.67498  1.0000
  H   H1441     1.0  0.35717  0.46891  0.89603  1.0000
  C   C906      1.0  0.40255  0.48710  0.73289  1.0000
  H   H1442     1.0  0.65707  0.44204  0.56700  1.0000
  C   C907      1.0  0.41596  0.48188  0.60857  1.0000
  C   C908      1.0  0.46395  0.31039  0.63103  1.0000
  Fe  Fe183     1.0  0.37600  0.44840  0.72909  1.0000
  H   H1443     1.0  0.41249  0.47826  0.89017  1.0000
  N   N87       1.0  0.33219  0.32019  0.55564  1.0000
  H   H1444     1.0  0.36812  0.41220  0.62819  1.0000
  H   H1445     1.0  0.64297  0.40797  0.58181  1.0000
  H   H1446     1.0  0.61621  0.37675  0.56298  1.0000
  H   H1447     1.0  0.55329  0.31803  0.59407  1.0000
  H   H1448     1.0  0.61408  0.39974  0.57085  1.0000
  C   C909      1.0  0.53671  0.25371  0.71340  1.0000
  H   H1449     1.0  0.57599  0.24441  0.71169  1.0000
  H   H1450     1.0  0.35158  0.29295  0.56123  1.0000
  H   H1451     1.0  0.37181  0.42045  0.87970  1.0000
  H   H1452     1.0  0.57069  0.34301  0.60078  1.0000
  H   H1453     1.0  0.36795  0.48236  0.86187  1.0000
  C   C910      1.0  0.64919  0.39238  0.54909  1.0000
  S   S372      1.0  0.64684  0.40163  0.49343  1.0000
  N   N88       1.0  0.56831  0.33831  0.57233  1.0000
  H   H1454     1.0  0.54228  0.29042  0.69696  1.0000
  N   N89       1.0  0.43119  0.44009  0.67483  1.0000
  C   C911      1.0  0.44408  0.42830  0.66079  1.0000
  H   H1455     1.0  0.64455  0.38526  0.59861  1.0000
  C   C912      1.0  0.44313  0.45031  0.68323  1.0000
  C   C913      1.0  0.42062  0.42707  0.69062  1.0000
  H   H1456     1.0  0.45137  0.46020  0.67169  1.0000
  C   C914      1.0  0.57028  0.25935  0.70449  1.0000
  C   C915      1.0  0.62133  0.38417  0.57307  1.0000
  H   H1457     1.0  0.47411  0.47047  0.56944  1.0000
  H   H1458     1.0  0.44027  0.28389  0.64843  1.0000
  H   H1459     1.0  0.38551  0.24387  0.61904  1.0000
  H   H1460     1.0  0.45392  0.43978  0.69120  1.0000
  H   H1461     1.0  0.64817  0.26174  0.63104  1.0000
  H   H1462     1.0  0.37896  0.43961  0.63796  1.0000
  H   H1463     1.0  0.43090  0.41570  0.69844  1.0000
  H   H1464     1.0  0.33891  0.34026  0.52912  1.0000
  S   S373      1.0  0.33765  0.41454  0.73044  1.0000
  H   H1465     1.0  0.34679  0.37795  0.71067  1.0000
  H   H1466     1.0  0.43224  0.30608  0.65873  1.0000
  H   H1467     1.0  0.55063  0.31767  0.56951  1.0000
  C   C916      1.0  0.64911  0.39210  0.58325  1.0000
  C   C917      1.0  0.35189  0.30820  0.55340  1.0000
  C   C918      1.0  0.44139  0.46328  0.55916  1.0000
  H   H1468     1.0  0.33755  0.46702  0.87097  1.0000
  C   C919      1.0  0.34502  0.35516  0.69498  1.0000
  Fe  Fe184     1.0  0.36726  0.42380  0.97508  1.0000
  H   H1469     1.0  0.33941  0.44099  0.87845  1.0000
  H   H1470     1.0  0.48369  0.24869  0.51266  1.0000
  H   H1471     1.0  0.59975  0.33199  0.56499  1.0000
  C   C920      1.0  0.34686  0.45277  0.86868  1.0000
  C   C921      1.0  0.43362  0.33072  0.62437  1.0000
  C   C922      1.0  0.35406  0.34440  0.67999  1.0000
  S   S374      1.0  0.38362  0.39204  0.69277  1.0000
  H   H1472     1.0  0.43380  0.45943  0.69382  1.0000
  N   N90       1.0  0.46011  0.46665  0.54638  1.0000
  C   C923      1.0  0.65193  0.36177  0.57143  1.0000
  C   C924      1.0  0.37207  0.37356  0.68840  1.0000
  S   S375      1.0  0.33587  0.32046  0.62427  1.0000
  C   C925      1.0  0.38114  0.36276  0.67346  1.0000
  H   H1473     1.0  0.33501  0.45668  0.64211  1.0000
  H   H1474     1.0  0.36439  0.45146  0.65749  1.0000
  H   H1475     1.0  0.53751  0.33750  0.58175  1.0000
  H   H1476     1.0  0.64477  0.38554  0.53810  1.0000
  H   H1477     1.0  0.64147  0.26703  0.65555  1.0000
  H   H1478     1.0  0.58922  0.31526  0.58494  1.0000
  C   C926      1.0  0.55596  0.24573  0.68306  1.0000
  H   H1479     1.0  0.52286  0.25360  0.70815  1.0000
  Fe  Fe185     1.0  0.65549  0.43076  0.49211  1.0000
  H   H1480     1.0  0.49067  0.46273  0.54864  1.0000
  H   H1481     1.0  0.36242  0.31440  0.55936  1.0000
  H   H1482     1.0  0.62713  0.29704  0.63276  1.0000
  H   H1483     1.0  0.55672  0.28423  0.67446  1.0000
  S   S376      1.0  0.36627  0.44370  0.70232  1.0000
  H   H1484     1.0  0.46512  0.48049  0.60330  1.0000
  H   H1485     1.0  0.38016  0.45277  0.89727  1.0000
  C   C927      1.0  0.63978  0.30276  0.62400  1.0000
  S   S377      1.0  0.34258  0.32596  0.67538  1.0000
  H   H1486     1.0  0.61598  0.37747  0.58829  1.0000
  H   H1487     1.0  0.42992  0.30139  0.60752  1.0000
  H   H1488     1.0  0.41793  0.29914  0.64363  1.0000
  Fe  Fe186     1.0  0.36870  0.41192  0.71479  1.0000
  C   C928      1.0  0.58687  0.32433  0.57057  1.0000
  H   H1489     1.0  0.41100  0.43538  0.70169  1.0000
  C   C929      1.0  0.43314  0.29944  0.64552  1.0000
  H   H1490     1.0  0.34727  0.45092  0.85335  1.0000
  H   H1491     1.0  0.40798  0.44750  0.65778  1.0000
  S   S378      1.0  0.38145  0.41609  0.74011  1.0000
  C   C930      1.0  0.37852  0.43263  0.86985  1.0000
  C   C931      1.0  0.44477  0.30077  0.61098  1.0000
  H   H1492     1.0  0.57805  0.35872  0.54703  1.0000
  C   C932      1.0  0.35390  0.36978  0.69909  1.0000
  C   C933      1.0  0.38594  0.48480  0.91042  1.0000
  N   N91       1.0  0.44385  0.31033  0.62799  1.0000
  H   H1493     1.0  0.41892  0.33141  0.62056  1.0000
  H   H1494     1.0  0.47213  0.29525  0.63377  1.0000
  C   C934      1.0  0.36909  0.43715  0.65223  1.0000
  C   C935      1.0  0.56872  0.35141  0.58610  1.0000
  H   H1495     1.0  0.38564  0.47838  0.76111  1.0000
  C   C936      1.0  0.35902  0.41002  0.64296  1.0000
  H   H1496     1.0  0.64065  0.24323  0.65085  1.0000
  H   H1497     1.0  0.47717  0.44570  0.56531  1.0000
  H   H1498     1.0  0.64758  0.35404  0.56110  1.0000
  C   C937      1.0  0.66016  0.31020  0.59270  1.0000
  H   H1499     1.0  0.65677  0.44574  0.53143  1.0000
  C   C938      1.0  0.33342  0.34023  0.54497  1.0000
  C   C939      1.0  0.41648  0.24356  0.61662  1.0000
  N   N92       1.0  0.55207  0.25958  0.69702  1.0000
  H   H1500     1.0  0.34362  0.34717  0.55062  1.0000
  H   H1501     1.0  0.54276  0.24576  0.67663  1.0000
  C   C940      1.0  0.47618  0.46120  0.55798  1.0000
  H   H1502     1.0  0.43746  0.47289  0.57048  1.0000
  H   H1503     1.0  0.64757  0.35402  0.58650  1.0000
  H   H1504     1.0  0.66289  0.25151  0.68014  1.0000
  C   C941      1.0  0.54543  0.27947  0.68696  1.0000
  H   H1505     1.0  0.34661  0.40284  0.64198  1.0000
  C   C942      1.0  0.64908  0.25560  0.64663  1.0000
  H   H1506     1.0  0.33245  0.28381  0.68679  1.0000
  H   H1507     1.0  0.66358  0.30975  0.57720  1.0000
  H   H1508     1.0  0.56768  0.24972  0.67080  1.0000
  H   H1509     1.0  0.47274  0.49062  0.52799  1.0000
  H   H1510     1.0  0.33107  0.35218  0.70345  1.0000
  Fe  Fe187     1.0  0.52310  0.68823  0.33795  1.0000
  S   S379      1.0  0.53389  0.68105  0.36664  1.0000
  H   H1511     1.0  0.64670  0.62404  0.31778  1.0000
  Fe  Fe188     1.0  0.53113  0.64552  0.33251  1.0000
  S   S380      1.0  0.54186  0.63509  0.36107  1.0000
  S   S381      1.0  0.53474  0.62360  0.31241  1.0000
  Fe  Fe189     1.0  0.51632  0.65652  0.37265  1.0000
  S   S382      1.0  0.49775  0.65071  0.40244  1.0000
  Fe  Fe190     1.0  0.55808  0.66055  0.35208  1.0000
  S   S383      1.0  0.59064  0.65645  0.35070  1.0000
  S   S384      1.0  0.50408  0.66492  0.34468  1.0000
  S   S385      1.0  0.54887  0.66984  0.32280  1.0000
  H   H1512     1.0  0.57422  0.54404  0.37531  1.0000
  H   H1513     1.0  0.34974  0.71565  0.34160  1.0000
  C   C943      1.0  0.35898  0.70135  0.33929  1.0000
  H   H1514     1.0  0.60848  0.55226  0.38986  1.0000
  S   S386      1.0  0.60012  0.50335  0.11387  1.0000
  H   H1515     1.0  0.64831  0.64918  0.31763  1.0000
  H   H1516     1.0  0.61362  0.66987  0.28282  1.0000
  S   S387      1.0  0.63936  0.57983  0.01713  1.0000
  S   S388      1.0  0.61769  0.63624  0.01333  1.0000
  Fe  Fe191     1.0  0.60000  0.51418  0.31200  1.0000
  H   H1517     1.0  0.42552  0.62393  0.45464  1.0000
  S   S389      1.0  0.60614  0.52539  0.27981  1.0000
  H   H1518     1.0  0.59610  0.50806  0.22454  1.0000
  H   H1519     1.0  0.64666  0.71028  0.06515  1.0000
  H   H1520     1.0  0.58084  0.62994  0.25948  1.0000
  Fe  Fe192     1.0  0.56879  0.51878  0.34739  1.0000
  S   S390      1.0  0.54163  0.53762  0.35997  1.0000
  S   S391      1.0  0.59518  0.53313  0.33502  1.0000
  Fe  Fe193     1.0  0.58736  0.53409  0.11826  1.0000
  S   S392      1.0  0.56313  0.52574  0.14270  1.0000
  S   S393      1.0  0.57894  0.55834  0.09402  1.0000
  H   H1521     1.0  0.58589  0.72203  0.33042  1.0000
  S   S394      1.0  0.59646  0.49288  0.16161  1.0000
  H   H1522     1.0  0.37517  0.72619  0.39733  1.0000
  H   H1523     1.0  0.33826  0.69108  0.31589  1.0000
  C   C944      1.0  0.60469  0.56088  0.37577  1.0000
  Fe  Fe194     1.0  0.58505  0.52475  0.16237  1.0000
  S   S395      1.0  0.58254  0.53480  0.19149  1.0000
  H   H1524     1.0  0.55478  0.63770  0.26286  1.0000
  S   S396      1.0  0.60797  0.53549  0.13811  1.0000
  S   S397      1.0  0.62039  0.63100  0.23510  1.0000
  Fe  Fe195     1.0  0.62708  0.62565  0.20411  1.0000
  S   S398      1.0  0.60539  0.61833  0.18804  1.0000
  H   H1525     1.0  0.34781  0.63240  0.37628  1.0000
  Fe  Fe196     1.0  0.38757  0.65934  0.43600  1.0000
  S   S399      1.0  0.38086  0.62875  0.44129  1.0000
  S   S400      1.0  0.40570  0.67104  0.40785  1.0000
  Fe  Fe197     1.0  0.36150  0.66926  0.47327  1.0000
  S   S401      1.0  0.35309  0.63939  0.48202  1.0000
  Fe  Fe198     1.0  0.38470  0.62873  0.47208  1.0000
  Fe  Fe199     1.0  0.34986  0.64251  0.45070  1.0000
  S   S402      1.0  0.62314  0.68458  0.23717  1.0000
  S   S403      1.0  0.35615  0.67315  0.44259  1.0000
  C   C945      1.0  0.60473  0.50651  0.40388  1.0000
  H   H1526     1.0  0.57215  0.50822  0.23884  1.0000
  S   S404      1.0  0.65075  0.49307  0.13429  1.0000
  H   H1527     1.0  0.65741  0.65334  0.28171  1.0000
  H   H1528     1.0  0.53609  0.51248  0.05970  1.0000
  H   H1529     1.0  0.35101  0.63239  0.41064  1.0000
  H   H1530     1.0  0.64087  0.55282  0.20080  1.0000
  C   C946      1.0  0.58961  0.55776  0.19034  1.0000
  C   C947      1.0  0.58881  0.57194  0.17360  1.0000
  C   C948      1.0  0.59395  0.59031  0.17307  1.0000
  C   C949      1.0  0.60062  0.59449  0.18896  1.0000
  C   C950      1.0  0.60209  0.58008  0.20550  1.0000
  C   C951      1.0  0.59627  0.56188  0.20632  1.0000
  H   H1531     1.0  0.58360  0.56900  0.16125  1.0000
  H   H1532     1.0  0.59261  0.60142  0.16028  1.0000
  H   H1533     1.0  0.60726  0.58316  0.21778  1.0000
  H   H1534     1.0  0.59698  0.55095  0.21930  1.0000
  C   C952      1.0  0.62015  0.54417  0.27551  1.0000
  C   C953      1.0  0.62172  0.55661  0.25747  1.0000
  C   C954      1.0  0.63228  0.57217  0.25425  1.0000
  C   C955      1.0  0.64144  0.57512  0.26901  1.0000
  C   C956      1.0  0.62948  0.54702  0.29016  1.0000
  H   H1535     1.0  0.61463  0.55431  0.24611  1.0000
  H   H1536     1.0  0.63338  0.58185  0.24037  1.0000
  H   H1537     1.0  0.62876  0.53715  0.30392  1.0000
  S   S405      1.0  0.65682  0.66068  0.02643  1.0000
  H   H1538     1.0  0.45127  0.62516  0.44945  1.0000
  C   C957      1.0  0.59832  0.50032  0.42380  1.0000
  H   H1539     1.0  0.54787  0.54125  0.08166  1.0000
  H   H1540     1.0  0.43085  0.57676  0.43641  1.0000
  H   H1541     1.0  0.62636  0.63965  0.32934  1.0000
  N   N93       1.0  0.65211  0.53421  0.17906  1.0000
  C   C958      1.0  0.56719  0.61885  0.23152  1.0000
  H   H1542     1.0  0.35114  0.65450  0.34405  1.0000
  C   C959      1.0  0.62254  0.57410  0.03856  1.0000
  C   C960      1.0  0.60471  0.58636  0.04270  1.0000
  C   C961      1.0  0.59157  0.58145  0.05988  1.0000
  C   C962      1.0  0.59632  0.56449  0.07321  1.0000
  C   C963      1.0  0.61429  0.55235  0.06925  1.0000
  C   C964      1.0  0.62726  0.55705  0.05185  1.0000
  H   H1543     1.0  0.60084  0.59943  0.03249  1.0000
  H   H1544     1.0  0.57764  0.59085  0.06283  1.0000
  H   H1545     1.0  0.61804  0.53919  0.07941  1.0000
  H   H1546     1.0  0.64100  0.54744  0.04867  1.0000
  H   H1547     1.0  0.37665  0.70488  0.41573  1.0000
  H   H1548     1.0  0.54217  0.59837  0.27436  1.0000
  S   S406      1.0  0.63960  0.65362  0.19294  1.0000
  H   H1549     1.0  0.49614  0.70492  0.38935  1.0000
  H   H1550     1.0  0.58938  0.59592  0.38674  1.0000
  H   H1551     1.0  0.34997  0.72076  0.43851  1.0000
  C   C965      1.0  0.58805  0.50544  0.23974  1.0000
  H   H1552     1.0  0.43075  0.57913  0.46129  1.0000
  S   S407      1.0  0.66346  0.62395  0.99131  1.0000
  H   H1553     1.0  0.61177  0.71626  0.25926  1.0000
  C   C966      1.0  0.53634  0.59972  0.32566  1.0000
  C   C967      1.0  0.54820  0.58424  0.31721  1.0000
  C   C968      1.0  0.54969  0.56512  0.32763  1.0000
  C   C969      1.0  0.53923  0.56138  0.34654  1.0000
  C   C970      1.0  0.52730  0.57683  0.35500  1.0000
  C   C971      1.0  0.52597  0.59601  0.34463  1.0000
  H   H1554     1.0  0.55650  0.58700  0.30273  1.0000
  H   H1555     1.0  0.55873  0.55323  0.32091  1.0000
  H   H1556     1.0  0.51915  0.57397  0.36961  1.0000
  H   H1557     1.0  0.51665  0.60788  0.35118  1.0000
  C   C972      1.0  0.47216  0.65619  0.40384  1.0000
  C   C973      1.0  0.46025  0.65812  0.42193  1.0000
  C   C974      1.0  0.43978  0.66254  0.42338  1.0000
  C   C975      1.0  0.43119  0.66538  0.40664  1.0000
  C   C976      1.0  0.44309  0.66378  0.38854  1.0000
  C   C977      1.0  0.46348  0.65891  0.38719  1.0000
  H   H1558     1.0  0.46691  0.65623  0.43483  1.0000
  H   H1559     1.0  0.43070  0.66401  0.43737  1.0000
  H   H1560     1.0  0.43651  0.66592  0.37555  1.0000
  H   H1561     1.0  0.47241  0.65708  0.37327  1.0000
  C   C978      1.0  0.59904  0.67543  0.35772  1.0000
  C   C979      1.0  0.61622  0.68187  0.34712  1.0000
  C   C980      1.0  0.62341  0.69678  0.35260  1.0000
  C   C981      1.0  0.61381  0.70488  0.36909  1.0000
  C   C982      1.0  0.59677  0.69824  0.37992  1.0000
  C   C983      1.0  0.58917  0.68377  0.37402  1.0000
  H   H1562     1.0  0.62401  0.67545  0.33462  1.0000
  H   H1563     1.0  0.63669  0.70169  0.34432  1.0000
  H   H1564     1.0  0.58942  0.70438  0.39280  1.0000
  H   H1565     1.0  0.57605  0.67864  0.38243  1.0000
  C   C984      1.0  0.65564  0.68648  0.25256  1.0000
  C   C985      1.0  0.48015  0.71421  0.31820  1.0000
  C   C986      1.0  0.46099  0.72025  0.31412  1.0000
  H   H1566     1.0  0.46613  0.57981  0.42786  1.0000
  C   C987      1.0  0.64681  0.64364  0.28144  1.0000
  H   H1567     1.0  0.47447  0.60036  0.43318  1.0000
  H   H1568     1.0  0.48712  0.69923  0.31788  1.0000
  H   H1569     1.0  0.45324  0.70985  0.31078  1.0000
  H   H1570     1.0  0.65575  0.58463  0.08145  1.0000
  C   C988      1.0  0.33182  0.68971  0.33165  1.0000
  H   H1571     1.0  0.37057  0.69866  0.34857  1.0000
  H   H1572     1.0  0.62467  0.61607  0.29797  1.0000
  N   N94       1.0  0.34712  0.68541  0.34414  1.0000
  H   H1573     1.0  0.45062  0.73785  0.40632  1.0000
  H   H1574     1.0  0.64140  0.64803  0.26724  1.0000
  H   H1575     1.0  0.66345  0.57296  0.04954  1.0000
  H   H1576     1.0  0.44581  0.71333  0.37719  1.0000
  C   C989      1.0  0.65135  0.72122  0.07192  1.0000
  C   C990      1.0  0.38189  0.71915  0.41043  1.0000
  S   S408      1.0  0.57223  0.50169  0.32304  1.0000
  H   H1577     1.0  0.57822  0.58574  0.27124  1.0000
  S   S409      1.0  0.58444  0.49414  0.36658  1.0000
  H   H1578     1.0  0.64457  0.73599  0.06533  1.0000
  C   C991      1.0  0.33487  0.63379  0.38730  1.0000
  H   H1579     1.0  0.59466  0.59655  0.25118  1.0000
  H   H1580     1.0  0.62953  0.67569  0.29695  1.0000
  C   C992      1.0  0.61976  0.66514  0.29664  1.0000
  H   H1581     1.0  0.60733  0.66664  0.30896  1.0000
  H   H1582     1.0  0.47277  0.72326  0.41319  1.0000
  C   C993      1.0  0.63703  0.71819  0.27132  1.0000
  C   C994      1.0  0.63831  0.63917  0.31649  1.0000
  N   N95       1.0  0.63045  0.64487  0.29798  1.0000
  C   C995      1.0  0.45174  0.73959  0.31476  1.0000
  C   C996      1.0  0.38662  0.72190  0.44255  1.0000
  C   C997      1.0  0.62686  0.71012  0.26042  1.0000
  C   C998      1.0  0.64014  0.56248  0.28690  1.0000
  S   S410      1.0  0.39373  0.65844  0.46607  1.0000
  H   H1583     1.0  0.58162  0.57110  0.34791  1.0000
  H   H1584     1.0  0.56596  0.60829  0.22219  1.0000
  C   C999      1.0  0.64764  0.61053  0.04981  1.0000
  C   C1000     1.0  0.33669  0.63380  0.40672  1.0000
  H   H1585     1.0  0.66013  0.56120  0.18228  1.0000
  H   H1586     1.0  0.55610  0.63209  0.22852  1.0000
  Fe  Fe200     1.0  0.57703  0.49484  0.13930  1.0000
  H   H1587     1.0  0.61477  0.57184  0.37056  1.0000
  H   H1588     1.0  0.57863  0.58145  0.24703  1.0000
  H   H1589     1.0  0.63752  0.51025  0.17865  1.0000
  H   H1590     1.0  0.50484  0.49904  0.10824  1.0000
  H   H1591     1.0  0.62319  0.53392  0.17410  1.0000
  C   C1001     1.0  0.55025  0.51813  0.05458  1.0000
  C   C1002     1.0  0.57127  0.55511  0.38518  1.0000
  H   H1592     1.0  0.36725  0.66743  0.32534  1.0000
  H   H1593     1.0  0.56537  0.61837  0.27993  1.0000
  H   H1594     1.0  0.66282  0.67411  0.24568  1.0000
  H   H1595     1.0  0.58942  0.51509  0.05106  1.0000
  Fe  Fe201     1.0  0.61831  0.50373  0.13645  1.0000
  H   H1596     1.0  0.58188  0.62332  0.22640  1.0000
  N   N96       1.0  0.44325  0.60128  0.43966  1.0000
  C   C1003     1.0  0.42908  0.58747  0.44647  1.0000
  C   C1004     1.0  0.44039  0.61498  0.45368  1.0000
  C   C1005     1.0  0.44015  0.61236  0.42023  1.0000
  C   C1006     1.0  0.46342  0.59031  0.43831  1.0000
  Fe  Fe202     1.0  0.64516  0.64990  0.00336  1.0000
  H   H1597     1.0  0.57370  0.54715  0.39991  1.0000
  H   H1598     1.0  0.59428  0.51412  0.39462  1.0000
  H   H1599     1.0  0.55833  0.51060  0.04225  1.0000
  H   H1600     1.0  0.44182  0.60705  0.46869  1.0000
  H   H1601     1.0  0.53607  0.52028  0.09201  1.0000
  C   C1007     1.0  0.56650  0.62469  0.26415  1.0000
  H   H1602     1.0  0.45345  0.71155  0.40998  1.0000
  H   H1603     1.0  0.63593  0.56347  0.17677  1.0000
  H   H1604     1.0  0.64950  0.54545  0.14903  1.0000
  H   H1605     1.0  0.56463  0.59130  0.39397  1.0000
  H   H1606     1.0  0.38311  0.73090  0.45443  1.0000
  H   H1607     1.0  0.47678  0.69332  0.38633  1.0000
  H   H1608     1.0  0.42537  0.62155  0.42083  1.0000
  H   H1609     1.0  0.55856  0.52245  0.09907  1.0000
  S   S411      1.0  0.62261  0.72386  0.37566  1.0000
  C   C1008     1.0  0.56595  0.49361  0.07793  1.0000
  H   H1610     1.0  0.36628  0.70301  0.32376  1.0000
  N   N97       1.0  0.58392  0.57030  0.37789  1.0000
  S   S412      1.0  0.63273  0.50978  0.37095  1.0000
  H   H1611     1.0  0.41371  0.59530  0.44764  1.0000
  H   H1612     1.0  0.55545  0.56147  0.38613  1.0000
  H   H1613     1.0  0.53727  0.73467  0.35986  1.0000
  N   N98       1.0  0.56180  0.51482  0.07054  1.0000
  C   C1009     1.0  0.63617  0.69430  0.25091  1.0000
  C   C1010     1.0  0.63430  0.52508  0.18278  1.0000
  Fe  Fe203     1.0  0.63593  0.65692  0.22450  1.0000
  H   H1614     1.0  0.37132  0.66276  0.35025  1.0000
  H   H1615     1.0  0.64253  0.62438  0.05589  1.0000
  H   H1616     1.0  0.63649  0.60077  0.05579  1.0000
  H   H1617     1.0  0.38184  0.70751  0.44893  1.0000
  C   C1011     1.0  0.65668  0.71062  0.27251  1.0000
  C   C1012     1.0  0.64707  0.55376  0.18498  1.0000
  H   H1618     1.0  0.53315  0.61734  0.25610  1.0000
  C   C1013     1.0  0.57966  0.59273  0.25562  1.0000
  C   C1014     1.0  0.61698  0.63148  0.29726  1.0000
  H   H1619     1.0  0.40283  0.71917  0.43821  1.0000
  H   H1620     1.0  0.61082  0.63543  0.28345  1.0000
  C   C1015     1.0  0.54487  0.60452  0.25852  1.0000
  C   C1016     1.0  0.49030  0.72768  0.32229  1.0000
  S   S413      1.0  0.51392  0.72048  0.32836  1.0000
  C   C1017     1.0  0.58023  0.58411  0.39190  1.0000
  H   H1621     1.0  0.58886  0.59250  0.35270  1.0000
  H   H1622     1.0  0.64741  0.56461  0.29825  1.0000
  C   C1018     1.0  0.62464  0.50291  0.39604  1.0000
  C   C1019     1.0  0.57944  0.58107  0.35877  1.0000
  H   H1623     1.0  0.65508  0.62850  0.28181  1.0000
  H   H1624     1.0  0.64782  0.61427  0.03383  1.0000
  H   H1625     1.0  0.56392  0.58850  0.35993  1.0000
  H   H1626     1.0  0.60807  0.55050  0.36514  1.0000
  C   C1020     1.0  0.45405  0.72582  0.37194  1.0000
  H   H1627     1.0  0.56623  0.71250  0.34740  1.0000
  H   H1628     1.0  0.62984  0.73054  0.27841  1.0000
  H   H1629     1.0  0.44345  0.73962  0.37288  1.0000
  C   C1021     1.0  0.35981  0.66672  0.34079  1.0000
  Fe  Fe204     1.0  0.63581  0.61071  0.00033  1.0000
  N   N99       1.0  0.37687  0.73166  0.42573  1.0000
  Fe  Fe205     1.0  0.61119  0.50727  0.35244  1.0000
  H   H1630     1.0  0.49051  0.70607  0.36543  1.0000
  C   C1022     1.0  0.48396  0.70645  0.38102  1.0000
  H   H1631     1.0  0.53205  0.49933  0.12577  1.0000
  H   H1632     1.0  0.39800  0.71598  0.40553  1.0000
  H   H1633     1.0  0.46627  0.58185  0.45275  1.0000
  H   H1634     1.0  0.60448  0.63199  0.30964  1.0000
  H   H1635     1.0  0.58362  0.57655  0.40648  1.0000
  N   N100      1.0  0.56455  0.61019  0.25246  1.0000
  Fe  Fe206     1.0  0.65039  0.61426  0.23712  1.0000
  H   H1636     1.0  0.54297  0.59332  0.25026  1.0000
  H   H1637     1.0  0.66095  0.60809  0.08314  1.0000
  H   H1638     1.0  0.62735  0.52372  0.19841  1.0000
  H   H1639     1.0  0.45113  0.62232  0.41431  1.0000
  C   C1023     1.0  0.58042  0.52248  0.06310  1.0000
  H   H1640     1.0  0.56967  0.73270  0.37095  1.0000
  H   H1641     1.0  0.58939  0.52043  0.07483  1.0000
  H   H1642     1.0  0.58289  0.50306  0.42978  1.0000
  C   C1024     1.0  0.46127  0.72428  0.40414  1.0000
  H   H1643     1.0  0.44145  0.60245  0.40946  1.0000
  H   H1644     1.0  0.56243  0.72371  0.32316  1.0000
  H   H1645     1.0  0.64510  0.71889  0.08775  1.0000
  N   N101      1.0  0.46984  0.72456  0.38331  1.0000
  H   H1646     1.0  0.34884  0.67974  0.37480  1.0000
  H   H1647     1.0  0.57780  0.53848  0.05746  1.0000
  C   C1025     1.0  0.56975  0.72472  0.33542  1.0000
  C   C1026     1.0  0.55054  0.52511  0.08651  1.0000
  H   H1648     1.0  0.54681  0.53400  0.04871  1.0000
  C   C1027     1.0  0.33778  0.68384  0.36485  1.0000
  H   H1649     1.0  0.66104  0.52000  0.20639  1.0000
  H   H1650     1.0  0.45999  0.72560  0.35624  1.0000
  H   H1651     1.0  0.59076  0.51663  0.24757  1.0000
  S   S414      1.0  0.65608  0.60666  0.20699  1.0000
  H   H1652     1.0  0.65360  0.49088  0.40234  1.0000
  S   S415      1.0  0.65423  0.59476  0.26541  1.0000
  C   C1028     1.0  0.63815  0.49343  0.40828  1.0000
  C   C1029     1.0  0.35542  0.73483  0.43221  1.0000
  C   C1030     1.0  0.66026  0.53624  0.15800  1.0000
  H   H1653     1.0  0.58653  0.49293  0.27853  1.0000
  H   H1654     1.0  0.61909  0.49276  0.25840  1.0000
  Fe  Fe207     1.0  0.63821  0.74076  0.34886  1.0000
  Fe  Fe208     1.0  0.40885  0.54410  0.78920  1.0000
  S   S416      1.0  0.38413  0.53403  0.81148  1.0000
  Fe  Fe209     1.0  0.41664  0.57249  0.81422  1.0000
  S   S417      1.0  0.39227  0.56436  0.83843  1.0000
  S   S418      1.0  0.43410  0.59704  0.81255  1.0000
  Fe  Fe210     1.0  0.40362  0.53345  0.83321  1.0000
  H   H1655     1.0  0.33313  0.71572  0.77704  1.0000
  Fe  Fe211     1.0  0.37520  0.56577  0.81432  1.0000
  S   S419      1.0  0.34375  0.58020  0.81511  1.0000
  S   S420      1.0  0.42933  0.54142  0.81054  1.0000
  S   S421      1.0  0.39856  0.57606  0.79053  1.0000
  Fe  Fe212     1.0  0.37447  0.56608  0.59815  1.0000
  S   S422      1.0  0.39981  0.56163  0.61428  1.0000
  S   S423      1.0  0.36547  0.59488  0.57920  1.0000
  Fe  Fe213     1.0  0.36195  0.52720  0.61833  1.0000
  S   S424      1.0  0.38614  0.51948  0.63604  1.0000
  H   H1656     1.0  0.63706  0.70194  0.90863  1.0000
  Fe  Fe214     1.0  0.37888  0.55066  0.64049  1.0000
  S   S425      1.0  0.37437  0.55714  0.67098  1.0000
  Fe  Fe215     1.0  0.40477  0.53081  0.60828  1.0000
  S   S426      1.0  0.43471  0.51377  0.60035  1.0000
  S   S427      1.0  0.35304  0.55765  0.62503  1.0000
  S   S428      1.0  0.38115  0.53606  0.58989  1.0000
  Fe  Fe216     1.0  0.35422  0.65582  0.69076  1.0000
  S   S429      1.0  0.38270  0.64361  0.67376  1.0000
  H   H1657     1.0  0.33106  0.64620  0.52539  1.0000
  H   H1658     1.0  0.42376  0.69890  0.79189  1.0000
  S   S430      1.0  0.34837  0.65001  0.72344  1.0000
  H   H1659     1.0  0.63799  0.64321  0.82171  1.0000
  S   S431      1.0  0.40983  0.50665  0.85575  1.0000
  S   S432      1.0  0.62645  0.62092  0.97096  1.0000
  H   H1660     1.0  0.46781  0.61649  0.92663  1.0000
  Fe  Fe217     1.0  0.52335  0.63567  0.90131  1.0000
  S   S433      1.0  0.52325  0.61558  0.88034  1.0000
  S   S434      1.0  0.53735  0.62085  0.92770  1.0000
  Fe  Fe218     1.0  0.50052  0.66962  0.87763  1.0000
  S   S435      1.0  0.49827  0.65226  0.85511  1.0000
  S   S436      1.0  0.48843  0.70160  0.87231  1.0000
  Fe  Fe219     1.0  0.49174  0.62872  0.88048  1.0000
  S   S437      1.0  0.47051  0.60745  0.88453  1.0000
  Fe  Fe220     1.0  0.52982  0.64064  0.85687  1.0000
  S   S438      1.0  0.54962  0.63453  0.82907  1.0000
  S   S439      1.0  0.49112  0.64715  0.90321  1.0000
  S   S440      1.0  0.53276  0.65978  0.87761  1.0000
  H   H1661     1.0  0.49670  0.61245  0.81793  1.0000
  Fe  Fe221     1.0  0.33157  0.68053  0.72093  1.0000
  H   H1662     1.0  0.63065  0.66143  0.80189  1.0000
  S   S441      1.0  0.60361  0.69832  0.79099  1.0000
  S   S442      1.0  0.59454  0.72144  0.83960  1.0000
  H   H1663     1.0  0.50296  0.60381  0.91764  1.0000
  H   H1664     1.0  0.51520  0.58450  0.93337  1.0000
  S   S443      1.0  0.40039  0.73039  0.76484  1.0000
  C   C1031     1.0  0.56526  0.65182  0.81914  1.0000
  C   C1032     1.0  0.56855  0.66479  0.83032  1.0000
  C   C1033     1.0  0.58039  0.67909  0.82186  1.0000
  C   C1034     1.0  0.58903  0.68041  0.80220  1.0000
  C   C1035     1.0  0.58617  0.66711  0.79118  1.0000
  C   C1036     1.0  0.57431  0.65285  0.79962  1.0000
  H   H1665     1.0  0.56213  0.66373  0.84550  1.0000
  H   H1666     1.0  0.58280  0.68899  0.83059  1.0000
  H   H1667     1.0  0.59293  0.66798  0.77599  1.0000
  H   H1668     1.0  0.57194  0.64280  0.79092  1.0000
  C   C1037     1.0  0.42544  0.70992  0.86182  1.0000
  C   C1038     1.0  0.43388  0.69203  0.87157  1.0000
  C   C1039     1.0  0.45333  0.68934  0.87466  1.0000
  C   C1040     1.0  0.46421  0.70467  0.86832  1.0000
  C   C1041     1.0  0.45576  0.72254  0.85860  1.0000
  S   S444      1.0  0.35119  0.49242  0.93513  1.0000
  C   C1042     1.0  0.36348  0.51348  0.89943  1.0000
  H   H1669     1.0  0.45978  0.67549  0.88219  1.0000
  H   H1670     1.0  0.35810  0.49661  0.65484  1.0000
  C   C1043     1.0  0.52569  0.69933  0.82886  1.0000
  C   C1044     1.0  0.57046  0.65149  0.95951  1.0000
  C   C1045     1.0  0.55731  0.66264  0.94745  1.0000
  C   C1046     1.0  0.54758  0.65351  0.93704  1.0000
  C   C1047     1.0  0.55054  0.63310  0.93903  1.0000
  C   C1048     1.0  0.56367  0.62198  0.95109  1.0000
  C   C1049     1.0  0.57376  0.63112  0.96109  1.0000
  H   H1671     1.0  0.55450  0.67839  0.94630  1.0000
  H   H1672     1.0  0.53736  0.66223  0.92797  1.0000
  H   H1673     1.0  0.56600  0.60619  0.95279  1.0000
  H   H1674     1.0  0.58365  0.62234  0.97047  1.0000
  C   C1050     1.0  0.36808  0.70462  0.73865  1.0000
  Fe  Fe222     1.0  0.39685  0.73904  0.83383  1.0000
  H   H1675     1.0  0.37020  0.69824  0.72553  1.0000
  C   C1051     1.0  0.37628  0.59691  0.55441  1.0000
  C   C1052     1.0  0.38810  0.58095  0.54679  1.0000
  C   C1053     1.0  0.39587  0.58279  0.52677  1.0000
  C   C1054     1.0  0.39174  0.60054  0.51430  1.0000
  C   C1055     1.0  0.38023  0.61660  0.52202  1.0000
  C   C1056     1.0  0.37259  0.61480  0.54202  1.0000
  H   H1676     1.0  0.39117  0.56716  0.55626  1.0000
  H   H1677     1.0  0.40485  0.57035  0.52091  1.0000
  H   H1678     1.0  0.37748  0.63052  0.51264  1.0000
  H   H1679     1.0  0.36390  0.62732  0.54791  1.0000
  H   H1680     1.0  0.33275  0.60369  0.61419  1.0000
  C   C1057     1.0  0.33572  0.58728  0.79241  1.0000
  C   C1058     1.0  0.37742  0.58091  0.67177  1.0000
  C   C1059     1.0  0.39064  0.59055  0.65752  1.0000
  C   C1060     1.0  0.39279  0.60967  0.65844  1.0000
  C   C1061     1.0  0.38138  0.61924  0.67336  1.0000
  C   C1062     1.0  0.36858  0.60937  0.68787  1.0000
  C   C1063     1.0  0.36660  0.59024  0.68707  1.0000
  H   H1681     1.0  0.39935  0.58322  0.64590  1.0000
  H   H1682     1.0  0.40295  0.61718  0.64738  1.0000
  H   H1683     1.0  0.36016  0.61644  0.69978  1.0000
  H   H1684     1.0  0.35642  0.58284  0.69820  1.0000
  H   H1685     1.0  0.54345  0.56990  0.83792  1.0000
  H   H1686     1.0  0.33401  0.62702  0.59906  1.0000
  C   C1064     1.0  0.39398  0.50398  0.87825  1.0000
  S   S445      1.0  0.40151  0.71291  0.85704  1.0000
  H   H1687     1.0  0.34716  0.61730  0.65676  1.0000
  C   C1065     1.0  0.37635  0.51678  0.88167  1.0000
  H   H1688     1.0  0.34974  0.52325  0.90194  1.0000
  H   H1689     1.0  0.37255  0.52905  0.87054  1.0000
  C   C1066     1.0  0.44358  0.59998  0.83294  1.0000
  C   C1067     1.0  0.45400  0.61548  0.83119  1.0000
  C   C1068     1.0  0.46193  0.61818  0.84702  1.0000
  C   C1069     1.0  0.45966  0.60528  0.86472  1.0000
  C   C1070     1.0  0.44914  0.58987  0.86651  1.0000
  C   C1071     1.0  0.44113  0.58721  0.85069  1.0000
  H   H1690     1.0  0.45603  0.62535  0.81748  1.0000
  H   H1691     1.0  0.46984  0.63019  0.84552  1.0000
  H   H1692     1.0  0.44728  0.57981  0.88014  1.0000
  H   H1693     1.0  0.43312  0.57523  0.85222  1.0000
  H   H1694     1.0  0.36777  0.62445  0.60357  1.0000
  C   C1072     1.0  0.39930  0.50349  0.76105  1.0000
  H   H1695     1.0  0.52578  0.71619  0.79140  1.0000
  H   H1696     1.0  0.53208  0.69501  0.84255  1.0000
  N   N102      1.0  0.61595  0.68225  0.91737  1.0000
  C   C1073     1.0  0.34751  0.59589  0.77586  1.0000
  C   C1074     1.0  0.35316  0.51226  0.73511  1.0000
  H   H1697     1.0  0.48938  0.58156  0.84024  1.0000
  H   H1698     1.0  0.53005  0.58530  0.79827  1.0000
  S   S446      1.0  0.64081  0.71917  0.86117  1.0000
  C   C1075     1.0  0.63639  0.67871  0.83050  1.0000
  H   H1699     1.0  0.34350  0.65383  0.61193  1.0000
  H   H1700     1.0  0.49980  0.73058  0.83861  1.0000
  S   S447      1.0  0.41857  0.53533  0.75922  1.0000
  H   H1701     1.0  0.39355  0.50459  0.77620  1.0000
  H   H1702     1.0  0.39931  0.65465  0.80627  1.0000
  N   N103      1.0  0.51814  0.58854  0.82804  1.0000
  H   H1703     1.0  0.43069  0.69128  0.82568  1.0000
  H   H1704     1.0  0.55597  0.71429  0.80507  1.0000
  H   H1705     1.0  0.36059  0.72791  0.78546  1.0000
  H   H1706     1.0  0.58745  0.69118  0.93342  1.0000
  H   H1707     1.0  0.42543  0.68023  0.87666  1.0000
  H   H1708     1.0  0.42851  0.52484  0.72176  1.0000
  C   C1076     1.0  0.54710  0.72334  0.81592  1.0000
  H   H1709     1.0  0.59421  0.68409  0.89940  1.0000
  H   H1710     1.0  0.55409  0.71968  0.82924  1.0000
  H   H1711     1.0  0.63135  0.66810  0.84347  1.0000
  H   H1712     1.0  0.47922  0.61339  0.96698  1.0000
  C   C1077     1.0  0.50416  0.57984  0.84431  1.0000
  C   C1078     1.0  0.51970  0.57901  0.81087  1.0000
  H   H1713     1.0  0.54843  0.59228  0.82210  1.0000
  Fe  Fe223     1.0  0.60381  0.72243  0.80743  1.0000
  H   H1714     1.0  0.49725  0.57969  0.92064  1.0000
  H   H1715     1.0  0.51032  0.69641  0.83263  1.0000
  H   H1716     1.0  0.33258  0.61034  0.53509  1.0000
  H   H1717     1.0  0.47125  0.57978  0.97183  1.0000
  H   H1718     1.0  0.49249  0.62339  0.94399  1.0000
  H   H1719     1.0  0.50908  0.56391  0.84871  1.0000
  H   H1720     1.0  0.33829  0.66471  0.78330  1.0000
  H   H1721     1.0  0.62003  0.65721  0.93977  1.0000
  H   H1722     1.0  0.50479  0.60421  0.95980  1.0000
  C   C1079     1.0  0.38092  0.72049  0.76009  1.0000
  H   H1723     1.0  0.36736  0.49634  0.70267  1.0000
  H   H1724     1.0  0.60074  0.65748  0.92666  1.0000
  C   C1080     1.0  0.33966  0.64559  0.62686  1.0000
  C   C1081     1.0  0.49058  0.60960  0.95440  1.0000
  N   N104      1.0  0.48522  0.59496  0.94491  1.0000
  N   N105      1.0  0.34701  0.51886  0.71579  1.0000
  H   H1725     1.0  0.35493  0.54732  0.71255  1.0000
  C   C1082     1.0  0.60932  0.68720  0.89821  1.0000
  S   S448      1.0  0.58237  0.66341  0.97249  1.0000
  H   H1726     1.0  0.39757  0.71097  0.73370  1.0000
  Fe  Fe224     1.0  0.62188  0.73383  0.83823  1.0000
  C   C1083     1.0  0.34977  0.70616  0.75068  1.0000
  N   N106      1.0  0.41553  0.58474  0.71883  1.0000
  C   C1084     1.0  0.41434  0.60287  0.70430  1.0000
  C   C1085     1.0  0.39931  0.57428  0.71871  1.0000
  C   C1086     1.0  0.41401  0.58973  0.73843  1.0000
  C   C1087     1.0  0.43445  0.57205  0.71388  1.0000
  H   H1727     1.0  0.42633  0.61116  0.70396  1.0000
  H   H1728     1.0  0.40024  0.61283  0.70758  1.0000
  H   H1729     1.0  0.41542  0.59964  0.68934  1.0000
  H   H1730     1.0  0.39965  0.56064  0.72968  1.0000
  H   H1731     1.0  0.38479  0.58346  0.72225  1.0000
  H   H1732     1.0  0.40015  0.57002  0.70422  1.0000
  H   H1733     1.0  0.41539  0.57632  0.74961  1.0000
  H   H1734     1.0  0.39964  0.59878  0.74291  1.0000
  H   H1735     1.0  0.42577  0.59794  0.73903  1.0000
  H   H1736     1.0  0.43587  0.55829  0.72466  1.0000
  H   H1737     1.0  0.44703  0.57945  0.71378  1.0000
  H   H1738     1.0  0.43595  0.56782  0.69925  1.0000
  H   H1739     1.0  0.65439  0.64662  0.79882  1.0000
  H   H1740     1.0  0.60925  0.70299  0.89205  1.0000
  H   H1741     1.0  0.42231  0.67080  0.84211  1.0000
  C   C1088     1.0  0.48295  0.57691  0.95918  1.0000
  H   H1742     1.0  0.47896  0.56556  0.95243  1.0000
  H   H1743     1.0  0.36612  0.51868  0.73601  1.0000
  S   S449      1.0  0.33910  0.50825  0.62077  1.0000
  H   H1744     1.0  0.34863  0.61103  0.74614  1.0000
  C   C1089     1.0  0.50084  0.59042  0.92845  1.0000
  S   S450      1.0  0.63589  0.66434  0.97471  1.0000
  C   C1090     1.0  0.60275  0.69414  0.93113  1.0000
  C   C1091     1.0  0.51774  0.72528  0.80255  1.0000
  H   H1745     1.0  0.53690  0.59283  0.84682  1.0000
  H   H1746     1.0  0.46230  0.59233  0.92995  1.0000
  Fe  Fe225     1.0  0.65196  0.63713  0.96348  1.0000
  C   C1092     1.0  0.41454  0.50037  0.72201  1.0000
  H   H1747     1.0  0.33501  0.62910  0.79528  1.0000
  C   C1093     1.0  0.41160  0.51657  0.74999  1.0000
  N   N107      1.0  0.34300  0.62427  0.62685  1.0000
  C   C1094     1.0  0.33960  0.60417  0.75877  1.0000
  H   H1748     1.0  0.62597  0.65176  0.91550  1.0000
  H   H1749     1.0  0.50235  0.58690  0.85745  1.0000
  S   S451      1.0  0.34001  0.68734  0.68819  1.0000
  H   H1750     1.0  0.36243  0.59692  0.77651  1.0000
  N   N108      1.0  0.52650  0.72010  0.82056  1.0000
  H   H1751     1.0  0.50930  0.61720  0.83579  1.0000
  C   C1095     1.0  0.41900  0.51493  0.73045  1.0000
  H   H1752     1.0  0.52163  0.61689  0.81121  1.0000
  H   H1753     1.0  0.42397  0.64575  0.81031  1.0000
  H   H1754     1.0  0.64142  0.68321  0.92932  1.0000
  H   H1755     1.0  0.60255  0.71006  0.92581  1.0000
  H   H1756     1.0  0.64196  0.69008  0.83578  1.0000
  H   H1757     1.0  0.64655  0.67710  0.90533  1.0000
  C   C1096     1.0  0.34724  0.71451  0.76763  1.0000
  H   H1758     1.0  0.44681  0.49225  0.52882  1.0000
  C   C1097     1.0  0.34358  0.49293  0.65866  1.0000
  H   H1759     1.0  0.61918  0.67870  0.88742  1.0000
  C   C1098     1.0  0.61563  0.66127  0.92509  1.0000
  H   H1760     1.0  0.37659  0.51872  0.70051  1.0000
  H   H1761     1.0  0.44205  0.66679  0.82225  1.0000
  H   H1762     1.0  0.50522  0.58088  0.80609  1.0000
  H   H1763     1.0  0.40479  0.64904  0.83068  1.0000
  H   H1764     1.0  0.60732  0.69071  0.94577  1.0000
  H   H1765     1.0  0.52501  0.56301  0.81416  1.0000
  C   C1099     1.0  0.38356  0.71184  0.74332  1.0000
  C   C1100     1.0  0.53758  0.58568  0.83398  1.0000
  C   C1101     1.0  0.34209  0.54042  0.71229  1.0000
  C   C1102     1.0  0.51109  0.60969  0.82298  1.0000
  C   C1103     1.0  0.36814  0.49732  0.91370  1.0000
  H   H1766     1.0  0.45438  0.60645  0.94948  1.0000
  C   C1104     1.0  0.43641  0.72516  0.85531  1.0000
  C   C1105     1.0  0.46660  0.60289  0.93751  1.0000
  C   C1106     1.0  0.36277  0.72149  0.77242  1.0000
  C   C1107     1.0  0.64332  0.65438  0.80941  1.0000
  H   H1767     1.0  0.46421  0.73429  0.85340  1.0000
  H   H1768     1.0  0.36716  0.60164  0.61984  1.0000
  C   C1108     1.0  0.36381  0.61781  0.61913  1.0000
  C   C1109     1.0  0.63610  0.68639  0.91506  1.0000
  H   H1769     1.0  0.45580  0.49703  0.54916  1.0000
  H   H1770     1.0  0.52154  0.72882  0.84879  1.0000
  N   N109      1.0  0.41350  0.67579  0.81392  1.0000
  C   C1110     1.0  0.39482  0.68811  0.82043  1.0000
  C   C1111     1.0  0.42109  0.68358  0.79344  1.0000
  C   C1112     1.0  0.41023  0.65546  0.81535  1.0000
  C   C1113     1.0  0.42782  0.67614  0.82648  1.0000
  H   H1771     1.0  0.38875  0.68296  0.83595  1.0000
  H   H1772     1.0  0.38361  0.68831  0.81130  1.0000
  H   H1773     1.0  0.39689  0.70350  0.81948  1.0000
  H   H1774     1.0  0.43512  0.67462  0.78789  1.0000
  H   H1775     1.0  0.41048  0.68389  0.78359  1.0000
  S   S452      1.0  0.40086  0.60249  0.48911  1.0000
  H   H1776     1.0  0.34863  0.64945  0.63644  1.0000
  C   C1114     1.0  0.36322  0.51253  0.70049  1.0000
  C   C1115     1.0  0.51544  0.73252  0.83491  1.0000
  H   H1777     1.0  0.33761  0.54592  0.69771  1.0000
  H   H1778     1.0  0.35921  0.51742  0.68566  1.0000
  H   H1779     1.0  0.40248  0.49215  0.60814  1.0000
  S   S453      1.0  0.63212  0.73259  0.80638  1.0000
  H   H1780     1.0  0.50215  0.72305  0.80556  1.0000
  H   H1781     1.0  0.53392  0.68948  0.81847  1.0000
  H   H1782     1.0  0.49678  0.57054  0.96498  1.0000
  H   H1783     1.0  0.37369  0.62199  0.62747  1.0000
  H   H1784     1.0  0.64552  0.69141  0.79197  1.0000
  H   H1785     1.0  0.62333  0.68609  0.82382  1.0000
  C   C1116     1.0  0.33111  0.49737  0.64477  1.0000
  N   N110      1.0  0.65155  0.66898  0.81635  1.0000
  H   H1786     1.0  0.34126  0.51655  0.74708  1.0000
  H   H1787     1.0  0.35732  0.49606  0.73807  1.0000
  C   C1117     1.0  0.33812  0.61397  0.64701  1.0000
  H   H1788     1.0  0.42996  0.73904  0.84784  1.0000
  H   H1789     1.0  0.34085  0.59780  0.64768  1.0000
  S   S454      1.0  0.34713  0.69264  0.49113  1.0000
  H   H1790     1.0  0.33273  0.49397  0.71820  1.0000
  C   C1118     1.0  0.65796  0.68370  0.79955  1.0000
  Fe  Fe226     1.0  0.61053  0.64766  0.98308  1.0000
  H   H1791     1.0  0.33280  0.49601  0.97792  1.0000
  H   H1792     1.0  0.42060  0.49933  0.70690  1.0000
  H   H1793     1.0  0.54818  0.73892  0.80978  1.0000
  H   H1794     1.0  0.33111  0.61217  0.56024  1.0000
  S   S455      1.0  0.42098  0.74053  0.80821  1.0000
  Fe  Fe227     1.0  0.62480  0.77475  0.31919  1.0000
  S   S456      1.0  0.59797  0.79687  0.31336  1.0000
  H   H1795     1.0  0.37310  0.96912  0.09373  1.0000
  Fe  Fe228     1.0  0.53007  0.84953  0.39463  1.0000
  S   S457      1.0  0.51044  0.84539  0.42374  1.0000
  S   S458      1.0  0.55560  0.82496  0.39271  1.0000
  Fe  Fe229     1.0  0.50801  0.89015  0.38277  1.0000
  S   S459      1.0  0.48765  0.88886  0.41136  1.0000
  S   S460      1.0  0.50449  0.91812  0.36107  1.0000
  Fe  Fe230     1.0  0.51440  0.87594  0.42488  1.0000
  S   S461      1.0  0.52030  0.88424  0.45243  1.0000
  Fe  Fe231     1.0  0.48599  0.85861  0.40682  1.0000
  S   S462      1.0  0.45529  0.85176  0.41024  1.0000
  S   S463      1.0  0.53507  0.87944  0.39659  1.0000
  S   S464      1.0  0.50533  0.86050  0.37749  1.0000
  C   C1119     1.0  0.56493  0.84925  0.43284  1.0000
  C   C1120     1.0  0.54561  0.89556  0.47150  1.0000
  Fe  Fe232     1.0  0.38782  0.80614  0.33753  1.0000
  S   S465      1.0  0.37945  0.79671  0.37000  1.0000
  S   S466      1.0  0.38275  0.83772  0.32271  1.0000
  Fe  Fe233     1.0  0.41041  0.78088  0.36852  1.0000
  S   S467      1.0  0.43179  0.77670  0.38953  1.0000
  Fe  Fe234     1.0  0.37254  0.76994  0.36151  1.0000
  S   S468      1.0  0.41937  0.79233  0.33690  1.0000
  S   S469      1.0  0.37864  0.78051  0.32919  1.0000
  C   C1121     1.0  0.57311  0.74444  0.35845  1.0000
  S   S470      1.0  0.37104  0.91178  0.21707  1.0000
  H   H1796     1.0  0.38242  0.94604  0.34540  1.0000
  Fe  Fe235     1.0  0.40450  0.98564  0.34940  1.0000
  Fe  Fe236     1.0  0.35050  0.88962  0.22475  1.0000
  S   S471      1.0  0.35441  0.85838  0.24063  1.0000
  Fe  Fe237     1.0  0.36223  0.91769  0.18738  1.0000
  S   S472      1.0  0.38083  0.92534  0.15808  1.0000
  H   H1797     1.0  0.64256  0.97419  0.40453  1.0000
  S   S473      1.0  0.41759  0.96297  0.37241  1.0000
  N   N111      1.0  0.36174  0.94303  0.09327  1.0000
  H   H1798     1.0  0.37693  0.90382  0.32401  1.0000
  S   S474      1.0  0.33629  0.94023  0.19465  1.0000
  N   N112      1.0  0.56593  0.83352  0.44992  1.0000
  H   H1799     1.0  0.37070  0.97205  0.42479  1.0000
  H   H1800     1.0  0.58726  0.81014  0.46113  1.0000
  H   H1801     1.0  0.33748  0.93920  0.30814  1.0000
  H   H1802     1.0  0.47827  0.92924  0.42711  1.0000
  H   H1803     1.0  0.49942  0.94548  0.44091  1.0000
  H   H1804     1.0  0.39613  0.96530  0.41484  1.0000
  C   C1122     1.0  0.34957  0.96054  0.26085  1.0000
  H   H1805     1.0  0.63397  0.83286  0.30833  1.0000
  C   C1123     1.0  0.34264  0.94704  0.27674  1.0000
  C   C1124     1.0  0.35148  0.96485  0.29920  1.0000
  C   C1125     1.0  0.38347  0.75072  0.41774  1.0000
  H   H1806     1.0  0.65552  0.93809  0.38408  1.0000
  H   H1807     1.0  0.33310  0.99050  0.18971  1.0000
  C   C1126     1.0  0.39448  0.97410  0.17076  1.0000
  H   H1808     1.0  0.38111  0.91846  0.08276  1.0000
  H   H1809     1.0  0.33605  0.93530  0.27432  1.0000
  C   C1127     1.0  0.38830  0.94816  0.15592  1.0000
  C   C1128     1.0  0.38850  0.95589  0.17259  1.0000
  H   H1810     1.0  0.38439  0.94769  0.18693  1.0000
  H   H1811     1.0  0.53562  0.89135  0.48470  1.0000
  S   S475      1.0  0.34476  0.89315  0.19402  1.0000
  C   C1129     1.0  0.37312  0.84388  0.30076  1.0000
  C   C1130     1.0  0.37365  0.86266  0.28978  1.0000
  C   C1131     1.0  0.36749  0.86749  0.27148  1.0000
  C   C1132     1.0  0.36089  0.85348  0.26405  1.0000
  C   C1133     1.0  0.35998  0.83484  0.27519  1.0000
  C   C1134     1.0  0.36589  0.83011  0.29358  1.0000
  C   C1135     1.0  0.36266  0.93500  0.11403  1.0000
  C   C1136     1.0  0.63917  0.94231  0.43182  1.0000
  H   H1812     1.0  0.39955  0.74894  0.41237  1.0000
  H   H1813     1.0  0.36499  0.81577  0.30211  1.0000
  C   C1137     1.0  0.47992  0.92965  0.36162  1.0000
  C   C1138     1.0  0.47557  0.94886  0.35187  1.0000
  C   C1139     1.0  0.45622  0.95899  0.35418  1.0000
  C   C1140     1.0  0.44129  0.94999  0.36657  1.0000
  C   C1141     1.0  0.44557  0.93063  0.37582  1.0000
  C   C1142     1.0  0.46473  0.92036  0.37301  1.0000
  H   H1814     1.0  0.48722  0.95607  0.34284  1.0000
  H   H1815     1.0  0.45301  0.97395  0.34697  1.0000
  H   H1816     1.0  0.43408  0.92351  0.38530  1.0000
  H   H1817     1.0  0.46773  0.90532  0.37995  1.0000
  C   C1143     1.0  0.54158  0.89370  0.45334  1.0000
  H   H1818     1.0  0.62493  0.94727  0.44081  1.0000
  C   C1144     1.0  0.57537  0.90863  0.45576  1.0000
  C   C1145     1.0  0.57132  0.90674  0.43762  1.0000
  C   C1146     1.0  0.55457  0.89928  0.43640  1.0000
  H   H1819     1.0  0.58120  0.91112  0.42441  1.0000
  H   H1820     1.0  0.55171  0.89795  0.42234  1.0000
  C   C1147     1.0  0.45018  0.83123  0.40241  1.0000
  C   C1148     1.0  0.46284  0.81331  0.40376  1.0000
  C   C1149     1.0  0.45720  0.79669  0.39956  1.0000
  C   C1150     1.0  0.43917  0.79803  0.39339  1.0000
  C   C1151     1.0  0.42688  0.81611  0.39131  1.0000
  C   C1152     1.0  0.43222  0.83253  0.39614  1.0000
  H   H1821     1.0  0.47660  0.81211  0.40879  1.0000
  H   H1822     1.0  0.46676  0.78276  0.40131  1.0000
  H   H1823     1.0  0.41292  0.81731  0.38667  1.0000
  H   H1824     1.0  0.42228  0.84629  0.39522  1.0000
  C   C1153     1.0  0.58464  0.80435  0.33513  1.0000
  C   C1154     1.0  0.58725  0.79265  0.35302  1.0000
  C   C1155     1.0  0.57806  0.79912  0.37050  1.0000
  C   C1156     1.0  0.56567  0.81715  0.37028  1.0000
  C   C1157     1.0  0.56228  0.82863  0.35241  1.0000
  C   C1158     1.0  0.57185  0.82224  0.33480  1.0000
  H   H1825     1.0  0.59616  0.77841  0.35345  1.0000
  H   H1826     1.0  0.58051  0.79004  0.38428  1.0000
  H   H1827     1.0  0.55261  0.84255  0.35215  1.0000
  H   H1828     1.0  0.56957  0.83128  0.32097  1.0000
  H   H1829     1.0  0.53667  0.76079  0.35443  1.0000
  C   C1159     1.0  0.62231  0.93320  0.40933  1.0000
  C   C1160     1.0  0.38297  0.97675  0.41344  1.0000
  H   H1830     1.0  0.48911  0.75771  0.32523  1.0000
  S   S476      1.0  0.59655  0.91846  0.45615  1.0000
  H   H1831     1.0  0.33424  0.84979  0.13119  1.0000
  C   C1161     1.0  0.48126  0.74717  0.32228  1.0000
  C   C1162     1.0  0.48006  0.74165  0.37614  1.0000
  C   C1163     1.0  0.36619  0.92690  0.08176  1.0000
  N   N113      1.0  0.63733  0.94446  0.41106  1.0000
  S   S477      1.0  0.65468  0.77404  0.30084  1.0000
  S   S478      1.0  0.35163  0.96781  0.32337  1.0000
  H   H1832     1.0  0.64998  0.95102  0.43383  1.0000
  H   H1833     1.0  0.40130  0.92206  0.30158  1.0000
  C   C1164     1.0  0.35907  0.97787  0.28328  1.0000
  H   H1834     1.0  0.37913  0.87343  0.29530  1.0000
  H   H1835     1.0  0.51537  0.92163  0.39690  1.0000
  H   H1836     1.0  0.53040  0.93305  0.40744  1.0000
  H   H1837     1.0  0.59701  0.83156  0.44793  1.0000
  S   S479      1.0  0.36235  0.93463  0.00991  1.0000
  S   S480      1.0  0.40285  0.75330  0.36285  1.0000
  H   H1838     1.0  0.35194  0.92484  0.12029  1.0000
  H   H1839     1.0  0.46970  0.75565  0.37684  1.0000
  C   C1165     1.0  0.55170  0.82053  0.45034  1.0000
  N   N114      1.0  0.42433  0.80897  0.27237  1.0000
  C   C1166     1.0  0.40808  0.79928  0.28414  1.0000
  C   C1167     1.0  0.41795  0.83040  0.26936  1.0000
  C   C1168     1.0  0.42989  0.80218  0.25329  1.0000
  C   C1169     1.0  0.44129  0.80395  0.28279  1.0000
  H   H1840     1.0  0.39519  0.80225  0.27653  1.0000
  H   H1841     1.0  0.40317  0.80455  0.29839  1.0000
  H   H1842     1.0  0.41247  0.78312  0.28725  1.0000
  H   H1843     1.0  0.42972  0.83826  0.26032  1.0000
  H   H1844     1.0  0.40487  0.83467  0.26192  1.0000
  H   H1845     1.0  0.41382  0.83598  0.28353  1.0000
  H   H1846     1.0  0.44221  0.80911  0.24402  1.0000
  H   H1847     1.0  0.41739  0.80582  0.24506  1.0000
  H   H1848     1.0  0.43459  0.78602  0.25514  1.0000
  C   C1170     1.0  0.34186  0.95381  0.09143  1.0000
  H   H1849     1.0  0.43765  0.80927  0.29707  1.0000
  C   C1171     1.0  0.63748  0.81959  0.35652  1.0000
  C   C1172     1.0  0.37625  0.95643  0.08579  1.0000
  H   H1850     1.0  0.65105  0.80859  0.35479  1.0000
  H   H1851     1.0  0.37230  0.90513  0.34964  1.0000
  H   H1852     1.0  0.36448  0.92604  0.33240  1.0000
  H   H1853     1.0  0.60423  0.83929  0.34468  1.0000
  C   C1173     1.0  0.40032  0.93122  0.31296  1.0000
  Fe  Fe238     1.0  0.64776  0.93501  0.48392  1.0000
  H   H1854     1.0  0.56896  0.84330  0.41890  1.0000
  H   H1855     1.0  0.36342  0.98629  0.25202  1.0000
  H   H1856     1.0  0.35110  0.74437  0.44364  1.0000
  H   H1857     1.0  0.64985  0.81260  0.31950  1.0000
  C   C1174     1.0  0.35082  0.98713  0.04153  1.0000
  H   H1858     1.0  0.57122  0.85261  0.46794  1.0000
  H   H1859     1.0  0.62990  0.96757  0.38775  1.0000
  N   N115      1.0  0.63568  0.83358  0.33823  1.0000
  H   H1860     1.0  0.42546  0.90779  0.33486  1.0000
  C   C1175     1.0  0.56248  0.90291  0.47274  1.0000
  H   H1861     1.0  0.41453  0.93661  0.31089  1.0000
  C   C1176     1.0  0.58591  0.82213  0.44843  1.0000
  H   H1862     1.0  0.51558  0.96067  0.42496  1.0000
  H   H1863     1.0  0.34036  0.95928  0.07587  1.0000
  C   C1177     1.0  0.36934  0.98462  0.03002  1.0000
  H   H1864     1.0  0.58932  0.74237  0.35411  1.0000
  H   H1865     1.0  0.45404  0.81062  0.27417  1.0000
  S   S481      1.0  0.62540  0.74256  0.32197  1.0000
  S   S482      1.0  0.64058  0.90613  0.48187  1.0000
  H   H1866     1.0  0.39137  0.94890  0.08740  1.0000
  H   H1867     1.0  0.51380  0.91797  0.42290  1.0000
  H   H1868     1.0  0.35551  0.91654  0.08691  1.0000
  C   C1178     1.0  0.39410  0.93308  0.34737  1.0000
  H   H1869     1.0  0.62094  0.93390  0.39383  1.0000
  C   C1179     1.0  0.37648  0.91348  0.33483  1.0000
  H   H1870     1.0  0.37609  0.75852  0.40521  1.0000
  H   H1871     1.0  0.37180  0.97678  0.01784  1.0000
  H   H1872     1.0  0.40775  0.89454  0.35106  1.0000
  C   C1180     1.0  0.46189  0.75302  0.31893  1.0000
  C   C1181     1.0  0.63587  0.82282  0.32228  1.0000
  H   H1873     1.0  0.38893  0.94424  0.30999  1.0000
  H   H1874     1.0  0.58448  0.75811  0.32059  1.0000
  H   H1875     1.0  0.41240  0.89313  0.32549  1.0000
  H   H1876     1.0  0.40811  0.93863  0.34615  1.0000
  H   H1877     1.0  0.36819  0.88193  0.26298  1.0000
  H   H1878     1.0  0.39416  0.95280  0.12447  1.0000
  H   H1879     1.0  0.34755  0.74197  0.41984  1.0000
  C   C1182     1.0  0.35790  0.97585  0.26421  1.0000
  H   H1880     1.0  0.62590  0.91753  0.41585  1.0000
  H   H1881     1.0  0.40529  0.98441  0.43687  1.0000
  H   H1882     1.0  0.44606  0.78780  0.28584  1.0000
  H   H1883     1.0  0.39064  0.92527  0.36256  1.0000
  H   H1884     1.0  0.45494  0.76800  0.31930  1.0000
  H   H1885     1.0  0.65295  0.85261  0.34496  1.0000
  S   S483      1.0  0.34666  0.95997  0.23676  1.0000
  H   H1886     1.0  0.65142  0.85527  0.31946  1.0000
  H   H1887     1.0  0.34166  0.76406  0.33775  1.0000
  C   C1183     1.0  0.39390  0.95883  0.13740  1.0000
  C   C1184     1.0  0.51560  0.92897  0.40936  1.0000
  S   S484      1.0  0.34772  0.75405  0.37834  1.0000
  H   H1888     1.0  0.37633  0.96233  0.07002  1.0000
  H   H1889     1.0  0.61724  0.97147  0.41171  1.0000
  Fe  Fe239     1.0  0.40957  0.76602  0.33132  1.0000
  Fe  Fe240     1.0  0.65641  0.74132  0.30652  1.0000
  N   N116      1.0  0.50001  0.94620  0.41033  1.0000
  C   C1185     1.0  0.50260  0.96008  0.39181  1.0000
  C   C1186     1.0  0.48069  0.93990  0.41336  1.0000
  C   C1187     1.0  0.50117  0.95573  0.42678  1.0000
  H   H1890     1.0  0.49095  0.97317  0.39186  1.0000
  H   H1891     1.0  0.50195  0.95316  0.37914  1.0000
  H   H1892     1.0  0.51703  0.96517  0.38899  1.0000
  H   H1893     1.0  0.60767  0.93886  0.41723  1.0000
  H   H1894     1.0  0.47942  0.93262  0.40120  1.0000
  H   H1895     1.0  0.46852  0.95250  0.41404  1.0000
  S   S485      1.0  0.63582  0.77308  0.34709  1.0000
  H   H1896     1.0  0.48955  0.96875  0.42806  1.0000
  C   C1188     1.0  0.56115  0.84224  0.46798  1.0000
  S   S486      1.0  0.34757  0.88265  0.03683  1.0000
  H   H1897     1.0  0.35944  0.94680  0.12314  1.0000
  H   H1898     1.0  0.56206  0.83084  0.48120  1.0000
  C   C1189     1.0  0.34343  0.94931  0.29588  1.0000
  H   H1899     1.0  0.36558  0.93255  0.06600  1.0000
  H   H1900     1.0  0.58983  0.81531  0.43497  1.0000
  H   H1901     1.0  0.66147  0.92138  0.40543  1.0000
  H   H1902     1.0  0.61508  0.85796  0.32737  1.0000
  C   C1190     1.0  0.63147  0.96536  0.40339  1.0000
  H   H1903     1.0  0.36542  0.98981  0.28566  1.0000
  H   H1904     1.0  0.56852  0.75865  0.36389  1.0000
  H   H1905     1.0  0.61628  0.85561  0.35290  1.0000
  C   C1191     1.0  0.56841  0.75963  0.32571  1.0000
  Fe  Fe241     1.0  0.34244  0.91195  0.01786  1.0000
  H   H1906     1.0  0.57492  0.85980  0.43239  1.0000
  H   H1907     1.0  0.35552  0.98157  0.19903  1.0000
  H   H1908     1.0  0.53402  0.74779  0.33603  1.0000
  N   N117      1.0  0.39546  0.92023  0.33284  1.0000
  C   C1192     1.0  0.41095  0.90317  0.33619  1.0000
  H   H1909     1.0  0.35473  0.82399  0.26957  1.0000
  H   H1910     1.0  0.54986  0.85761  0.43315  1.0000
  C   C1193     1.0  0.65234  0.84453  0.33315  1.0000
  H   H1911     1.0  0.33830  0.96667  0.09914  1.0000
  N   N118      1.0  0.56330  0.74391  0.34200  1.0000
  H   H1912     1.0  0.34421  0.85672  0.09471  1.0000
  H   H1913     1.0  0.54600  0.85065  0.46966  1.0000
  H   H1914     1.0  0.34120  0.83226  0.09350  1.0000
  H   H1915     1.0  0.55423  0.81450  0.43647  1.0000
  H   H1916     1.0  0.38015  0.76052  0.42890  1.0000
  C   C1194     1.0  0.39944  0.98505  0.15228  1.0000
  H   H1917     1.0  0.62389  0.81398  0.32589  1.0000
  C   C1195     1.0  0.61702  0.84726  0.34092  1.0000
  Fe  Fe242     1.0  0.33457  0.95579  0.01611  1.0000
  H   H1918     1.0  0.37906  0.97690  0.39893  1.0000
  S   S487      1.0  0.61734  0.95127  0.48234  1.0000
  H   H1919     1.0  0.62484  0.81145  0.36106  1.0000
  H   H1920     1.0  0.64403  0.92679  0.43805  1.0000
  H   H1921     1.0  0.63809  0.82711  0.36873  1.0000
  C   C1196     1.0  0.39911  0.97741  0.13557  1.0000
  H   H1922     1.0  0.48732  0.74183  0.36070  1.0000
  H   H1923     1.0  0.56360  0.77434  0.33010  1.0000
  H   H1924     1.0  0.39502  0.97977  0.18372  1.0000
  S   S488      1.0  0.40280  0.98048  0.31966  1.0000
  H   H1925     1.0  0.33134  0.82547  0.12931  1.0000
  H   H1926     1.0  0.53641  0.82853  0.45228  1.0000
  C   C1197     1.0  0.54186  0.74691  0.34843  1.0000
  H   H1927     1.0  0.37746  0.92676  0.11606  1.0000
  Fe  Fe243     1.0  0.34390  0.93323  0.22490  1.0000
  H   H1928     1.0  0.56146  0.75954  0.31293  1.0000
  S   S489      1.0  0.42754  0.74686  0.31031  1.0000
  H   H1929     1.0  0.33917  0.84568  0.03265  1.0000
  S   S490      1.0  0.33771  0.91346  0.98729  1.0000
  H   H1930     1.0  0.40319  0.98569  0.12125  1.0000
  C   C1198     1.0  0.65633  0.93700  0.39978  1.0000
  Fe  Fe244     1.0  0.37041  0.98869  0.32775  1.0000
  C   C1199     1.0  0.33341  0.84750  0.09377  1.0000
  H   H1931     1.0  0.55256  0.80799  0.46256  1.0000
  Fe  Fe245     1.0  0.60955  0.92176  0.48222  1.0000
  S   S491      1.0  0.33105  0.97762  0.03692  1.0000
  H   H1932     1.0  0.49153  0.74155  0.38490  1.0000
  H   H1933     1.0  0.41663  0.99023  0.40057  1.0000
  C   C1200     1.0  0.33099  0.75511  0.34585  1.0000
  H   H1934     1.0  0.63530  0.88871  0.60056  1.0000
  C   C1201     1.0  0.34528  0.83557  0.84585  1.0000
  H   H1935     1.0  0.57292  0.86241  0.77769  1.0000
  H   H1936     1.0  0.34383  0.88944  0.90712  1.0000
  H   H1937     1.0  0.36043  0.88231  0.93664  1.0000
  H   H1938     1.0  0.39388  0.90889  0.97238  1.0000
  S   S492      1.0  0.54742  0.97020  0.88074  1.0000
  H   H1939     1.0  0.46210  0.74926  0.88530  1.0000
  H   H1940     1.0  0.43218  0.79402  0.86222  1.0000
  H   H1941     1.0  0.62912  0.90667  0.55873  1.0000
  Fe  Fe246     1.0  0.41581  0.77267  0.80955  1.0000
  S   S493      1.0  0.39299  0.77072  0.83660  1.0000
  S   S494      1.0  0.44263  0.78660  0.80798  1.0000
  S   S495      1.0  0.63495  0.93429  0.71063  1.0000
  H   H1942     1.0  0.47473  0.93296  0.88558  1.0000
  Fe  Fe247     1.0  0.37184  0.77515  0.81551  1.0000
  H   H1943     1.0  0.35524  0.91089  0.89794  1.0000
  H   H1944     1.0  0.57713  0.85792  0.81214  1.0000
  S   S496      1.0  0.39441  0.77932  0.78841  1.0000
  Fe  Fe248     1.0  0.46108  0.88116  0.89350  1.0000
  S   S497      1.0  0.44896  0.90070  0.86829  1.0000
  S   S498      1.0  0.44745  0.88118  0.92518  1.0000
  Fe  Fe249     1.0  0.49637  0.86277  0.86665  1.0000
  S   S499      1.0  0.48631  0.88062  0.83951  1.0000
  S   S500      1.0  0.52698  0.84602  0.86489  1.0000
  Fe  Fe250     1.0  0.48007  0.90554  0.85657  1.0000
  S   S501      1.0  0.48912  0.93528  0.84377  1.0000
  Fe  Fe251     1.0  0.45650  0.87362  0.85420  1.0000
  S   S502      1.0  0.43217  0.86542  0.84214  1.0000
  S   S503      1.0  0.49149  0.88792  0.88292  1.0000
  S   S504      1.0  0.46720  0.85376  0.88016  1.0000
  N   N119      1.0  0.34103  0.90875  0.92785  1.0000
  S   S505      1.0  0.59508  0.98842  0.87821  1.0000
  S   S506      1.0  0.54815  0.76146  0.84233  1.0000
  Fe  Fe252     1.0  0.61525  0.76299  0.80150  1.0000
  S   S507      1.0  0.62690  0.78506  0.77648  1.0000
  S   S508      1.0  0.60688  0.76526  0.83341  1.0000
  H   H1945     1.0  0.44140  0.94972  0.92837  1.0000
  N   N120      1.0  0.55187  0.85278  0.80237  1.0000
  H   H1946     1.0  0.55519  0.87476  0.81810  1.0000
  H   H1947     1.0  0.61416  0.85449  0.74967  1.0000
  H   H1948     1.0  0.63633  0.94209  0.58827  1.0000
  H   H1949     1.0  0.43448  0.79975  0.88522  1.0000
  C   C1202     1.0  0.63066  0.97418  0.80945  1.0000
  H   H1950     1.0  0.44828  0.92416  0.93691  1.0000
  C   C1203     1.0  0.55929  0.83184  0.80160  1.0000
  C   C1204     1.0  0.33916  0.92995  0.92786  1.0000
  Fe  Fe253     1.0  0.61029  0.91744  0.71492  1.0000
  S   S509      1.0  0.59381  0.92314  0.68998  1.0000
  Fe  Fe254     1.0  0.61845  0.89537  0.75450  1.0000
  S   S510      1.0  0.60911  0.87506  0.78229  1.0000
  S   S511      1.0  0.59843  0.92308  0.74541  1.0000
  S   S512      1.0  0.62783  0.88824  0.72415  1.0000
  S   S513      1.0  0.34181  0.79330  0.81579  1.0000
  C   C1205     1.0  0.60944  0.98744  0.57932  1.0000
  Fe  Fe255     1.0  0.61217  0.94363  0.51512  1.0000
  S   S514      1.0  0.60175  0.91531  0.51511  1.0000
  S   S515      1.0  0.59636  0.96389  0.53649  1.0000
  C   C1206     1.0  0.47793  0.95589  0.91014  1.0000
  H   H1951     1.0  0.55277  0.82645  0.79099  1.0000
  Fe  Fe256     1.0  0.63356  0.90246  0.51444  1.0000
  S   S516      1.0  0.64598  0.87619  0.53428  1.0000
  S   S517      1.0  0.64326  0.93017  0.51653  1.0000
  C   C1207     1.0  0.35012  0.81902  0.83657  1.0000
  H   H1952     1.0  0.45869  0.94175  0.94501  1.0000
  H   H1953     1.0  0.65343  0.90758  0.68132  1.0000
  C   C1208     1.0  0.35767  0.77110  0.75002  1.0000
  H   H1954     1.0  0.64830  0.94562  0.81012  1.0000
  H   H1955     1.0  0.46567  0.78716  0.89858  1.0000
  H   H1956     1.0  0.64290  0.94166  0.77756  1.0000
  C   C1209     1.0  0.61683  0.98720  0.77995  1.0000
  C   C1210     1.0  0.60957  0.97227  0.55111  1.0000
  H   H1957     1.0  0.40401  0.88391  0.81750  1.0000
  H   H1958     1.0  0.64819  0.84402  0.72778  1.0000
  C   C1211     1.0  0.62990  0.97136  0.54649  1.0000
  C   C1212     1.0  0.56097  0.85923  0.81660  1.0000
  H   H1959     1.0  0.33697  0.93323  0.94298  1.0000
  C   C1213     1.0  0.58783  0.94857  0.68366  1.0000
  C   C1214     1.0  0.59415  0.95790  0.66474  1.0000
  H   H1960     1.0  0.55001  0.86015  0.77176  1.0000
  C   C1215     1.0  0.45395  0.93830  0.93216  1.0000
  S   S518      1.0  0.62012  0.96747  0.74993  1.0000
  H   H1961     1.0  0.65565  0.97789  0.55439  1.0000
  H   H1962     1.0  0.60246  0.94933  0.65388  1.0000
  H   H1963     1.0  0.49010  0.95559  0.89745  1.0000
  H   H1964     1.0  0.52620  0.98631  0.84788  1.0000
  H   H1965     1.0  0.35705  0.79678  0.77352  1.0000
  C   C1216     1.0  0.63946  0.95720  0.80172  1.0000
  H   H1966     1.0  0.52296  0.85086  0.79813  1.0000
  H   H1967     1.0  0.43966  0.75873  0.87594  1.0000
  H   H1968     1.0  0.65219  0.92459  0.60267  1.0000
  H   H1969     1.0  0.57235  0.95250  0.71238  1.0000
  C   C1217     1.0  0.61540  0.84386  0.76276  1.0000
  C   C1218     1.0  0.62027  0.80989  0.77865  1.0000
  C   C1219     1.0  0.61754  0.81602  0.79673  1.0000
  C   C1220     1.0  0.61415  0.83609  0.79775  1.0000
  C   C1221     1.0  0.61330  0.85003  0.78073  1.0000
  C   C1222     1.0  0.61899  0.82384  0.76171  1.0000
  H   H1970     1.0  0.61866  0.80533  0.80984  1.0000
  H   H1971     1.0  0.61252  0.84078  0.81172  1.0000
  C   C1223     1.0  0.50640  0.94451  0.85315  1.0000
  C   C1224     1.0  0.51593  0.93337  0.86817  1.0000
  C   C1225     1.0  0.52859  0.94143  0.87625  1.0000
  C   C1226     1.0  0.53236  0.96055  0.86906  1.0000
  C   C1227     1.0  0.52350  0.97151  0.85348  1.0000
  C   C1228     1.0  0.51044  0.96355  0.84568  1.0000
  H   H1972     1.0  0.51348  0.91857  0.87370  1.0000
  H   H1973     1.0  0.53551  0.93280  0.88819  1.0000
  H   H1974     1.0  0.48063  0.90674  0.92490  1.0000
  H   H1975     1.0  0.50321  0.97230  0.83400  1.0000
  C   C1229     1.0  0.53213  0.82230  0.85927  1.0000
  C   C1230     1.0  0.55144  0.81249  0.85817  1.0000
  C   C1231     1.0  0.55641  0.79385  0.85291  1.0000
  C   C1232     1.0  0.54204  0.78485  0.84888  1.0000
  C   C1233     1.0  0.52264  0.79460  0.85006  1.0000
  C   C1234     1.0  0.51768  0.81342  0.85512  1.0000
  H   H1976     1.0  0.56263  0.81932  0.86143  1.0000
  H   H1977     1.0  0.57130  0.78634  0.85231  1.0000
  H   H1978     1.0  0.51155  0.78767  0.84681  1.0000
  H   H1979     1.0  0.50280  0.82109  0.85575  1.0000
  C   C1235     1.0  0.43960  0.80853  0.81742  1.0000
  C   C1236     1.0  0.42108  0.81749  0.82530  1.0000
  C   C1237     1.0  0.41907  0.83477  0.83300  1.0000
  C   C1238     1.0  0.43553  0.84320  0.83307  1.0000
  C   C1239     1.0  0.45412  0.83409  0.82545  1.0000
  C   C1240     1.0  0.45611  0.81691  0.81748  1.0000
  H   H1980     1.0  0.40828  0.81115  0.82537  1.0000
  H   H1981     1.0  0.40469  0.84145  0.83910  1.0000
  H   H1982     1.0  0.46688  0.84054  0.82528  1.0000
  H   H1983     1.0  0.47047  0.81013  0.81124  1.0000
  H   H1984     1.0  0.52429  0.87129  0.80922  1.0000
  C   C1241     1.0  0.48598  0.92111  0.92098  1.0000
  H   H1985     1.0  0.48522  0.77201  0.88539  1.0000
  H   H1986     1.0  0.58369  0.98089  0.57138  1.0000
  H   H1987     1.0  0.45788  0.91892  0.90191  1.0000
  H   H1988     1.0  0.36462  0.81047  0.83601  1.0000
  C   C1242     1.0  0.39349  0.92536  0.94344  1.0000
  C   C1243     1.0  0.40234  0.92662  0.92378  1.0000
  C   C1244     1.0  0.41833  0.91264  0.91787  1.0000
  C   C1245     1.0  0.42596  0.89760  0.93168  1.0000
  C   C1246     1.0  0.41700  0.89626  0.95133  1.0000
  C   C1247     1.0  0.40066  0.90998  0.95718  1.0000
  H   H1989     1.0  0.39677  0.93846  0.91308  1.0000
  H   H1990     1.0  0.42491  0.91375  0.90269  1.0000
  H   H1991     1.0  0.42283  0.88467  0.96211  1.0000
  H   H1992     1.0  0.61322  0.91285  0.58050  1.0000
  C   C1248     1.0  0.53037  0.85565  0.80844  1.0000
  C   C1249     1.0  0.62976  0.98664  0.57460  1.0000
  S   S519      1.0  0.64423  0.91022  0.75330  1.0000
  S   S520      1.0  0.58782  0.75259  0.79947  1.0000
  H   H1993     1.0  0.47923  0.79756  0.87604  1.0000
  H   H1994     1.0  0.44855  0.81025  0.86307  1.0000
  C   C1250     1.0  0.59941  0.98028  0.56761  1.0000
  Fe  Fe257     1.0  0.65182  0.90558  0.72198  1.0000
  H   H1995     1.0  0.55578  0.82262  0.81610  1.0000
  H   H1996     1.0  0.39103  0.90350  0.80242  1.0000
  H   H1997     1.0  0.55180  0.88035  0.78297  1.0000
  C   C1251     1.0  0.64784  0.89291  0.58929  1.0000
  C   C1252     1.0  0.57723  0.95968  0.69775  1.0000
  H   H1998     1.0  0.59525  0.98555  0.64545  1.0000
  N   N121      1.0  0.58028  0.94031  0.82315  1.0000
  C   C1253     1.0  0.59645  0.92655  0.81410  1.0000
  C   C1254     1.0  0.56240  0.93116  0.82902  1.0000
  C   C1255     1.0  0.57649  0.95838  0.80895  1.0000
  C   C1256     1.0  0.58573  0.94523  0.84052  1.0000
  H   H1999     1.0  0.61023  0.93288  0.80982  1.0000
  H   H2000     1.0  0.59307  0.92286  0.80067  1.0000
  H   H2001     1.0  0.59950  0.91262  0.82431  1.0000
  H   H2002     1.0  0.54982  0.94136  0.83544  1.0000
  H   H2003     1.0  0.55804  0.92699  0.81633  1.0000
  H   H2004     1.0  0.56446  0.91781  0.84021  1.0000
  H   H2005     1.0  0.58958  0.96579  0.80447  1.0000
  H   H2006     1.0  0.56423  0.96903  0.81527  1.0000
  H   H2007     1.0  0.57266  0.95529  0.79547  1.0000
  H   H2008     1.0  0.57386  0.95563  0.84768  1.0000
  H   H2009     1.0  0.59916  0.95224  0.83663  1.0000
  H   H2010     1.0  0.58862  0.93203  0.85168  1.0000
  N   N122      1.0  0.37294  0.88953  0.82736  1.0000
  C   C1257     1.0  0.37406  0.88121  0.84803  1.0000
  C   C1258     1.0  0.36944  0.87443  0.81723  1.0000
  C   C1259     1.0  0.39159  0.89633  0.81779  1.0000
  C   C1260     1.0  0.35661  0.90614  0.82640  1.0000
  H   H2011     1.0  0.37597  0.89242  0.85624  1.0000
  H   H2012     1.0  0.65844  0.93403  0.55813  1.0000
  H   H2013     1.0  0.36058  0.87512  0.85549  1.0000
  H   H2014     1.0  0.66096  0.89018  0.59660  1.0000
  C   C1261     1.0  0.57919  0.98941  0.67401  1.0000
  H   H2015     1.0  0.65274  0.85542  0.75719  1.0000
  H   H2016     1.0  0.47537  0.78902  0.84481  1.0000
  H   H2017     1.0  0.65656  0.91064  0.64547  1.0000
  Fe  Fe258     1.0  0.35460  0.93841  0.97985  1.0000
  H   H2018     1.0  0.35500  0.91253  0.81104  1.0000
  C   C1262     1.0  0.62654  0.91630  0.57000  1.0000
  H   H2019     1.0  0.35254  0.93585  0.91972  1.0000
  N   N123      1.0  0.64371  0.91355  0.57989  1.0000
  Fe  Fe259     1.0  0.62484  0.93745  0.74202  1.0000
  C   C1263     1.0  0.63955  0.92640  0.59486  1.0000
  H   H2020     1.0  0.55808  0.85032  0.83137  1.0000
  H   H2021     1.0  0.57547  0.82914  0.79713  1.0000
  C   C1264     1.0  0.55682  0.86443  0.78285  1.0000
  C   C1265     1.0  0.35888  0.89843  0.93565  1.0000
  H   H2022     1.0  0.35876  0.90148  0.95051  1.0000
  C   C1266     1.0  0.46302  0.93330  0.89862  1.0000
  H   H2023     1.0  0.34239  0.90143  0.83384  1.0000
  H   H2024     1.0  0.35887  0.91799  0.83361  1.0000
  H   H2025     1.0  0.44281  0.76456  0.89855  1.0000
  N   N124      1.0  0.47022  0.93717  0.91548  1.0000
  H   H2026     1.0  0.45878  0.77278  0.84469  1.0000
  C   C1267     1.0  0.61946  0.98924  0.79848  1.0000
  H   H2027     1.0  0.35462  0.75744  0.74644  1.0000
  S   S521      1.0  0.63341  0.97639  0.83292  1.0000
  H   H2028     1.0  0.52614  0.84718  0.82318  1.0000
  C   C1268     1.0  0.62492  0.96989  0.77256  1.0000
  Fe  Fe260     1.0  0.58040  0.75256  0.83170  1.0000
  H   H2029     1.0  0.62491  0.97981  0.70868  1.0000
  H   H2030     1.0  0.62089  0.81911  0.74772  1.0000
  H   H2031     1.0  0.49852  0.91984  0.90876  1.0000
  N   N125      1.0  0.34016  0.78153  0.76119  1.0000
  H   H2032     1.0  0.51604  0.74829  0.82927  1.0000
  S   S522      1.0  0.37350  0.94322  0.95012  1.0000
  H   H2033     1.0  0.39531  0.90695  0.82565  1.0000
  C   C1269     1.0  0.59012  0.97837  0.65999  1.0000
  H   H2034     1.0  0.34901  0.80984  0.75134  1.0000
  H   H2035     1.0  0.38076  0.86110  0.81868  1.0000
  H   H2036     1.0  0.49171  0.92345  0.93375  1.0000
  H   H2037     1.0  0.48113  0.76349  0.85436  1.0000
  H   H2038     1.0  0.35613  0.83964  0.85247  1.0000
  H   H2039     1.0  0.62664  0.92304  0.60606  1.0000
  H   H2040     1.0  0.46637  0.96831  0.90601  1.0000
  H   H2041     1.0  0.48377  0.95921  0.92241  1.0000
  H   H2042     1.0  0.62310  0.93162  0.56251  1.0000
  H   H2043     1.0  0.56537  0.90436  0.48679  1.0000
  H   H2044     1.0  0.38674  0.86923  0.84940  1.0000
  N   N126      1.0  0.45877  0.77986  0.87288  1.0000
  C   C1270     1.0  0.47283  0.78432  0.88371  1.0000
  C   C1271     1.0  0.44279  0.79668  0.87078  1.0000
  C   C1272     1.0  0.45049  0.76234  0.88365  1.0000
  C   C1273     1.0  0.46898  0.77610  0.85333  1.0000
  H   H2045     1.0  0.45064  0.94469  0.89442  1.0000
  H   H2046     1.0  0.63785  0.96561  0.53362  1.0000
  C   C1274     1.0  0.57255  0.98003  0.69280  1.0000
  C   C1275     1.0  0.63637  0.95493  0.78336  1.0000
  H   H2047     1.0  0.36289  0.78029  0.73601  1.0000
  Fe  Fe261     1.0  0.39709  0.74676  0.79015  1.0000
  C   C1276     1.0  0.63996  0.97842  0.55826  1.0000
  S   S523      1.0  0.37326  0.74305  0.81580  1.0000
  H   H2048     1.0  0.37232  0.90318  0.92631  1.0000
  H   H2049     1.0  0.34626  0.76492  0.78873  1.0000
  C   C1277     1.0  0.66095  0.91851  0.56541  1.0000
  C   C1278     1.0  0.33424  0.76897  0.77992  1.0000
  H   H2050     1.0  0.35492  0.86987  0.82328  1.0000
  C   C1279     1.0  0.33615  0.81362  0.82801  1.0000
  H   H2051     1.0  0.56401  0.98850  0.70365  1.0000
  H   H2052     1.0  0.65857  0.81982  0.75620  1.0000
  C   C1280     1.0  0.34476  0.79981  0.76509  1.0000
  H   H2053     1.0  0.36956  0.87990  0.80138  1.0000
  C   C1281     1.0  0.34238  0.90531  0.90767  1.0000
  H   H2054     1.0  0.37006  0.76685  0.75842  1.0000
  H   H2055     1.0  0.33203  0.80779  0.77399  1.0000
  H   H2056     1.0  0.65068  0.88284  0.57840  1.0000
  H   H2057     1.0  0.51811  0.74090  0.79594  1.0000
  H   H2058     1.0  0.61362  0.99019  0.68771  1.0000
  Fe  Fe262     1.0  0.71952  0.16037  0.06372  1.0000
  S   S524      1.0  0.72052  0.19251  0.05502  1.0000
  S   S525      1.0  0.69215  0.15279  0.05684  1.0000
  Fe  Fe263     1.0  0.75592  0.15350  0.08391  1.0000
  S   S526      1.0  0.75894  0.18511  0.07654  1.0000
  S   S527      1.0  0.77779  0.13246  0.10082  1.0000
  Fe  Fe264     1.0  0.72629  0.19102  0.08531  1.0000
  H   H2059     1.0  0.86735  0.17276  0.25985  1.0000
  Fe  Fe265     1.0  0.75287  0.18294  0.04719  1.0000
  S   S528      1.0  0.77165  0.19562  0.01997  1.0000
  S   S529      1.0  0.72347  0.15939  0.09466  1.0000
  S   S530      1.0  0.75168  0.15079  0.05388  1.0000
  H   H2060     1.0  0.96073  0.04921  0.37078  1.0000
  H   H2061     1.0  0.82013  0.13271  0.01468  1.0000
  H   H2062     1.0  0.85642  0.01167  0.18530  1.0000
  H   H2063     1.0  0.86526  0.14601  0.29757  1.0000
  C   C1282     1.0  0.77033  0.19628  0.15493  1.0000
  H   H2064     1.0  0.77492  0.18066  0.16108  1.0000
  Fe  Fe266     1.0  0.92856  0.06147  0.32508  1.0000
  S   S531      1.0  0.90088  0.07335  0.34336  1.0000
  S   S532      1.0  0.95811  0.06990  0.32527  1.0000
  Fe  Fe267     1.0  0.90669  0.03840  0.30547  1.0000
  S   S533      1.0  0.87760  0.04834  0.32307  1.0000
  Fe  Fe268     1.0  0.88723  0.07764  0.31660  1.0000
  S   S534      1.0  0.86812  0.10531  0.30593  1.0000
  Fe  Fe269     1.0  0.89409  0.04276  0.34817  1.0000
  S   S535      1.0  0.90031  0.22934  0.34568  1.0000
  S   S536      1.0  0.91542  0.06834  0.29764  1.0000
  S   S537      1.0  0.92279  0.03028  0.33130  1.0000
  Fe  Fe270     1.0  0.84920  0.12884  0.20681  1.0000
  S   S538      1.0  0.87576  0.14083  0.20885  1.0000
  S   S539      1.0  0.84586  0.09966  0.22561  1.0000
  Fe  Fe271     1.0  0.83832  0.16055  0.17281  1.0000
  S   S540      1.0  0.86438  0.17493  0.17204  1.0000
  S   S541      1.0  0.81947  0.17375  0.14945  1.0000
  Fe  Fe272     1.0  0.88076  0.14424  0.17622  1.0000
  S   S542      1.0  0.90914  0.13198  0.15901  1.0000
  Fe  Fe273     1.0  0.85684  0.17035  0.20486  1.0000
  S   S543      1.0  0.85325  0.19328  0.22450  1.0000
  S   S544      1.0  0.85536  0.13040  0.17437  1.0000
  S   S545      1.0  0.82942  0.15797  0.20546  1.0000
  Fe  Fe274     1.0  0.88043  0.01187  0.11358  1.0000
  S   S546      1.0  0.90725  0.00599  0.12732  1.0000
  Fe  Fe275     1.0  0.89078  0.05013  0.08921  1.0000
  S   S547      1.0  0.91886  0.04704  0.10098  1.0000
  S   S548      1.0  0.87792  0.07794  0.07104  1.0000
  Fe  Fe276     1.0  0.92250  0.01547  0.09722  1.0000
  Fe  Fe277     1.0  0.90090  0.03759  0.13001  1.0000
  S   S549      1.0  0.90025  0.04490  0.15964  1.0000
  S   S550      1.0  0.89597  0.01930  0.08295  1.0000
  S   S551      1.0  0.87259  0.04294  0.11863  1.0000
  S   S552      1.0  0.98143  0.21930  0.37460  1.0000
  C   C1283     1.0  0.85807  0.00185  0.15814  1.0000
  H   H2065     1.0  0.85678  0.23846  0.39777  1.0000
  H   H2066     1.0  0.95551  0.19163  0.37624  1.0000
  N   N127      1.0  0.75282  0.19889  0.14558  1.0000
  N   N128      1.0  0.81529  0.12679  0.04607  1.0000
  C   C1284     1.0  0.90870  0.10708  0.15999  1.0000
  C   C1285     1.0  0.91921  0.09728  0.14483  1.0000
  C   C1286     1.0  0.91684  0.07803  0.14458  1.0000
  C   C1287     1.0  0.90435  0.06850  0.15976  1.0000
  C   C1288     1.0  0.89453  0.07803  0.17528  1.0000
  C   C1289     1.0  0.89664  0.09729  0.17536  1.0000
  H   H2067     1.0  0.92862  0.10480  0.13296  1.0000
  H   H2068     1.0  0.92462  0.07059  0.13266  1.0000
  H   H2069     1.0  0.88450  0.07085  0.18677  1.0000
  H   H2070     1.0  0.88858  0.10468  0.18719  1.0000
  C   C1290     1.0  0.95668  0.03487  0.37026  1.0000
  S   S553      1.0  0.90771  0.02429  0.27891  1.0000
  H   H2071     1.0  0.86318  0.99906  0.23931  1.0000
  H   H2072     1.0  0.91206  0.04013  0.39931  1.0000
  H   H2073     1.0  0.86718  0.01232  0.15013  1.0000
  H   H2074     1.0  0.95975  0.22453  0.32310  1.0000
  H   H2075     1.0  0.79835  0.14875  0.06247  1.0000
  H   H2076     1.0  0.80339  0.10106  0.04575  1.0000
  S   S554      1.0  0.91777  0.23028  0.25028  1.0000
  C   C1291     1.0  0.86018  0.10311  0.28463  1.0000
  C   C1292     1.0  0.86467  0.08533  0.27758  1.0000
  C   C1293     1.0  0.85938  0.08404  0.25987  1.0000
  C   C1294     1.0  0.85028  0.10071  0.24882  1.0000
  C   C1295     1.0  0.84562  0.11843  0.25594  1.0000
  C   C1296     1.0  0.85010  0.11949  0.27408  1.0000
  H   H2077     1.0  0.87236  0.07259  0.28568  1.0000
  H   H2078     1.0  0.86302  0.07032  0.25449  1.0000
  H   H2079     1.0  0.83837  0.13131  0.24754  1.0000
  H   H2080     1.0  0.84600  0.13310  0.27973  1.0000
  C   C1297     1.0  0.87143  0.20444  0.23018  1.0000
  C   C1298     1.0  0.86572  0.21755  0.24362  1.0000
  H   H2081     1.0  0.87332  0.13146  0.12800  1.0000
  C   C1299     1.0  0.72400  0.18531  0.99695  1.0000
  C   C1300     1.0  0.96181  0.08619  0.33990  1.0000
  C   C1301     1.0  0.94787  0.09119  0.35589  1.0000
  H   H2082     1.0  0.93407  0.08579  0.35902  1.0000
  C   C1302     1.0  0.80807  0.14748  0.04819  1.0000
  C   C1303     1.0  0.95850  0.22204  0.36742  1.0000
  C   C1304     1.0  0.94897  0.20591  0.36963  1.0000
  C   C1305     1.0  0.93080  0.20828  0.36345  1.0000
  C   C1306     1.0  0.92243  0.22663  0.35450  1.0000
  H   H2083     1.0  0.97027  0.02386  0.36965  1.0000
  C   C1307     1.0  0.96971  0.11033  0.36411  1.0000
  H   H2084     1.0  0.92345  0.19578  0.36520  1.0000
  H   H2085     1.0  0.97211  0.12902  0.42218  1.0000
  H   H2086     1.0  0.75961  0.22510  0.12622  1.0000
  H   H2087     1.0  0.88688  0.19052  0.27518  1.0000
  C   C1308     1.0  0.89730  0.08302  0.00494  1.0000
  C   C1309     1.0  0.88305  0.09733  0.01287  1.0000
  C   C1310     1.0  0.87742  0.09574  0.03320  1.0000
  C   C1311     1.0  0.88564  0.07965  0.04566  1.0000
  C   C1312     1.0  0.89983  0.06529  0.03776  1.0000
  C   C1313     1.0  0.90574  0.06706  0.01743  1.0000
  H   H2088     1.0  0.87661  0.10976  0.00336  1.0000
  H   H2089     1.0  0.86680  0.10705  0.03929  1.0000
  H   H2090     1.0  0.90632  0.05289  0.04730  1.0000
  H   H2091     1.0  0.91679  0.05597  0.01137  1.0000
  C   C1314     1.0  0.81051  0.16054  0.13530  1.0000
  C   C1315     1.0  0.80629  0.16999  0.11692  1.0000
  C   C1316     1.0  0.79691  0.16116  0.10604  1.0000
  C   C1317     1.0  0.79133  0.14286  0.11354  1.0000
  C   C1318     1.0  0.79645  0.13289  0.13150  1.0000
  C   C1319     1.0  0.80598  0.14172  0.14241  1.0000
  H   H2092     1.0  0.80995  0.18445  0.11122  1.0000
  H   H2093     1.0  0.79378  0.16870  0.09194  1.0000
  H   H2094     1.0  0.79238  0.11862  0.13734  1.0000
  H   H2095     1.0  0.80909  0.13432  0.15661  1.0000
  H   H2096     1.0  0.73977  0.17662  0.16642  1.0000
  H   H2097     1.0  0.93076  0.01122  0.37176  1.0000
  H   H2098     1.0  0.91008  0.14016  0.29394  1.0000
  H   H2099     1.0  0.78308  0.20102  0.14426  1.0000
  C   C1320     1.0  0.78394  0.17849  0.00498  1.0000
  H   H2100     1.0  0.77931  0.13571  0.99248  1.0000
  C   C1321     1.0  0.78573  0.14836  0.99277  1.0000
  H   H2101     1.0  0.90253  0.00356  0.24982  1.0000
  S   S555      1.0  0.97457  0.12395  0.38072  1.0000
  C   C1322     1.0  0.77579  0.16207  0.00463  1.0000
  C   C1323     1.0  0.73630  0.19238  0.16016  1.0000
  H   H2102     1.0  0.73266  0.20087  0.17243  1.0000
  C   C1324     1.0  0.97961  0.09352  0.33598  1.0000
  H   H2103     1.0  0.76163  0.16013  0.01313  1.0000
  C   C1325     1.0  0.69236  0.14080  0.03714  1.0000
  C   C1326     1.0  0.70927  0.12931  0.02895  1.0000
  C   C1327     1.0  0.70846  0.11900  0.01407  1.0000
  C   C1328     1.0  0.69092  0.12056  0.00689  1.0000
  H   H2104     1.0  0.92068  0.20440  0.22278  1.0000
  H   H2105     1.0  0.69814  0.16236  0.99620  1.0000
  C   C1329     1.0  0.90334  0.14158  0.28069  1.0000
  C   C1330     1.0  0.89960  0.22111  0.24222  1.0000
  S   S556      1.0  0.71152  0.20962  0.10826  1.0000
  H   H2106     1.0  0.86385  0.13691  0.10544  1.0000
  H   H2107     1.0  0.92710  0.05867  0.38839  1.0000
  N   N129      1.0  0.88848  0.15940  0.27859  1.0000
  C   C1331     1.0  0.95193  0.10297  0.36806  1.0000
  H   H2108     1.0  0.96250  0.99935  0.03533  1.0000
  H   H2109     1.0  0.96265  0.01573  0.40592  1.0000
  H   H2110     1.0  0.82033  0.15561  0.04726  1.0000
  H   H2111     1.0  0.95332  0.04113  0.40707  1.0000
  H   H2112     1.0  0.83710  0.04818  0.22110  1.0000
  N   N130      1.0  0.91743  0.06908  0.22850  1.0000
  C   C1332     1.0  0.91105  0.07764  0.24660  1.0000
  C   C1333     1.0  0.93391  0.05287  0.23112  1.0000
  C   C1334     1.0  0.92378  0.08427  0.21216  1.0000
  C   C1335     1.0  0.90092  0.06150  0.22420  1.0000
  H   H2113     1.0  0.89887  0.09017  0.24500  1.0000
  H   H2114     1.0  0.92323  0.08304  0.25070  1.0000
  H   H2115     1.0  0.90569  0.06664  0.25909  1.0000
  H   H2116     1.0  0.92956  0.04108  0.24326  1.0000
  H   H2117     1.0  0.93913  0.04613  0.21768  1.0000
  H   H2118     1.0  0.94655  0.05796  0.23469  1.0000
  H   H2119     1.0  0.93656  0.08995  0.21468  1.0000
  H   H2120     1.0  0.91186  0.09700  0.21017  1.0000
  H   H2121     1.0  0.92805  0.07851  0.19810  1.0000
  H   H2122     1.0  0.90534  0.05446  0.21089  1.0000
  H   H2123     1.0  0.88836  0.07346  0.22171  1.0000
  H   H2124     1.0  0.89559  0.05030  0.23649  1.0000
  H   H2125     1.0  0.84753  0.13378  0.12835  1.0000
  C   C1336     1.0  0.79847  0.11673  0.04724  1.0000
  H   H2126     1.0  0.76235  0.17142  0.13512  1.0000
  H   H2127     1.0  0.85578  0.01093  0.27163  1.0000
  H   H2128     1.0  0.79947  0.15518  0.03657  1.0000
  H   H2129     1.0  0.96906  0.10443  0.42273  1.0000
  C   C1337     1.0  0.82642  0.11714  0.06194  1.0000
  C   C1338     1.0  0.97012  0.21242  0.31695  1.0000
  H   H2130     1.0  0.89070  0.16266  0.24737  1.0000
  C   C1339     1.0  0.75716  0.18710  0.12972  1.0000
  H   H2131     1.0  0.84086  0.13350  0.02539  1.0000
  C   C1340     1.0  0.89132  0.19981  0.22263  1.0000
  H   H2132     1.0  0.85037  0.22120  0.24954  1.0000
  C   C1341     1.0  0.89941  0.00173  0.28098  1.0000
  C   C1342     1.0  0.87981  0.16048  0.26097  1.0000
  C   C1343     1.0  0.92397  0.04418  0.38712  1.0000
  H   H2133     1.0  0.81628  0.02733  0.25898  1.0000
  C   C1344     1.0  0.68739  0.23412  0.08453  1.0000
  H   H2134     1.0  0.73380  0.14794  0.99238  1.0000
  H   H2135     1.0  0.83912  0.12447  0.06159  1.0000
  C   C1345     1.0  0.82815  0.12580  0.02696  1.0000
  N   N131      1.0  0.94166  0.02909  0.38708  1.0000
  H   H2136     1.0  0.87407  0.14690  0.26104  1.0000
  H   H2137     1.0  0.78847  0.11722  0.06151  1.0000
  H   H2138     1.0  0.87898  0.15734  0.30962  1.0000
  S   S557      1.0  0.69019  0.10680  0.98879  1.0000
  H   H2139     1.0  0.83227  0.10151  0.06074  1.0000
  H   H2140     1.0  0.72286  0.19430  0.15346  1.0000
  C   C1346     1.0  0.90532  0.20812  0.22863  1.0000
  H   H2141     1.0  0.78973  0.12364  0.03548  1.0000
  H   H2142     1.0  0.76771  0.20487  0.16704  1.0000
  C   C1347     1.0  0.80213  0.18111  0.99347  1.0000
  H   H2143     1.0  0.94947  0.99834  0.38550  1.0000
  H   H2144     1.0  0.83258  0.05690  0.24400  1.0000
  H   H2145     1.0  0.86753  0.03175  0.26087  1.0000
  H   H2146     1.0  0.80847  0.19382  0.99371  1.0000
  C   C1348     1.0  0.87644  0.00111  0.40850  1.0000
  S   S558      1.0  0.95044  0.99566  0.08792  1.0000
  H   H2147     1.0  0.73435  0.22230  0.13032  1.0000
  H   H2148     1.0  0.92502  0.00551  0.39779  1.0000
  C   C1349     1.0  0.74754  0.21977  0.13745  1.0000
  C   C1350     1.0  0.84310  0.04716  0.23474  1.0000
  H   H2149     1.0  0.95130  0.03648  0.35618  1.0000
  H   H2150     1.0  0.93826  0.02279  0.41835  1.0000
  H   H2151     1.0  0.74401  0.18768  0.12310  1.0000
  C   C1351     1.0  0.67487  0.14243  0.02991  1.0000
  H   H2152     1.0  0.96276  0.20737  0.30676  1.0000
  C   C1352     1.0  0.99432  0.08756  0.44764  1.0000
  C   C1353     1.0  0.86110  0.01475  0.23245  1.0000
  H   H2153     1.0  0.83405  0.11039  0.02492  1.0000
  C   C1354     1.0  0.97333  0.11418  0.43122  1.0000
  H   H2154     1.0  0.97223  0.20022  0.32927  1.0000
  C   C1355     1.0  0.87970  0.22588  0.24959  1.0000
  H   H2155     1.0  0.86681  0.01166  0.41670  1.0000
  C   C1356     1.0  0.88489  0.00713  0.38913  1.0000
  H   H2156     1.0  0.85652  0.01545  0.21815  1.0000
  C   C1357     1.0  0.94934  0.02711  0.40543  1.0000
  H   H2157     1.0  0.81701  0.11749  0.07654  1.0000
  H   H2158     1.0  0.72277  0.12779  0.03456  1.0000
  H   H2159     1.0  0.99049  0.07689  0.43990  1.0000
  S   S559      1.0  0.88083  0.03206  0.37916  1.0000
  H   H2160     1.0  0.82193  0.01923  0.23568  1.0000
  N   N132      1.0  0.98886  0.21882  0.30703  1.0000
  H   H2161     1.0  0.73904  0.18876  0.99550  1.0000
  N   N133      1.0  0.84634  0.02675  0.24501  1.0000
  N   N134      1.0  0.86443  0.10707  0.11991  1.0000
  C   C1358     1.0  0.86184  0.09626  0.14008  1.0000
  C   C1359     1.0  0.84955  0.10338  0.10962  1.0000
  C   C1360     1.0  0.88421  0.10035  0.10959  1.0000
  C   C1361     1.0  0.86216  0.12823  0.12040  1.0000
  H   H2162     1.0  0.87238  0.09935  0.14835  1.0000
  H   H2163     1.0  0.86434  0.08015  0.14040  1.0000
  H   H2164     1.0  0.84688  0.10051  0.14815  1.0000
  H   H2165     1.0  0.85142  0.11091  0.09421  1.0000
  H   H2166     1.0  0.85084  0.08747  0.10925  1.0000
  H   H2167     1.0  0.83443  0.10854  0.11682  1.0000
  H   H2168     1.0  0.88637  0.10746  0.09401  1.0000
  H   H2169     1.0  0.88680  0.08428  0.10972  1.0000
  H   H2170     1.0  0.89579  0.10369  0.11643  1.0000
  H   H2171     1.0  0.94116  0.10650  0.38055  1.0000
  H   H2172     1.0  0.89590  0.18976  0.21225  1.0000
  C   C1362     1.0  0.69138  0.22774  0.10349  1.0000
  H   H2173     1.0  0.90453  0.17658  0.28972  1.0000
  H   H2174     1.0  0.86163  0.17210  0.29499  1.0000
  C   C1363     1.0  0.93656  0.01020  0.38549  1.0000
  C   C1364     1.0  0.89777  0.17687  0.27673  1.0000
  C   C1365     1.0  0.87292  0.15872  0.29596  1.0000
  H   H2175     1.0  0.91526  0.14165  0.26781  1.0000
  H   H2176     1.0  0.76861  0.19249  0.11780  1.0000
  H   H2177     1.0  0.98397  0.08777  0.46169  1.0000
  H   H2178     1.0  0.90943  0.17809  0.26363  1.0000
  H   H2179     1.0  0.69706  0.22834  0.07241  1.0000
  H   H2180     1.0  0.89672  0.12816  0.28214  1.0000
  H   H2181     1.0  0.82973  0.00327  0.25659  1.0000
  H   H2182     1.0  0.72141  0.10961  0.00822  1.0000
  H   H2183     1.0  0.85694  0.05337  0.23046  1.0000
  H   H2184     1.0  0.67904  0.19604  0.07807  1.0000
  C   C1366     1.0  0.67422  0.13261  0.01466  1.0000
  C   C1367     1.0  0.98347  0.10571  0.34788  1.0000
  C   C1368     1.0  0.82773  0.01885  0.24931  1.0000
  H   H2185     1.0  0.91792  0.04604  0.37343  1.0000
  C   C1369     1.0  0.85337  0.02615  0.26349  1.0000
  C   C1370     1.0  0.85199  0.00143  0.17819  1.0000
  H   H2186     1.0  0.87556  0.01975  0.22945  1.0000
  H   H2187     1.0  0.72124  0.17494  0.01087  1.0000
  H   H2188     1.0  0.74425  0.22911  0.14902  1.0000
  H   H2189     1.0  0.96233  0.11500  0.44476  1.0000
  H   H2190     1.0  0.84268  0.03519  0.27329  1.0000
  H   H2191     1.0  0.71355  0.19911  0.99851  1.0000
  H   H2192     1.0  0.90350  0.99791  0.36351  1.0000
  H   H2193     1.0  0.89505  0.99536  0.31237  1.0000
  H   H2194     1.0  0.67691  0.17270  0.09295  1.0000
  C   C1371     1.0  0.89719  0.99343  0.37855  1.0000
  N   N135      1.0  0.99340  0.10721  0.43559  1.0000
  H   H2195     1.0  0.68198  0.23074  0.13378  1.0000
  H   H2196     1.0  0.87506  0.23588  0.25999  1.0000
  H   H2197     1.0  0.95573  0.99098  0.01561  1.0000
  H   H2198     1.0  0.98108  0.99171  0.01579  1.0000
  C   C1372     1.0  0.67058  0.18853  0.09144  1.0000
  H   H2199     1.0  0.99051  0.08968  0.32369  1.0000
  S   S560      1.0  0.99312  0.16189  0.39959  1.0000
  H   H2200     1.0  0.67331  0.19419  0.10411  1.0000
  H   H2201     1.0  0.86100  0.23508  0.37267  1.0000
  H   H2202     1.0  0.98848  0.12208  0.46035  1.0000
  C   C1373     1.0  0.98503  0.23544  0.29124  1.0000
  H   H2203     1.0  0.97785  0.23137  0.28029  1.0000
  C   C1374     1.0  0.67893  0.23562  0.11907  1.0000
  H   H2204     1.0  0.99520  0.19706  0.28826  1.0000
  C   C1375     1.0  0.89819  0.99502  0.26391  1.0000
  Fe  Fe278     1.0  0.99650  0.14515  0.37475  1.0000
  H   H2205     1.0  0.98851  0.23715  0.32802  1.0000
  C   C1376     1.0  0.94993  0.24047  0.35886  1.0000
  H   H2206     1.0  0.99728  0.11112  0.34473  1.0000
  Fe  Fe279     1.0  0.99689  0.18819  0.37667  1.0000
  H   H2207     1.0  0.74074  0.19475  0.95956  1.0000
  Fe  Fe280     1.0  0.84757  0.13210  0.95388  1.0000
  S   S561      1.0  0.86087  0.10123  0.95026  1.0000
  Fe  Fe281     1.0  0.88532  0.14749  0.93502  1.0000
  S   S562      1.0  0.90106  0.11767  0.93049  1.0000
  S   S563      1.0  0.90297  0.17212  0.92397  1.0000
  Fe  Fe282     1.0  0.87393  0.11463  0.92042  1.0000
  S   S564      1.0  0.87679  0.10045  0.89405  1.0000
  Fe  Fe283     1.0  0.88651  0.10756  0.96078  1.0000
  S   S565      1.0  0.85881  0.14510  0.92300  1.0000
  Fe  Fe284     1.0  0.75404  0.17761  0.83161  1.0000
  S   S566      1.0  0.75182  0.20007  0.85095  1.0000
  S   S567      1.0  0.73077  0.17946  0.81296  1.0000
  Fe  Fe285     1.0  0.79319  0.15656  0.84251  1.0000
  S   S568      1.0  0.79413  0.17661  0.86303  1.0000
  S   S569      1.0  0.81601  0.13078  0.83580  1.0000
  Fe  Fe286     1.0  0.76227  0.17436  0.87266  1.0000
  S   S570      1.0  0.75069  0.16754  0.90474  1.0000
  Fe  Fe287     1.0  0.78393  0.20056  0.83964  1.0000
  H   H2208     1.0  0.78719  0.10762  0.90159  1.0000
  S   S571      1.0  0.76220  0.15195  0.85422  1.0000
  S   S572      1.0  0.78518  0.18051  0.81826  1.0000
  H   H2209     1.0  0.80593  0.15096  0.79566  1.0000
  H   H2210     1.0  0.66732  0.04059  0.81678  1.0000
  C   C1377     1.0  0.98322  0.21291  0.89983  1.0000
  C   C1378     1.0  0.95804  0.09988  0.91122  1.0000
  H   H2211     1.0  0.99167  0.10688  0.91860  1.0000
  H   H2212     1.0  0.90103  0.15118  0.86650  1.0000
  C   C1379     1.0  0.80766  0.14013  0.78573  1.0000
  H   H2213     1.0  0.99531  0.21487  0.90693  1.0000
  C   C1380     1.0  0.87904  0.18477  0.87523  1.0000
  C   C1381     1.0  0.90930  0.18773  0.85286  1.0000
  S   S573      1.0  0.68946  0.10833  0.73163  1.0000
  Fe  Fe288     1.0  0.66565  0.11514  0.97085  1.0000
  H   H2214     1.0  0.71405  0.13713  0.86875  1.0000
  H   H2215     1.0  0.67050  0.11271  0.87466  1.0000
  Fe  Fe289     1.0  0.68341  0.11476  0.76243  1.0000
  S   S574      1.0  0.70668  0.11016  0.78190  1.0000
  H   H2216     1.0  0.66917  0.11611  0.69127  1.0000
  H   H2217     1.0  0.68530  0.23558  0.67324  1.0000
  C   C1382     1.0  0.82252  0.22136  0.85547  1.0000
  H   H2218     1.0  0.69582  0.13695  0.84184  1.0000
  H   H2219     1.0  0.68467  0.19523  0.89070  1.0000
  C   C1383     1.0  0.77399  0.14971  0.78072  1.0000
  N   N136      1.0  0.68283  0.13896  0.87168  1.0000
  H   H2220     1.0  0.99448  0.23254  0.86413  1.0000
  C   C1384     1.0  0.98485  0.22789  0.80681  1.0000
  H   H2221     1.0  0.67148  0.22127  0.64098  1.0000
  N   N137      1.0  0.78903  0.13307  0.78668  1.0000
  H   H2222     1.0  0.97280  0.20508  0.91112  1.0000
  H   H2223     1.0  0.69054  0.18634  0.98343  1.0000
  H   H2224     1.0  0.67682  0.05271  0.77226  1.0000
  H   H2225     1.0  0.81121  0.09509  0.92441  1.0000
  H   H2226     1.0  0.98659  0.09975  0.94467  1.0000
  H   H2227     1.0  0.68408  0.11294  0.89337  1.0000
  H   H2228     1.0  0.80391  0.12283  0.88674  1.0000
  H   H2229     1.0  0.66986  0.00758  0.80803  1.0000
  N   N138      1.0  0.66637  0.11618  0.66157  1.0000
  C   C1385     1.0  0.72352  0.15989  0.80537  1.0000
  C   C1386     1.0  0.71100  0.16416  0.79143  1.0000
  C   C1387     1.0  0.70545  0.14909  0.78439  1.0000
  C   C1388     1.0  0.71244  0.12954  0.79118  1.0000
  C   C1389     1.0  0.72472  0.12523  0.80541  1.0000
  C   C1390     1.0  0.73010  0.14033  0.81262  1.0000
  H   H2230     1.0  0.70572  0.17925  0.78584  1.0000
  H   H2231     1.0  0.69599  0.15263  0.77346  1.0000
  H   H2232     1.0  0.73003  0.11012  0.81088  1.0000
  H   H2233     1.0  0.73935  0.13691  0.82370  1.0000
  C   C1391     1.0  0.66646  0.10627  0.68196  1.0000
  H   H2234     1.0  0.81926  0.12797  0.79040  1.0000
  H   H2235     1.0  0.87870  0.15479  0.85693  1.0000
  H   H2236     1.0  0.69779  0.11189  0.65460  1.0000
  S   S575      1.0  0.81557  0.13340  0.96666  1.0000
  H   H2237     1.0  0.77930  0.13444  0.81716  1.0000
  S   S576      1.0  0.79761  0.22804  0.82835  1.0000
  S   S577      1.0  0.67323  0.12067  0.93818  1.0000
  H   H2238     1.0  0.88644  0.18921  0.82575  1.0000
  H   H2239     1.0  0.96338  0.13345  0.92043  1.0000
  C   C1392     1.0  0.72505  0.17048  0.90950  1.0000
  C   C1393     1.0  0.71384  0.18331  0.89668  1.0000
  C   C1394     1.0  0.69332  0.18538  0.90069  1.0000
  C   C1395     1.0  0.68404  0.17434  0.91732  1.0000
  C   C1396     1.0  0.69527  0.16177  0.93029  1.0000
  C   C1397     1.0  0.71573  0.15981  0.92636  1.0000
  H   H2240     1.0  0.72092  0.19178  0.88376  1.0000
  H   H2241     1.0  0.87696  0.20051  0.87658  1.0000
  H   H2242     1.0  0.68815  0.15354  0.94338  1.0000
  H   H2243     1.0  0.72433  0.14972  0.93620  1.0000
  C   C1398     1.0  0.92362  0.16556  0.90670  1.0000
  C   C1399     1.0  0.92387  0.15057  0.89639  1.0000
  C   C1400     1.0  0.94085  0.14392  0.88402  1.0000
  C   C1401     1.0  0.95772  0.15235  0.88167  1.0000
  C   C1402     1.0  0.95727  0.16816  0.89108  1.0000
  C   C1403     1.0  0.94017  0.17476  0.90363  1.0000
  H   H2244     1.0  0.91093  0.14404  0.89794  1.0000
  H   H2245     1.0  0.97031  0.17465  0.88935  1.0000
  H   H2246     1.0  0.93997  0.18645  0.91154  1.0000
  C   C1404     1.0  0.86058  0.10991  0.87735  1.0000
  C   C1405     1.0  0.85799  0.09792  0.86483  1.0000
  C   C1406     1.0  0.84457  0.10463  0.85188  1.0000
  C   C1407     1.0  0.83372  0.12345  0.85126  1.0000
  C   C1408     1.0  0.83685  0.13578  0.86323  1.0000
  C   C1409     1.0  0.85018  0.12897  0.87637  1.0000
  H   H2247     1.0  0.86614  0.08323  0.86540  1.0000
  H   H2248     1.0  0.84240  0.09507  0.84256  1.0000
  H   H2249     1.0  0.82908  0.15053  0.86235  1.0000
  H   H2250     1.0  0.85249  0.13847  0.88563  1.0000
  H   H2251     1.0  0.94105  0.13190  0.87653  1.0000
  C   C1410     1.0  0.70020  0.14479  0.87630  1.0000
  H   H2252     1.0  0.90150  0.15679  0.84067  1.0000
  H   H2253     1.0  0.73399  0.15162  0.96658  1.0000
  C   C1411     1.0  0.83848  0.22499  0.86262  1.0000
  C   C1412     1.0  0.73582  0.15871  0.97867  1.0000
  H   H2254     1.0  0.93949  0.12823  0.93179  1.0000
  H   H2255     1.0  0.70028  0.16078  0.87164  1.0000
  H   H2256     1.0  0.76889  0.13516  0.93082  1.0000
  S   S578      1.0  0.87250  0.13771  0.96646  1.0000
  H   H2257     1.0  0.67828  0.02901  0.76625  1.0000
  C   C1413     1.0  0.98312  0.09767  0.93063  1.0000
  C   C1414     1.0  0.67720  0.04871  0.67863  1.0000
  H   H2258     1.0  0.76890  0.11744  0.80801  1.0000
  H   H2259     1.0  0.98996  0.20316  0.88891  1.0000
  H   H2260     1.0  0.82630  0.16924  0.97293  1.0000
  C   C1415     1.0  0.68257  0.14444  0.85047  1.0000
  H   H2261     1.0  0.79384  0.11173  0.81221  1.0000
  H   H2262     1.0  0.82772  0.11058  0.90962  1.0000
  H   H2263     1.0  0.80326  0.10581  0.77755  1.0000
  H   H2264     1.0  0.76001  0.14478  0.78039  1.0000
  S   S579      1.0  0.97944  0.14120  0.86869  1.0000
  C   C1416     1.0  0.85026  0.23856  0.85170  1.0000
  H   H2265     1.0  0.81318  0.14727  0.77074  1.0000
  H   H2266     1.0  0.70052  0.14149  0.89229  1.0000
  C   C1417     1.0  0.78243  0.12373  0.80688  1.0000
  C   C1418     1.0  0.81800  0.23156  0.83749  1.0000
  H   H2267     1.0  0.69218  0.04685  0.70282  1.0000
  H   H2268     1.0  0.68220  0.16048  0.84557  1.0000
  N   N139      1.0  0.89008  0.18119  0.85589  1.0000
  H   H2269     1.0  0.94224  0.10419  0.91004  1.0000
  H   H2270     1.0  0.78608  0.12627  0.94737  1.0000
  H   H2271     1.0  0.81346  0.21100  0.86406  1.0000
  H   H2272     1.0  0.81623  0.14636  0.90140  1.0000
  H   H2273     1.0  0.80893  0.14755  0.92691  1.0000
  H   H2274     1.0  0.95790  0.12644  0.94647  1.0000
  H   H2275     1.0  0.95309  0.09264  0.96077  1.0000
  H   H2276     1.0  0.69681  0.10939  0.86940  1.0000
  H   H2277     1.0  0.95571  0.07462  0.94528  1.0000
  H   H2278     1.0  0.82019  0.11193  0.93504  1.0000
  C   C1419     1.0  0.89295  0.16008  0.85495  1.0000
  H   H2279     1.0  0.96234  0.08430  0.90926  1.0000
  C   C1420     1.0  0.95104  0.09042  0.94622  1.0000
  C   C1421     1.0  0.81504  0.11004  0.92175  1.0000
  H   H2280     1.0  0.87754  0.20830  0.84003  1.0000
  H   H2281     1.0  0.86392  0.18867  0.84286  1.0000
  H   H2282     1.0  0.68385  0.99199  0.59606  1.0000
  C   C1422     1.0  0.67840  0.05137  0.69744  1.0000
  H   H2283     1.0  0.66956  0.14044  0.84644  1.0000
  C   C1423     1.0  0.67624  0.03710  0.77870  1.0000
  H   H2284     1.0  0.91809  0.18532  0.83841  1.0000
  H   H2285     1.0  0.79160  0.15657  0.91053  1.0000
  H   H2286     1.0  0.79705  0.12515  0.75804  1.0000
  H   H2287     1.0  0.67807  0.09317  0.68299  1.0000
  C   C1424     1.0  0.87899  0.19228  0.84046  1.0000
  C   C1425     1.0  0.78183  0.12391  0.93379  1.0000
  H   H2288     1.0  0.77824  0.11299  0.77379  1.0000
  C   C1426     1.0  0.95540  0.12365  0.93230  1.0000
  C   C1427     1.0  0.80401  0.14478  0.91385  1.0000
  H   H2289     1.0  0.77883  0.15770  0.76590  1.0000
  H   H2290     1.0  0.90753  0.20363  0.85355  1.0000
  N   N140      1.0  0.72176  0.17703  0.98003  1.0000
  H   H2291     1.0  0.77708  0.10933  0.93683  1.0000
  H   H2292     1.0  0.86429  0.18040  0.87794  1.0000
  N   N141      1.0  0.97339  0.23189  0.89056  1.0000
  C   C1428     1.0  0.99188  0.22862  0.77189  1.0000
  H   H2293     1.0  0.77936  0.13349  0.89554  1.0000
  H   H2294     1.0  0.96639  0.10872  0.89871  1.0000
  N   N142      1.0  0.79821  0.12521  0.91722  1.0000
  C   C1429     1.0  0.79188  0.12214  0.89950  1.0000
  C   C1430     1.0  0.72566  0.19119  0.96192  1.0000
  H   H2295     1.0  0.84162  0.21731  0.87672  1.0000
  H   H2296     1.0  0.68688  0.13463  0.66277  1.0000
  H   H2297     1.0  0.98857  0.08213  0.92889  1.0000
  H   H2298     1.0  0.91809  0.17976  0.86424  1.0000
  H   H2299     1.0  0.98875  0.22259  0.82108  1.0000
  H   H2300     1.0  0.72425  0.18534  0.94884  1.0000
  N   N143      1.0  0.96189  0.10290  0.93011  1.0000
  S   S580      1.0  0.67180  0.15389  0.69645  1.0000
  H   H2301     1.0  0.96349  0.21919  0.86975  1.0000
  H   H2302     1.0  0.69466  0.22906  0.63909  1.0000
  H   H2303     1.0  0.71520  0.20515  0.96233  1.0000
  C   C1431     1.0  0.66488  0.14903  0.88254  1.0000
  S   S581      1.0  0.90510  0.08496  0.97954  1.0000
  H   H2304     1.0  0.75120  0.16148  0.97587  1.0000
  H   H2305     1.0  0.68898  0.03166  0.78647  1.0000
  H   H2306     1.0  0.77050  0.16048  0.79097  1.0000
  C   C1432     1.0  0.79206  0.11861  0.77342  1.0000
  H   H2307     1.0  0.88687  0.17646  0.88724  1.0000
  H   H2308     1.0  0.95394  0.23757  0.91703  1.0000
  H   H2309     1.0  0.93502  0.09373  0.94599  1.0000
  H   H2310     1.0  0.69015  0.04233  0.66957  1.0000
  H   H2311     1.0  0.69944  0.16625  0.97027  1.0000
  C   C1433     1.0  0.68497  0.12384  0.65400  1.0000
  H   H2312     1.0  0.94637  0.22140  0.89196  1.0000
  C   C1434     1.0  0.67910  0.23426  0.63726  1.0000
  Fe  Fe290     1.0  0.66621  0.13451  0.72585  1.0000
  C   C1435     1.0  0.95762  0.22861  0.88116  1.0000
  C   C1436     1.0  0.81224  0.16721  0.98176  1.0000
  C   C1437     1.0  0.99678  0.22116  0.79041  1.0000
  C   C1438     1.0  0.80392  0.15092  0.98132  1.0000
  H   H2313     1.0  0.67641  0.08936  0.64985  1.0000
  C   C1439     1.0  0.68365  0.11758  0.87747  1.0000
  H   H2314     1.0  0.68551  0.13133  0.63860  1.0000
  C   C1440     1.0  0.70159  0.17284  0.98259  1.0000
  Fe  Fe291     1.0  0.66432  0.09146  0.74041  1.0000
  H   H2315     1.0  0.66428  0.17778  0.66021  1.0000
  H   H2316     1.0  0.66410  0.16522  0.87930  1.0000
  H   H2317     1.0  0.66432  0.14463  0.89858  1.0000
  H   H2318     1.0  0.66439  0.10897  0.63392  1.0000
  C   C1441     1.0  0.66431  0.10209  0.64946  1.0000
  C   C1442     1.0  0.67003  0.24065  0.67039  1.0000
  H   H2319     1.0  0.67889  0.24021  0.62150  1.0000
  Fe  Fe292     1.0  0.79313  0.38605  0.37938  1.0000
  S   S582      1.0  0.78883  0.35681  0.39696  1.0000
  S   S583      1.0  0.81809  0.39809  0.38645  1.0000
  Fe  Fe293     1.0  0.76030  0.38614  0.35615  1.0000
  S   S584      1.0  0.75353  0.35708  0.37277  1.0000
  S   S585      1.0  0.74516  0.40304  0.33084  1.0000
  Fe  Fe294     1.0  0.75689  0.36873  0.39906  1.0000
  S   S586      1.0  0.73978  0.36488  0.42944  1.0000
  Fe  Fe295     1.0  0.78626  0.34817  0.36896  1.0000
  S   S587      1.0  0.80006  0.31820  0.36182  1.0000
  S   S588      1.0  0.76111  0.39868  0.38300  1.0000
  S   S589      1.0  0.79302  0.37657  0.35077  1.0000
  H   H2320     1.0  0.90935  0.34094  0.28247  1.0000
  N   N144      1.0  0.92761  0.34028  0.25431  1.0000
  H   H2321     1.0  0.87196  0.42649  0.36170  1.0000
  C   C1443     1.0  0.78809  0.37123  0.46287  1.0000
  S   S590      1.0  0.80375  0.43441  0.46446  1.0000
  H   H2322     1.0  0.85416  0.27201  0.40549  1.0000
  C   C1444     1.0  0.91749  0.35925  0.24537  1.0000
  H   H2323     1.0  0.74430  0.43317  0.46579  1.0000
  Fe  Fe296     1.0  0.67803  0.38619  0.25912  1.0000
  H   H2324     1.0  0.69369  0.43859  0.45570  1.0000
  Fe  Fe297     1.0  0.90260  0.24939  0.31692  1.0000
  H   H2325     1.0  0.93060  0.44858  0.46970  1.0000
  H   H2326     1.0  0.88192  0.26957  0.35543  1.0000
  C   C1445     1.0  0.94510  0.34334  0.26119  1.0000
  Fe  Fe298     1.0  0.88703  0.28536  0.29017  1.0000
  S   S591      1.0  0.91363  0.28204  0.26696  1.0000
  S   S592      1.0  0.86567  0.31337  0.28723  1.0000
  H   H2327     1.0  0.82730  0.26266  0.39273  1.0000
  H   H2328     1.0  0.75285  0.41106  0.44088  1.0000
  Fe  Fe299     1.0  0.93024  0.27589  0.29207  1.0000
  S   S593      1.0  0.95744  0.28824  0.29277  1.0000
  H   H2329     1.0  0.70330  0.42604  0.13608  1.0000
  C   C1446     1.0  0.66840  0.40266  0.33860  1.0000
  S   S594      1.0  0.90384  0.28106  0.31475  1.0000
  S   S595      1.0  0.88263  0.25392  0.29477  1.0000
  Fe  Fe300     1.0  0.95486  0.40795  0.36793  1.0000
  S   S596      1.0  0.96541  0.41217  0.33562  1.0000
  S   S597      1.0  0.92893  0.42881  0.37979  1.0000
  Fe  Fe301     1.0  0.96544  0.37982  0.33876  1.0000
  S   S598      1.0  0.94731  0.36976  0.32073  1.0000
  S   S599      1.0  0.95317  0.37624  0.37072  1.0000
  H   H2330     1.0  0.90798  0.39563  0.39163  1.0000
  H   H2331     1.0  0.70031  0.41288  0.46313  1.0000
  C   C1447     1.0  0.70365  0.42535  0.45136  1.0000
  H   H2332     1.0  0.73431  0.39679  0.45373  1.0000
  C   C1448     1.0  0.87255  0.38762  0.36926  1.0000
  H   H2333     1.0  0.76494  0.36328  0.32579  1.0000
  C   C1449     1.0  0.95482  0.30907  0.30408  1.0000
  C   C1450     1.0  0.93630  0.31877  0.31108  1.0000
  C   C1451     1.0  0.93429  0.33700  0.31696  1.0000
  C   C1452     1.0  0.95081  0.34538  0.31671  1.0000
  C   C1453     1.0  0.96946  0.33518  0.31086  1.0000
  C   C1454     1.0  0.97144  0.31715  0.30438  1.0000
  H   H2334     1.0  0.92339  0.31270  0.31128  1.0000
  C   C1455     1.0  0.68730  0.42827  0.14177  1.0000
  H   H2335     1.0  0.89827  0.48229  0.45968  1.0000
  S   S600      1.0  0.90275  0.41234  0.47140  1.0000
  H   H2336     1.0  0.91283  0.36961  0.25604  1.0000
  H   H2337     1.0  0.90412  0.35744  0.24021  1.0000
  Fe  Fe302     1.0  0.67309  0.42046  0.22586  1.0000
  C   C1456     1.0  0.90327  0.39873  0.35457  1.0000
  H   H2338     1.0  0.73431  0.40737  0.42861  1.0000
  H   H2339     1.0  0.67433  0.38265  0.46516  1.0000
  H   H2340     1.0  0.92716  0.36626  0.23261  1.0000
  C   C1457     1.0  0.90947  0.41674  0.44587  1.0000
  C   C1458     1.0  0.89741  0.42985  0.43406  1.0000
  C   C1459     1.0  0.90362  0.43371  0.41378  1.0000
  C   C1460     1.0  0.92169  0.42420  0.40524  1.0000
  C   C1461     1.0  0.93356  0.41082  0.41702  1.0000
  C   C1462     1.0  0.92755  0.40729  0.43732  1.0000
  H   H2341     1.0  0.88345  0.43719  0.44054  1.0000
  H   H2342     1.0  0.89438  0.44407  0.40471  1.0000
  H   H2343     1.0  0.94745  0.40333  0.41053  1.0000
  H   H2344     1.0  0.93689  0.39710  0.44643  1.0000
  C   C1463     1.0  0.72992  0.39391  0.31876  1.0000
  C   C1464     1.0  0.72483  0.37522  0.32492  1.0000
  C   C1465     1.0  0.71396  0.36797  0.31404  1.0000
  C   C1466     1.0  0.70767  0.37945  0.29714  1.0000
  C   C1467     1.0  0.71226  0.39833  0.29128  1.0000
  C   C1468     1.0  0.72339  0.40548  0.30202  1.0000
  H   H2345     1.0  0.72940  0.36626  0.33798  1.0000
  H   H2346     1.0  0.71033  0.35339  0.31878  1.0000
  H   H2347     1.0  0.70749  0.40735  0.27833  1.0000
  H   H2348     1.0  0.72719  0.41999  0.29715  1.0000
  C   C1469     1.0  0.81856  0.31707  0.34126  1.0000
  C   C1470     1.0  0.82714  0.33345  0.33199  1.0000
  C   C1471     1.0  0.84150  0.33231  0.31526  1.0000
  C   C1472     1.0  0.84778  0.31460  0.30816  1.0000
  C   C1473     1.0  0.83949  0.29809  0.31763  1.0000
  C   C1474     1.0  0.82468  0.29943  0.33396  1.0000
  H   H2349     1.0  0.82286  0.34697  0.33775  1.0000
  H   H2350     1.0  0.84801  0.34506  0.30802  1.0000
  H   H2351     1.0  0.84413  0.28445  0.31201  1.0000
  H   H2352     1.0  0.81780  0.28681  0.34081  1.0000
  C   C1475     1.0  0.71469  0.37398  0.43089  1.0000
  C   C1476     1.0  0.70309  0.37455  0.44928  1.0000
  H   H2353     1.0  0.68854  0.39543  0.18372  1.0000
  C   C1477     1.0  0.77255  0.34946  0.32064  1.0000
  C   C1478     1.0  0.72796  0.44481  0.43330  1.0000
  C   C1479     1.0  0.70628  0.38122  0.41405  1.0000
  H   H2354     1.0  0.70951  0.36887  0.46233  1.0000
  H   H2355     1.0  0.83082  0.25985  0.36754  1.0000
  C   C1480     1.0  0.68619  0.38879  0.41570  1.0000
  H   H2356     1.0  0.71523  0.38087  0.39980  1.0000
  C   C1481     1.0  0.81389  0.40743  0.40861  1.0000
  C   C1482     1.0  0.79510  0.41576  0.41662  1.0000
  C   C1483     1.0  0.79232  0.42422  0.43358  1.0000
  C   C1484     1.0  0.80815  0.42402  0.44294  1.0000
  C   C1485     1.0  0.82686  0.41527  0.43523  1.0000
  C   C1486     1.0  0.82972  0.40716  0.41804  1.0000
  H   H2357     1.0  0.78286  0.41626  0.40936  1.0000
  H   H2358     1.0  0.77791  0.43122  0.43934  1.0000
  H   H2359     1.0  0.83916  0.41500  0.44236  1.0000
  H   H2360     1.0  0.84424  0.40059  0.41211  1.0000
  H   H2361     1.0  0.80117  0.37077  0.28093  1.0000
  H   H2362     1.0  0.86526  0.39515  0.35661  1.0000
  H   H2363     1.0  0.72466  0.44282  0.41914  1.0000
  Fe  Fe303     1.0  0.82818  0.43288  0.48165  1.0000
  C   C1487     1.0  0.69231  0.40827  0.17270  1.0000
  H   H2364     1.0  0.68870  0.48720  0.14446  1.0000
  H   H2365     1.0  0.66675  0.41876  0.33796  1.0000
  S   S601      1.0  0.93030  0.24361  0.29593  1.0000
  C   C1488     1.0  0.91413  0.33151  0.27098  1.0000
  H   H2366     1.0  0.89542  0.45704  0.46722  1.0000
  H   H2367     1.0  0.82867  0.28363  0.37398  1.0000
  H   H2368     1.0  0.86080  0.38661  0.38230  1.0000
  Fe  Fe304     1.0  0.87135  0.42179  0.48453  1.0000
  C   C1489     1.0  0.68316  0.38245  0.45090  1.0000
  H   H2369     1.0  0.91480  0.40687  0.35604  1.0000
  C   C1490     1.0  0.79225  0.33453  0.29388  1.0000
  H   H2370     1.0  0.88004  0.47547  0.48014  1.0000
  H   H2371     1.0  0.71927  0.44434  0.47216  1.0000
  H   H2372     1.0  0.87889  0.37246  0.36674  1.0000
  C   C1491     1.0  0.83485  0.26790  0.37781  1.0000
  N   N145      1.0  0.72439  0.42781  0.44866  1.0000
  H   H2373     1.0  0.79328  0.38333  0.45160  1.0000
  C   C1492     1.0  0.86570  0.27172  0.35665  1.0000
  H   H2374     1.0  0.71860  0.45850  0.43732  1.0000
  H   H2375     1.0  0.66924  0.40239  0.30076  1.0000
  S   S602      1.0  0.69058  0.39022  0.22705  1.0000
  H   H2376     1.0  0.88503  0.38803  0.40290  1.0000
  H   H2377     1.0  0.98719  0.25870  0.38267  1.0000
  H   H2378     1.0  0.89736  0.40603  0.34106  1.0000
  H   H2379     1.0  0.70844  0.40566  0.16787  1.0000
  H   H2380     1.0  0.88964  0.42695  0.37659  1.0000
  C   C1493     1.0  0.79441  0.36762  0.29655  1.0000
  H   H2381     1.0  0.94377  0.33310  0.22683  1.0000
  H   H2382     1.0  0.98229  0.34167  0.31032  1.0000
  N   N146      1.0  0.85631  0.26510  0.37684  1.0000
  H   H2383     1.0  0.95520  0.35075  0.24917  1.0000
  H   H2384     1.0  0.86688  0.41871  0.38759  1.0000
  H   H2385     1.0  0.94105  0.35239  0.27305  1.0000
  H   H2386     1.0  0.75720  0.37497  0.29148  1.0000
  H   H2387     1.0  0.92124  0.31708  0.27787  1.0000
  H   H2388     1.0  0.78399  0.34308  0.32986  1.0000
  H   H2389     1.0  0.80647  0.36241  0.30525  1.0000
  C   C1494     1.0  0.67095  0.24829  0.08119  1.0000
  C   C1495     1.0  0.72881  0.43110  0.46721  1.0000
  H   H2390     1.0  0.95358  0.32918  0.26710  1.0000
  H   H2391     1.0  0.94151  0.31253  0.24609  1.0000
  H   H2392     1.0  0.90070  0.32907  0.26637  1.0000
  C   C1496     1.0  0.87864  0.41847  0.37456  1.0000
  H   H2393     1.0  0.72602  0.41864  0.47918  1.0000
  H   H2394     1.0  0.93339  0.47388  0.46258  1.0000
  N   N147      1.0  0.88768  0.39826  0.37194  1.0000
  H   H2395     1.0  0.74350  0.44707  0.43082  1.0000
  H   H2396     1.0  0.87990  0.24155  0.38246  1.0000
  Fe  Fe305     1.0  0.91063  0.25012  0.27327  1.0000
  H   H2397     1.0  0.98584  0.30981  0.29894  1.0000
  H   H2398     1.0  0.90296  0.37283  0.38808  1.0000
  H   H2399     1.0  0.91982  0.34482  0.32141  1.0000
  C   C1497     1.0  0.89624  0.38820  0.38941  1.0000
  C   C1498     1.0  0.76533  0.36061  0.28797  1.0000
  S   S603      1.0  0.69382  0.36964  0.28417  1.0000
  H   H2400     1.0  0.91070  0.38374  0.35227  1.0000
  H   H2401     1.0  0.78641  0.38172  0.30101  1.0000
  Fe  Fe306     1.0  0.98455  0.37095  0.37487  1.0000
  H   H2402     1.0  0.75445  0.35046  0.29070  1.0000
  H   H2403     1.0  0.76179  0.33918  0.32364  1.0000
  H   H2404     1.0  0.80425  0.32839  0.30252  1.0000
  H   H2405     1.0  0.77121  0.36281  0.27207  1.0000
  H   H2406     1.0  0.78263  0.32323  0.29618  1.0000
  H   H2407     1.0  0.85546  0.29253  0.38603  1.0000
  C   C1499     1.0  0.86376  0.24415  0.38276  1.0000
  N   N148      1.0  0.78114  0.35304  0.29974  1.0000
  H   H2408     1.0  0.92084  0.32401  0.23448  1.0000
  C   C1500     1.0  0.73706  0.41001  0.44276  1.0000
  C   C1501     1.0  0.93370  0.32694  0.23974  1.0000
  H   H2409     1.0  0.79910  0.33665  0.27821  1.0000
  H   H2410     1.0  0.67967  0.39429  0.40270  1.0000
  C   C1502     1.0  0.80661  0.37780  0.48548  1.0000
  H   H2411     1.0  0.70243  0.46938  0.17375  1.0000
  H   H2412     1.0  0.69975  0.42247  0.43781  1.0000
  C   C1503     1.0  0.67540  0.45983  0.18867  1.0000
  H   H2413     1.0  0.77722  0.40595  0.47476  1.0000
  H   H2414     1.0  0.79844  0.35761  0.46027  1.0000
  H   H2415     1.0  0.68235  0.38050  0.15734  1.0000
  S   S604      1.0  0.68608  0.44664  0.20871  1.0000
  C   C1504     1.0  0.68715  0.46978  0.17312  1.0000
  H   H2416     1.0  0.66792  0.25327  0.06647  1.0000
  S   S605      1.0  0.66509  0.36567  0.19636  1.0000
  H   H2417     1.0  0.92574  0.25692  0.34526  1.0000
  H   H2418     1.0  0.81185  0.39040  0.47499  1.0000
  C   C1505     1.0  0.67464  0.38951  0.43416  1.0000
  H   H2419     1.0  0.67941  0.43110  0.12911  1.0000
  H   H2420     1.0  0.70243  0.39028  0.14131  1.0000
  S   S606      1.0  0.85298  0.45032  0.47471  1.0000
  C   C1506     1.0  0.93208  0.24270  0.35215  1.0000
  H   H2421     1.0  0.97515  0.24801  0.29711  1.0000
  H   H2422     1.0  0.77353  0.36944  0.46022  1.0000
  H   H2423     1.0  0.99466  0.29036  0.36246  1.0000
  H   H2424     1.0  0.86055  0.28750  0.35166  1.0000
  H   H2425     1.0  0.95726  0.25297  0.35706  1.0000
  H   H2426     1.0  0.81773  0.36458  0.48330  1.0000
  N   N149      1.0  0.78705  0.37520  0.48283  1.0000
  H   H2427     1.0  0.87707  0.27492  0.38965  1.0000
  C   C1507     1.0  0.86097  0.27664  0.39011  1.0000
  S   S607      1.0  0.98494  0.40244  0.37550  1.0000
  C   C1508     1.0  0.89521  0.47089  0.47263  1.0000
  H   H2428     1.0  0.86252  0.26333  0.34618  1.0000
  H   H2429     1.0  0.68876  0.42115  0.18035  1.0000
  H   H2430     1.0  0.68334  0.39784  0.33075  1.0000
  C   C1509     1.0  0.67938  0.47985  0.15656  1.0000
  C   C1510     1.0  0.92947  0.46253  0.47532  1.0000
  C   C1511     1.0  0.68645  0.39359  0.14681  1.0000
  H   H2431     1.0  0.67856  0.39526  0.13430  1.0000
  H   H2432     1.0  0.75791  0.39157  0.48448  1.0000
  H   H2433     1.0  0.68380  0.44180  0.14844  1.0000
  N   N150      1.0  0.68159  0.41128  0.15614  1.0000
  H   H2434     1.0  0.66788  0.39565  0.35417  1.0000
  Fe  Fe307     1.0  0.99566  0.40401  0.34341  1.0000
  H   H2435     1.0  0.67056  0.37042  0.32296  1.0000
  S   S608      1.0  0.99555  0.34906  0.39939  1.0000
  H   H2436     1.0  0.94067  0.46026  0.48497  1.0000
  S   S609      1.0  0.99696  0.37190  0.34312  1.0000
  S   S610      1.0  0.68488  0.42977  0.50043  1.0000
  Fe  Fe308     1.0  0.73691  0.37034  0.62409  1.0000
  S   S611      1.0  0.73765  0.34231  0.61287  1.0000
  S   S612      1.0  0.76095  0.36891  0.64216  1.0000
  Fe  Fe309     1.0  0.70448  0.39156  0.60092  1.0000
  S   S613      1.0  0.70299  0.36549  0.58806  1.0000
  H   H2437     1.0  0.79960  0.34788  0.75059  1.0000
  Fe  Fe310     1.0  0.70463  0.34878  0.61816  1.0000
  C   C1512     1.0  0.84009  0.46050  0.62986  1.0000
  Fe  Fe311     1.0  0.73573  0.36153  0.58385  1.0000
  S   S614      1.0  0.75399  0.35673  0.55487  1.0000
  S   S615      1.0  0.70390  0.37537  0.63170  1.0000
  S   S616      1.0  0.73718  0.38894  0.59442  1.0000
  S   S617      1.0  0.83399  0.38774  0.54528  1.0000
  N   N151      1.0  0.79104  0.41046  0.59493  1.0000
  H   H2438     1.0  0.80076  0.32428  0.84480  1.0000
  S   S618      1.0  0.84933  0.48215  0.51529  1.0000
  H   H2439     1.0  0.77716  0.36406  0.75719  1.0000
  S   S619      1.0  0.95794  0.36413  0.89017  1.0000
  C   C1513     1.0  0.84586  0.24863  0.83364  1.0000
  S   S620      1.0  0.94105  0.26547  0.78294  1.0000
  H   H2440     1.0  0.66539  0.39175  0.54571  1.0000
  C   C1514     1.0  0.84669  0.47983  0.74639  1.0000
  H   H2441     1.0  0.84328  0.44790  0.64164  1.0000
  Fe  Fe312     1.0  0.92212  0.27365  0.81044  1.0000
  S   S621      1.0  0.92269  0.25619  0.84035  1.0000
  Fe  Fe313     1.0  0.89141  0.30601  0.82514  1.0000
  S   S622      1.0  0.89017  0.29149  0.85650  1.0000
  S   S623      1.0  0.87291  0.33543  0.81805  1.0000
  Fe  Fe314     1.0  0.92300  0.28503  0.84914  1.0000
  S   S624      1.0  0.94679  0.28538  0.86627  1.0000
  Fe  Fe315     1.0  0.88995  0.26426  0.84459  1.0000
  C   C1515     1.0  0.68018  0.26613  0.64423  1.0000
  S   S625      1.0  0.92422  0.30198  0.81886  1.0000
  S   S626      1.0  0.88929  0.27925  0.81368  1.0000
  Fe  Fe316     1.0  0.83241  0.43281  0.73288  1.0000
  S   S627      1.0  0.85970  0.41120  0.72601  1.0000
  H   H2442     1.0  0.85739  0.46902  0.65625  1.0000
  Fe  Fe317     1.0  0.81273  0.42249  0.70148  1.0000
  S   S628      1.0  0.83869  0.40049  0.69266  1.0000
  S   S629      1.0  0.78558  0.42824  0.68687  1.0000
  Fe  Fe318     1.0  0.83924  0.39103  0.72473  1.0000
  S   S630      1.0  0.84228  0.35875  0.73711  1.0000
  Fe  Fe319     1.0  0.85640  0.42291  0.69483  1.0000
  S   S631      1.0  0.88151  0.42834  0.67059  1.0000
  S   S632      1.0  0.81197  0.41159  0.73364  1.0000
  S   S633      1.0  0.83043  0.44598  0.70148  1.0000
  H   H2443     1.0  0.80724  0.38278  0.58848  1.0000
  S   S634      1.0  0.90382  0.47268  0.85481  1.0000
  H   H2444     1.0  0.76154  0.41967  0.58931  1.0000
  Fe  Fe320     1.0  0.84041  0.41096  0.51940  1.0000
  H   H2445     1.0  0.76351  0.41074  0.61446  1.0000
  H   H2446     1.0  0.90614  0.43845  0.49779  1.0000
  H   H2447     1.0  0.85542  0.48379  0.79791  1.0000
  H   H2448     1.0  0.88994  0.45645  0.51051  1.0000
  C   C1516     1.0  0.89063  0.44991  0.66998  1.0000
  H   H2449     1.0  0.78637  0.38107  0.60746  1.0000
  H   H2450     1.0  0.82525  0.46847  0.63475  1.0000
  H   H2451     1.0  0.83177  0.33509  0.84726  1.0000
  H   H2452     1.0  0.69584  0.26182  0.64596  1.0000
  C   C1517     1.0  0.90376  0.45659  0.65358  1.0000
  H   H2453     1.0  0.87362  0.45621  0.69750  1.0000
  S   S635      1.0  0.81998  0.43891  0.51262  1.0000
  H   H2454     1.0  0.94998  0.24268  0.87397  1.0000
  H   H2455     1.0  0.90938  0.44769  0.64227  1.0000
  C   C1518     1.0  0.86365  0.34158  0.79593  1.0000
  C   C1519     1.0  0.85865  0.36135  0.78816  1.0000
  C   C1520     1.0  0.85191  0.36676  0.77019  1.0000
  C   C1521     1.0  0.84976  0.35239  0.76009  1.0000
  C   C1522     1.0  0.85416  0.33260  0.76815  1.0000
  C   C1523     1.0  0.86133  0.32718  0.78592  1.0000
  H   H2456     1.0  0.86029  0.37258  0.79588  1.0000
  H   H2457     1.0  0.84839  0.38208  0.76417  1.0000
  H   H2458     1.0  0.85241  0.32143  0.76042  1.0000
  H   H2459     1.0  0.86501  0.31190  0.79182  1.0000
  C   C1524     1.0  0.96774  0.45238  0.86269  1.0000
  C   C1525     1.0  0.96271  0.46900  0.84909  1.0000
  C   C1526     1.0  0.94307  0.47553  0.84675  1.0000
  C   C1527     1.0  0.92834  0.46568  0.85832  1.0000
  C   C1528     1.0  0.93330  0.44948  0.87240  1.0000
  C   C1529     1.0  0.95297  0.44265  0.87438  1.0000
  H   H2460     1.0  0.66822  0.36012  0.56860  1.0000
  H   H2461     1.0  0.76923  0.43454  0.60329  1.0000
  H   H2462     1.0  0.95663  0.42987  0.88496  1.0000
  C   C1530     1.0  0.95578  0.34251  0.88231  1.0000
  C   C1531     1.0  0.93785  0.34100  0.87739  1.0000
  C   C1532     1.0  0.93520  0.32382  0.87171  1.0000
  C   C1533     1.0  0.95031  0.30780  0.87146  1.0000
  C   C1534     1.0  0.96829  0.30931  0.87629  1.0000
  C   C1535     1.0  0.97113  0.32672  0.88144  1.0000
  H   H2463     1.0  0.92585  0.35306  0.87824  1.0000
  H   H2464     1.0  0.92125  0.32274  0.86819  1.0000
  C   C1536     1.0  0.88969  0.47956  0.68288  1.0000
  H   H2465     1.0  0.87801  0.44901  0.63070  1.0000
  S   S636      1.0  0.84716  0.40403  0.48902  1.0000
  H   H2466     1.0  0.75979  0.38476  0.73148  1.0000
  N   N152      1.0  0.98965  0.45603  0.92161  1.0000
  C   C1537     1.0  0.80308  0.35974  0.71198  1.0000
  C   C1538     1.0  0.76751  0.38608  0.65397  1.0000
  C   C1539     1.0  0.78562  0.38163  0.66064  1.0000
  C   C1540     1.0  0.79161  0.39469  0.67013  1.0000
  C   C1541     1.0  0.77931  0.41215  0.67355  1.0000
  C   C1542     1.0  0.76129  0.41670  0.66671  1.0000
  C   C1543     1.0  0.75543  0.40380  0.65688  1.0000
  H   H2467     1.0  0.79516  0.36805  0.65828  1.0000
  H   H2468     1.0  0.80566  0.39116  0.67496  1.0000
  H   H2469     1.0  0.75166  0.43019  0.66926  1.0000
  H   H2470     1.0  0.74143  0.40741  0.65191  1.0000
  C   C1544     1.0  0.82965  0.24531  0.82669  1.0000
  H   H2471     1.0  0.97096  0.24761  0.75542  1.0000
  H   H2472     1.0  0.79675  0.40369  0.62436  1.0000
  H   H2473     1.0  0.78163  0.39396  0.71878  1.0000
  H   H2474     1.0  0.85495  0.25891  0.82499  1.0000
  H   H2475     1.0  0.97813  0.43995  0.94927  1.0000
  H   H2476     1.0  0.68489  0.32427  0.59265  1.0000
  S   S637      1.0  0.86660  0.42563  0.51589  1.0000
  C   C1545     1.0  0.66912  0.43458  0.55778  1.0000
  C   C1546     1.0  0.77603  0.36560  0.55236  1.0000
  C   C1547     1.0  0.79159  0.35401  0.56078  1.0000
  C   C1548     1.0  0.80947  0.36079  0.55820  1.0000
  C   C1549     1.0  0.81192  0.37911  0.54706  1.0000
  C   C1550     1.0  0.79638  0.39071  0.53854  1.0000
  C   C1551     1.0  0.77836  0.38402  0.54138  1.0000
  H   H2477     1.0  0.78981  0.33977  0.56929  1.0000
  H   H2478     1.0  0.82143  0.35184  0.56491  1.0000
  H   H2479     1.0  0.79809  0.40498  0.53014  1.0000
  H   H2480     1.0  0.76616  0.39314  0.53524  1.0000
  C   C1552     1.0  0.68460  0.42721  0.52567  1.0000
  C   C1553     1.0  0.84139  0.46559  0.76230  1.0000
  H   H2481     1.0  0.78292  0.38833  0.58257  1.0000
  C   C1554     1.0  0.68477  0.42272  0.56600  1.0000
  C   C1555     1.0  0.70033  0.41314  0.55399  1.0000
  C   C1556     1.0  0.70039  0.41563  0.53383  1.0000
  H   H2482     1.0  0.80640  0.38071  0.50041  1.0000
  H   H2483     1.0  0.87035  0.45425  0.54366  1.0000
  H   H2484     1.0  0.71247  0.40396  0.56019  1.0000
  H   H2485     1.0  0.71257  0.40832  0.52463  1.0000
  Fe  Fe321     1.0  0.98662  0.37348  0.89141  1.0000
  Fe  Fe322     1.0  0.84694  0.45331  0.50662  1.0000
  H   H2486     1.0  0.79113  0.42014  0.56419  1.0000
  H   H2487     1.0  0.79904  0.37369  0.74540  1.0000
  H   H2488     1.0  0.67976  0.27319  0.62876  1.0000
  C   C1557     1.0  0.80263  0.41154  0.60982  1.0000
  H   H2489     1.0  0.83125  0.31675  0.82137  1.0000
  C   C1558     1.0  0.67221  0.31851  0.60140  1.0000
  H   H2490     1.0  0.81282  0.34583  0.71642  1.0000
  C   C1559     1.0  0.78053  0.35859  0.49729  1.0000
  H   H2491     1.0  0.88959  0.45924  0.56754  1.0000
  S   S638      1.0  0.87055  0.24220  0.86093  1.0000
  C   C1560     1.0  0.96495  0.24441  0.90558  1.0000
  C   C1561     1.0  0.98741  0.47461  0.92903  1.0000
  C   C1562     1.0  0.79035  0.36201  0.74580  1.0000
  H   H2492     1.0  0.92189  0.44207  0.88162  1.0000
  H   H2493     1.0  0.79836  0.43696  0.57640  1.0000
  N   N153      1.0  0.91826  0.32862  0.75164  1.0000
  C   C1563     1.0  0.93018  0.34396  0.74195  1.0000
  C   C1564     1.0  0.90091  0.33098  0.74211  1.0000
  C   C1565     1.0  0.91186  0.33044  0.77246  1.0000
  C   C1566     1.0  0.93007  0.30911  0.75009  1.0000
  H   H2494     1.0  0.92164  0.35885  0.74295  1.0000
  H   H2495     1.0  0.93520  0.34309  0.72618  1.0000
  H   H2496     1.0  0.94343  0.34257  0.74874  1.0000
  H   H2497     1.0  0.89175  0.31946  0.74888  1.0000
  H   H2498     1.0  0.89143  0.34542  0.74331  1.0000
  H   H2499     1.0  0.90517  0.33001  0.72630  1.0000
  H   H2500     1.0  0.90328  0.31875  0.78037  1.0000
  H   H2501     1.0  0.90244  0.34477  0.77429  1.0000
  H   H2502     1.0  0.92457  0.32919  0.78000  1.0000
  H   H2503     1.0  0.93552  0.30723  0.73462  1.0000
  H   H2504     1.0  0.92137  0.29721  0.75700  1.0000
  H   H2505     1.0  0.94301  0.30651  0.75763  1.0000
  H   H2506     1.0  0.98496  0.32771  0.88528  1.0000
  H   H2507     1.0  0.79090  0.34475  0.49573  1.0000
  N   N154      1.0  0.82687  0.30523  0.85208  1.0000
  C   C1567     1.0  0.83224  0.28665  0.86509  1.0000
  C   C1568     1.0  0.83491  0.30297  0.83160  1.0000
  C   C1569     1.0  0.83502  0.32098  0.85719  1.0000
  H   H2508     1.0  0.82684  0.28789  0.88072  1.0000
  H   H2509     1.0  0.84841  0.28208  0.86338  1.0000
  H   H2510     1.0  0.82603  0.27451  0.86189  1.0000
  H   H2511     1.0  0.83959  0.45445  0.61664  1.0000
  H   H2512     1.0  0.85114  0.29927  0.82940  1.0000
  H   H2513     1.0  0.82919  0.29115  0.82720  1.0000
  H   H2514     1.0  0.85125  0.31747  0.85586  1.0000
  H   H2515     1.0  0.82907  0.32339  0.87244  1.0000
  N   N155      1.0  0.94324  0.40352  0.84071  1.0000
  C   C1570     1.0  0.93301  0.40380  0.86100  1.0000
  C   C1571     1.0  0.95500  0.41956  0.83469  1.0000
  C   C1572     1.0  0.92863  0.40618  0.82767  1.0000
  C   C1573     1.0  0.95628  0.38456  0.83952  1.0000
  H   H2516     1.0  0.94347  0.40313  0.87109  1.0000
  H   H2517     1.0  0.92517  0.39106  0.86657  1.0000
  H   H2518     1.0  0.92203  0.41731  0.86219  1.0000
  H   H2519     1.0  0.94562  0.43409  0.83551  1.0000
  H   H2520     1.0  0.96620  0.41800  0.84422  1.0000
  H   H2521     1.0  0.96291  0.41986  0.81943  1.0000
  H   H2522     1.0  0.93580  0.40594  0.81223  1.0000
  H   H2523     1.0  0.91866  0.42046  0.82817  1.0000
  H   H2524     1.0  0.91936  0.39444  0.83197  1.0000
  H   H2525     1.0  0.81176  0.37172  0.71030  1.0000
  H   H2526     1.0  0.94793  0.37210  0.84399  1.0000
  H   H2527     1.0  0.96726  0.38203  0.84944  1.0000
  C   C1574     1.0  0.85523  0.48110  0.64381  1.0000
  H   H2528     1.0  0.98093  0.25604  0.86840  1.0000
  C   C1575     1.0  0.88372  0.46132  0.68475  1.0000
  C   C1576     1.0  0.66890  0.43661  0.53768  1.0000
  C   C1577     1.0  0.90208  0.48659  0.66598  1.0000
  C   C1578     1.0  0.96264  0.24873  0.78615  1.0000
  C   C1579     1.0  0.88210  0.47180  0.55896  1.0000
  H   H2529     1.0  0.81819  0.40474  0.60599  1.0000
  H   H2530     1.0  0.95744  0.25889  0.89911  1.0000
  H   H2531     1.0  0.91519  0.45071  0.51333  1.0000
  H   H2532     1.0  0.80238  0.42693  0.61145  1.0000
  H   H2533     1.0  0.79972  0.35937  0.69738  1.0000
  S   S639      1.0  0.82910  0.44666  0.76004  1.0000
  H   H2534     1.0  0.97415  0.47641  0.94043  1.0000
  H   H2535     1.0  0.76838  0.38247  0.70634  1.0000
  C   C1580     1.0  0.90912  0.47508  0.65137  1.0000
  H   H2536     1.0  0.66531  0.39090  0.58087  1.0000
  N   N156      1.0  0.78504  0.36259  0.72650  1.0000
  H   H2537     1.0  0.84038  0.45633  0.79328  1.0000
  S   S640      1.0  0.99250  0.44414  0.86491  1.0000
  C   C1581     1.0  0.77358  0.34685  0.72762  1.0000
  H   H2538     1.0  0.98599  0.48739  0.91708  1.0000
  C   C1582     1.0  0.77044  0.41927  0.60076  1.0000
  C   C1583     1.0  0.87451  0.46217  0.61968  1.0000
  S   S641      1.0  0.68395  0.32719  0.63346  1.0000
  H   H2539     1.0  0.96445  0.38384  0.82449  1.0000
  H   H2540     1.0  0.81482  0.41510  0.57122  1.0000
  H   H2541     1.0  0.78212  0.33219  0.73201  1.0000
  H   H2542     1.0  0.76937  0.34692  0.71324  1.0000
  H   H2543     1.0  0.75983  0.34855  0.73843  1.0000
  H   H2544     1.0  0.77236  0.39702  0.50033  1.0000
  C   C1584     1.0  0.87128  0.46891  0.54532  1.0000
  S   S642      1.0  0.68414  0.41893  0.59141  1.0000
  C   C1585     1.0  0.97481  0.24223  0.76978  1.0000
  C   C1586     1.0  0.79918  0.42119  0.57588  1.0000
  S   S643      1.0  0.98263  0.39967  0.90640  1.0000
  H   H2545     1.0  0.95894  0.24708  0.81730  1.0000
  C   C1587     1.0  0.80531  0.31030  0.85439  1.0000
  C   C1588     1.0  0.79195  0.38977  0.59328  1.0000
  C   C1589     1.0  0.77319  0.38175  0.72055  1.0000
  H   H2546     1.0  0.79875  0.29872  0.85052  1.0000
  H   H2547     1.0  0.97076  0.46778  0.90021  1.0000
  C   C1590     1.0  0.86189  0.48498  0.53377  1.0000
  H   H2548     1.0  0.79872  0.31201  0.86971  1.0000
  H   H2549     1.0  0.67362  0.27758  0.65347  1.0000
  H   H2550     1.0  0.84407  0.47890  0.73208  1.0000
  H   H2551     1.0  0.95856  0.45732  0.92366  1.0000
  H   H2552     1.0  0.97405  0.47665  0.84004  1.0000
  N   N157      1.0  0.85507  0.47343  0.62587  1.0000
  H   H2553     1.0  0.98004  0.29697  0.87615  1.0000
  C   C1591     1.0  0.66821  0.31875  0.62150  1.0000
  H   H2554     1.0  0.97355  0.44188  0.90734  1.0000
  H   H2555     1.0  0.99380  0.42514  0.93273  1.0000
  H   H2556     1.0  0.91883  0.48037  0.63839  1.0000
  H   H2557     1.0  0.93938  0.48807  0.83586  1.0000
  C   C1592     1.0  0.90506  0.45276  0.50262  1.0000
  H   H2558     1.0  0.82624  0.25321  0.81274  1.0000
  H   H2559     1.0  0.76581  0.35619  0.49577  1.0000
  C   C1593     1.0  0.84460  0.46719  0.78086  1.0000
  H   H2560     1.0  0.88634  0.47117  0.61758  1.0000
  N   N158      1.0  0.66962  0.24917  0.64964  1.0000
  N   N159      1.0  0.90957  0.46827  0.48592  1.0000
  H   H2561     1.0  0.77946  0.36115  0.51251  1.0000
  C   C1594     1.0  0.85309  0.48277  0.78353  1.0000
  C   C1595     1.0  0.97233  0.45579  0.91290  1.0000
  C   C1596     1.0  0.99149  0.43946  0.93789  1.0000
  H   H2562     1.0  0.88419  0.48843  0.69422  1.0000
  H   H2563     1.0  0.87533  0.45716  0.60556  1.0000
  H   H2564     1.0  0.85047  0.48465  0.59631  1.0000
  H   H2565     1.0  0.97648  0.24727  0.91286  1.0000
  H   H2566     1.0  0.91876  0.48529  0.50356  1.0000
  C   C1597     1.0  0.90841  0.48679  0.49317  1.0000
  H   H2567     1.0  0.84123  0.49068  0.64826  1.0000
  C   C1598     1.0  0.98782  0.24163  0.87565  1.0000
  C   C1599     1.0  0.96788  0.24177  0.80466  1.0000
  C   C1600     1.0  0.85049  0.48988  0.61014  1.0000
  H   H2568     1.0  0.86730  0.48977  0.64184  1.0000
  C   C1601     1.0  0.88341  0.49073  0.56151  1.0000
  C   C1602     1.0  0.77296  0.39322  0.48569  1.0000
  H   H2569     1.0  0.93716  0.67698  0.15007  1.0000
  H   H2570     1.0  0.70694  0.66399  0.20706  1.0000
  C   C1603     1.0  0.82330  0.70483  0.06698  1.0000
  C   C1604     1.0  0.67889  0.67044  0.02221  1.0000
  C   C1605     1.0  0.68873  0.71225  0.20720  1.0000
  S   S644      1.0  0.91460  0.69655  0.09306  1.0000
  H   H2571     1.0  0.67514  0.73740  0.04048  1.0000
  Fe  Fe323     1.0  0.76944  0.72429  0.06078  1.0000
  S   S645      1.0  0.76918  0.70149  0.08764  1.0000
  Fe  Fe324     1.0  0.74464  0.70286  0.04222  1.0000
  S   S646      1.0  0.74337  0.67853  0.06774  1.0000
  S   S647      1.0  0.73150  0.70238  0.01549  1.0000
  Fe  Fe325     1.0  0.73747  0.70263  0.08568  1.0000
  S   S648      1.0  0.71062  0.70618  0.10887  1.0000
  Fe  Fe326     1.0  0.77504  0.68016  0.06665  1.0000
  S   S649      1.0  0.80129  0.65660  0.06448  1.0000
  S   S650      1.0  0.73721  0.72718  0.06004  1.0000
  S   S651      1.0  0.77680  0.70282  0.03989  1.0000
  H   H2572     1.0  0.82495  0.66916  0.08879  1.0000
  H   H2573     1.0  0.67070  0.50684  0.18642  1.0000
  C   C1606     1.0  0.92646  0.63788  0.01286  1.0000
  H   H2574     1.0  0.96749  0.63135  0.13450  1.0000
  C   C1607     1.0  0.68121  0.69953  0.07783  1.0000
  H   H2575     1.0  0.92305  0.62531  0.02359  1.0000
  S   S652      1.0  0.69735  0.63590  0.17791  1.0000
  C   C1608     1.0  0.82444  0.63367  0.01520  1.0000
  S   S653      1.0  0.90384  0.62606  0.99149  1.0000
  H   H2576     1.0  0.85919  0.71437  0.06327  1.0000
  N   N160      1.0  0.69329  0.69376  0.19920  1.0000
  H   H2577     1.0  0.67376  0.54304  0.15457  1.0000
  H   H2578     1.0  0.91886  0.67818  0.13520  1.0000
  C   C1609     1.0  0.70663  0.68566  0.12678  1.0000
  C   C1610     1.0  0.68799  0.68509  0.13811  1.0000
  C   C1611     1.0  0.68465  0.66930  0.15316  1.0000
  C   C1612     1.0  0.70012  0.65432  0.15733  1.0000
  C   C1613     1.0  0.71865  0.65474  0.14573  1.0000
  C   C1614     1.0  0.72188  0.67029  0.13036  1.0000
  H   H2579     1.0  0.81292  0.69625  0.06388  1.0000
  H   H2580     1.0  0.67670  0.68800  0.07185  1.0000
  H   H2581     1.0  0.73066  0.64316  0.14886  1.0000
  H   H2582     1.0  0.73630  0.67063  0.12166  1.0000
  C   C1615     1.0  0.71203  0.68899  0.01796  1.0000
  C   C1616     1.0  0.70286  0.68965  0.00188  1.0000
  C   C1617     1.0  0.68643  0.68028  0.00394  1.0000
  Fe  Fe327     1.0  0.94471  0.68920  0.07571  1.0000
  C   C1618     1.0  0.66615  0.59523  0.07549  1.0000
  C   C1619     1.0  0.70496  0.67839  0.03596  1.0000
  H   H2583     1.0  0.70225  0.71705  0.20914  1.0000
  S   S654      1.0  0.99654  0.67604  0.04560  1.0000
  H   H2584     1.0  0.68046  0.52810  0.18786  1.0000
  H   H2585     1.0  0.71198  0.67749  0.04837  1.0000
  C   C1620     1.0  0.80375  0.64761  0.04251  1.0000
  C   C1621     1.0  0.78737  0.64904  0.03361  1.0000
  C   C1622     1.0  0.78948  0.64253  0.01570  1.0000
  C   C1623     1.0  0.80804  0.63500  0.00638  1.0000
  C   C1624     1.0  0.82227  0.63976  0.03334  1.0000
  H   H2586     1.0  0.77303  0.65503  0.04060  1.0000
  H   H2587     1.0  0.77673  0.64355  0.00901  1.0000
  H   H2588     1.0  0.83498  0.63857  0.04015  1.0000
  H   H2589     1.0  0.94515  0.64599  0.02967  1.0000
  C   C1625     1.0  0.91251  0.71867  0.10174  1.0000
  H   H2590     1.0  0.80353  0.68057  0.00977  1.0000
  H   H2591     1.0  0.68194  0.62009  0.03069  1.0000
  H   H2592     1.0  0.82800  0.67589  0.99697  1.0000
  H   H2593     1.0  0.84811  0.66843  0.09606  1.0000
  N   N161      1.0  0.84098  0.69197  0.07301  1.0000
  H   H2594     1.0  0.68854  0.57601  0.04755  1.0000
  H   H2595     1.0  0.91180  0.49887  0.48100  1.0000
  C   C1626     1.0  0.92926  0.72517  0.10411  1.0000
  S   S655      1.0  0.66962  0.73726  0.33386  1.0000
  H   H2596     1.0  0.93221  0.64319  0.16569  1.0000
  H   H2597     1.0  0.69751  0.69735  0.07525  1.0000
  H   H2598     1.0  0.93417  0.62476  0.15082  1.0000
  H   H2599     1.0  0.67910  0.71069  0.22174  1.0000
  S   S656      1.0  0.95612  0.70862  0.04868  1.0000
  H   H2600     1.0  0.67767  0.67332  0.19255  1.0000
  H   H2601     1.0  0.92152  0.65279  0.11493  1.0000
  C   C1627     1.0  0.70360  0.67823  0.21257  1.0000
  H   H2602     1.0  0.94548  0.65737  0.10375  1.0000
  H   H2603     1.0  0.86800  0.69482  0.08130  1.0000
  C   C1628     1.0  0.96214  0.64701  0.13587  1.0000
  H   H2604     1.0  0.91377  0.64444  0.15104  1.0000
  C   C1629     1.0  0.81515  0.68757  0.99937  1.0000
  C   C1630     1.0  0.94392  0.66568  0.00248  1.0000
  H   H2605     1.0  0.67612  0.69692  0.13530  1.0000
  H   H2606     1.0  0.67919  0.68128  0.99158  1.0000
  C   C1631     1.0  0.93895  0.64964  0.01639  1.0000
  H   H2607     1.0  0.82701  0.71555  0.05359  1.0000
  H   H2608     1.0  0.82756  0.68652  0.10315  1.0000
  H   H2609     1.0  0.68105  0.68871  0.26416  1.0000
  H   H2610     1.0  0.71972  0.70162  0.18081  1.0000
  S   S657      1.0  0.97208  0.68494  0.08841  1.0000
  H   H2611     1.0  0.81524  0.71339  0.07857  1.0000
  H   H2612     1.0  0.84741  0.71292  0.08826  1.0000
  C   C1632     1.0  0.89404  0.72979  0.10657  1.0000
  H   H2613     1.0  0.83880  0.62769  0.00818  1.0000
  S   S658      1.0  0.99220  0.63098  0.09245  1.0000
  N   N162      1.0  0.94098  0.65247  0.13496  1.0000
  C   C1633     1.0  0.67853  0.73407  0.07797  1.0000
  H   H2614     1.0  0.86431  0.67075  0.06140  1.0000
  C   C1634     1.0  0.68837  0.66940  0.03811  1.0000
  C   C1635     1.0  0.93469  0.67348  0.13620  1.0000
  H   H2615     1.0  0.88102  0.72481  0.10486  1.0000
  H   H2616     1.0  0.94210  0.63303  0.11466  1.0000
  H   H2617     1.0  0.68273  0.66176  0.05226  1.0000
  Fe  Fe328     1.0  0.96677  0.68074  0.03616  1.0000
  S   S659      1.0  0.95326  0.66180  0.06258  1.0000
  C   C1636     1.0  0.92978  0.64068  0.15138  1.0000
  C   C1637     1.0  0.91847  0.64218  0.99556  1.0000
  H   H2618     1.0  0.67617  0.71190  0.04018  1.0000
  H   H2619     1.0  0.84105  0.67124  0.05442  1.0000
  C   C1638     1.0  0.85085  0.68059  0.05738  1.0000
  H   H2620     1.0  0.67479  0.58759  0.02839  1.0000
  S   S660      1.0  0.96065  0.68005  0.00591  1.0000
  H   H2621     1.0  0.85531  0.69033  0.04348  1.0000
  H   H2622     1.0  0.94280  0.68282  0.12400  1.0000
  H   H2623     1.0  0.94355  0.71676  0.10046  1.0000
  C   C1639     1.0  0.93729  0.64866  0.11634  1.0000
  Fe  Fe329     1.0  0.98450  0.70245  0.06043  1.0000
  H   H2624     1.0  0.97104  0.65565  0.12370  1.0000
  C   C1640     1.0  0.85447  0.70402  0.07663  1.0000
  H   H2625     1.0  0.77856  0.70554  0.99466  1.0000
  H   H2626     1.0  0.81947  0.69825  0.00670  1.0000
  H   H2627     1.0  0.96555  0.64951  0.14977  1.0000
  C   C1641     1.0  0.83517  0.67842  0.09107  1.0000
  C   C1642     1.0  0.66672  0.52176  0.19042  1.0000
  C   C1643     1.0  0.67386  0.58363  0.04454  1.0000
  H   H2628     1.0  0.67339  0.73187  0.09405  1.0000
  Fe  Fe330     1.0  0.98186  0.65905  0.07313  1.0000
  C   C1644     1.0  0.67488  0.68794  0.19707  1.0000
  H   H2629     1.0  0.67023  0.66894  0.16174  1.0000
  C   C1645     1.0  0.70600  0.69654  0.17991  1.0000
  H   H2630     1.0  0.71038  0.68264  0.17388  1.0000
  H   H2631     1.0  0.69624  0.60841  0.04941  1.0000
  H   H2632     1.0  0.69847  0.70748  0.16905  1.0000
  C   C1646     1.0  0.68120  0.61503  0.04670  1.0000
  H   H2633     1.0  0.71772  0.68197  0.21427  1.0000
  S   S661      1.0  0.67056  0.72095  0.28479  1.0000
  Fe  Fe331     1.0  0.66826  0.63487  0.19786  1.0000
  H   H2634     1.0  0.69464  0.67586  0.22735  1.0000
  H   H2635     1.0  0.66740  0.69854  0.18597  1.0000
  H   H2636     1.0  0.79431  0.72329  0.99240  1.0000
  C   C1647     1.0  0.68060  0.72242  0.04767  1.0000
  H   H2637     1.0  0.69692  0.72044  0.04477  1.0000
  S   S662      1.0  0.99687  0.72772  0.06634  1.0000
  H   H2638     1.0  0.66408  0.52178  0.15300  1.0000
  N   N163      1.0  0.67292  0.71932  0.06884  1.0000
  H   H2639     1.0  0.68096  0.72424  0.19741  1.0000
  C   C1648     1.0  0.66589  0.69470  0.26315  1.0000
  S   S663      1.0  0.66560  0.64036  0.22850  1.0000
  H   H2640     1.0  0.69472  0.73306  0.07579  1.0000
  H   H2641     1.0  0.70820  0.69778  0.98786  1.0000
  H   H2642     1.0  0.67640  0.69697  0.09395  1.0000
  H   H2643     1.0  0.67667  0.62834  0.05372  1.0000
  H   H2644     1.0  0.68071  0.58818  0.07934  1.0000
  N   N164      1.0  0.66723  0.60109  0.05415  1.0000
  H   H2645     1.0  0.66432  0.68707  0.21101  1.0000
  Fe  Fe332     1.0  0.87508  0.61357  0.93612  1.0000
  S   S664      1.0  0.89155  0.63794  0.93616  1.0000
  S   S665      1.0  0.89002  0.58906  0.91911  1.0000
  Fe  Fe333     1.0  0.84147  0.62805  0.96724  1.0000
  H   H2646     1.0  0.83145  0.54934  0.77779  1.0000
  N   N165      1.0  0.95628  0.72143  0.64563  1.0000
  Fe  Fe334     1.0  0.86185  0.65675  0.93726  1.0000
  S   S666      1.0  0.85277  0.68769  0.92337  1.0000
  H   H2647     1.0  0.81557  0.67076  0.96833  1.0000
  H   H2648     1.0  0.80903  0.56201  0.76991  1.0000
  S   S667      1.0  0.84607  0.63304  0.93456  1.0000
  C   C1649     1.0  0.95112  0.71222  0.63072  1.0000
  Fe  Fe335     1.0  0.78006  0.67299  0.86283  1.0000
  S   S668      1.0  0.79391  0.64157  0.86913  1.0000
  S   S669      1.0  0.78628  0.69951  0.87204  1.0000
  Fe  Fe336     1.0  0.74859  0.66422  0.84365  1.0000
  S   S670      1.0  0.75932  0.63182  0.84837  1.0000
  S   S671      1.0  0.72560  0.68045  0.82570  1.0000
  Fe  Fe337     1.0  0.76304  0.63589  0.87794  1.0000
  S   S672      1.0  0.75559  0.61573  0.90595  1.0000
  Fe  Fe338     1.0  0.78940  0.63995  0.83899  1.0000
  S   S673      1.0  0.81095  0.62140  0.81940  1.0000
  S   S674      1.0  0.74940  0.66749  0.87422  1.0000
  S   S675      1.0  0.77850  0.67199  0.83177  1.0000
  H   H2649     1.0  0.81967  0.71319  0.95316  1.0000
  N   N166      1.0  0.94100  0.59609  0.94997  1.0000
  H   H2650     1.0  0.87450  0.52147  0.55212  1.0000
  H   H2651     1.0  0.79760  0.68903  0.95768  1.0000
  C   C1650     1.0  0.96941  0.70690  0.65717  1.0000
  H   H2652     1.0  0.89379  0.64290  0.79454  1.0000
  H   H2653     1.0  0.96135  0.58088  0.96888  1.0000
  H   H2654     1.0  0.86377  0.57870  0.74064  1.0000
  H   H2655     1.0  0.83596  0.49881  0.61422  1.0000
  H   H2656     1.0  0.80999  0.58925  0.74146  1.0000
  C   C1651     1.0  0.92392  0.58930  0.96344  1.0000
  Fe  Fe339     1.0  0.90214  0.51935  0.59118  1.0000
  S   S676      1.0  0.92957  0.51447  0.60471  1.0000
  H   H2657     1.0  0.78601  0.62090  0.92910  1.0000
  Fe  Fe340     1.0  0.88678  0.55762  0.60740  1.0000
  S   S677      1.0  0.91255  0.55524  0.62212  1.0000
  S   S678      1.0  0.86490  0.58437  0.61302  1.0000
  Fe  Fe341     1.0  0.93024  0.54668  0.59447  1.0000
  S   S679      1.0  0.95616  0.56205  0.58018  1.0000
  Fe  Fe342     1.0  0.90934  0.52375  0.63113  1.0000
  S   S680      1.0  0.90450  0.55101  0.57870  1.0000
  S   S681      1.0  0.88204  0.52667  0.61857  1.0000
  Fe  Fe343     1.0  0.87984  0.51932  0.79757  1.0000
  H   H2658     1.0  0.92538  0.58830  0.97899  1.0000
  S   S682      1.0  0.86706  0.51806  0.77073  1.0000
  Fe  Fe344     1.0  0.87927  0.54307  0.83048  1.0000
  S   S683      1.0  0.90888  0.52763  0.83620  1.0000
  S   S684      1.0  0.86307  0.56894  0.84532  1.0000
  Fe  Fe345     1.0  0.91717  0.53106  0.80366  1.0000
  S   S685      1.0  0.94575  0.54087  0.78953  1.0000
  H   H2659     1.0  0.83749  0.69541  0.96439  1.0000
  S   S686      1.0  0.88834  0.54839  0.79785  1.0000
  S   S687      1.0  0.86766  0.51559  0.82980  1.0000
  Fe  Fe346     1.0  0.87421  0.65049  0.72209  1.0000
  S   S688      1.0  0.90349  0.65848  0.70744  1.0000
  S   S689      1.0  0.85587  0.66827  0.74418  1.0000
  Fe  Fe347     1.0  0.87964  0.61565  0.70182  1.0000
  S   S690      1.0  0.90930  0.62047  0.68541  1.0000
  S   S691      1.0  0.86865  0.58840  0.70025  1.0000
  Fe  Fe348     1.0  0.91431  0.62636  0.71373  1.0000
  S   S692      1.0  0.94306  0.61563  0.72405  1.0000
  Fe  Fe349     1.0  0.89574  0.65211  0.68039  1.0000
  S   S693      1.0  0.90378  0.67016  0.65085  1.0000
  S   S694      1.0  0.88581  0.61885  0.73079  1.0000
  S   S695      1.0  0.86530  0.64679  0.69442  1.0000
  C   C1652     1.0  0.94468  0.56121  0.77089  1.0000
  C   C1653     1.0  0.96017  0.57192  0.76601  1.0000
  C   C1654     1.0  0.95958  0.58851  0.75149  1.0000
  C   C1655     1.0  0.94357  0.59438  0.74165  1.0000
  C   C1656     1.0  0.92828  0.58336  0.74608  1.0000
  C   C1657     1.0  0.92876  0.56685  0.76082  1.0000
  H   H2660     1.0  0.97256  0.56749  0.77366  1.0000
  H   H2661     1.0  0.97150  0.59688  0.74803  1.0000
  H   H2662     1.0  0.91623  0.58743  0.73806  1.0000
  H   H2663     1.0  0.91705  0.55829  0.76417  1.0000
  C   C1658     1.0  0.86322  0.58555  0.63784  1.0000
  C   C1659     1.0  0.86803  0.56846  0.65089  1.0000
  C   C1660     1.0  0.86896  0.56941  0.67021  1.0000
  C   C1661     1.0  0.86575  0.58752  0.67644  1.0000
  C   C1662     1.0  0.86060  0.60466  0.66355  1.0000
  C   C1663     1.0  0.85884  0.60362  0.64438  1.0000
  H   H2664     1.0  0.87117  0.55443  0.64608  1.0000
  H   H2665     1.0  0.87275  0.55608  0.68008  1.0000
  H   H2666     1.0  0.85781  0.61869  0.66838  1.0000
  H   H2667     1.0  0.85465  0.61682  0.63448  1.0000
  H   H2668     1.0  0.97210  0.58681  0.94369  1.0000
  H   H2669     1.0  0.97185  0.63252  0.65967  1.0000
  H   H2670     1.0  0.72200  0.72531  0.86770  1.0000
  S   S696      1.0  0.90961  0.50236  0.80126  1.0000
  C   C1664     1.0  0.98159  0.59745  0.61433  1.0000
  C   C1665     1.0  0.85791  0.49728  0.76772  1.0000
  C   C1666     1.0  0.97704  0.58989  0.58363  1.0000
  C   C1667     1.0  0.96589  0.57542  0.59363  1.0000
  C   C1668     1.0  0.96255  0.57206  0.61405  1.0000
  C   C1669     1.0  0.97048  0.58294  0.62434  1.0000
  C   C1670     1.0  0.67311  0.71520  0.83249  1.0000
  H   H2671     1.0  0.98817  0.59960  0.67192  1.0000
  H   H2672     1.0  0.95419  0.56079  0.62191  1.0000
  H   H2673     1.0  0.96800  0.58007  0.64012  1.0000
  C   C1671     1.0  0.93823  0.72843  0.65863  1.0000
  C   C1672     1.0  0.88136  0.72180  0.66936  1.0000
  C   C1673     1.0  0.88636  0.70175  0.66859  1.0000
  C   C1674     1.0  0.89697  0.69535  0.65154  1.0000
  C   C1675     1.0  0.90243  0.70916  0.63515  1.0000
  S   S697      1.0  0.81060  0.62821  0.98330  1.0000
  Fe  Fe350     1.0  0.88378  0.63147  0.96886  1.0000
  H   H2674     1.0  0.88185  0.69126  0.68121  1.0000
  H   H2675     1.0  0.91048  0.70425  0.62184  1.0000
  H   H2676     1.0  0.94156  0.73483  0.67052  1.0000
  C   C1676     1.0  0.96637  0.73812  0.63593  1.0000
  H   H2677     1.0  0.95788  0.56724  0.95125  1.0000
  C   C1677     1.0  0.96943  0.72427  0.58100  1.0000
  C   C1678     1.0  0.82253  0.63482  0.79822  1.0000
  C   C1679     1.0  0.82402  0.65439  0.79746  1.0000
  C   C1680     1.0  0.83403  0.66463  0.78065  1.0000
  C   C1681     1.0  0.84262  0.65533  0.76459  1.0000
  C   C1682     1.0  0.84100  0.63576  0.76529  1.0000
  C   C1683     1.0  0.83101  0.62552  0.78213  1.0000
  H   H2678     1.0  0.81781  0.66157  0.80993  1.0000
  H   H2679     1.0  0.83531  0.67975  0.78016  1.0000
  H   H2680     1.0  0.84728  0.62863  0.75282  1.0000
  H   H2681     1.0  0.82987  0.61037  0.78281  1.0000
  C   C1684     1.0  0.70280  0.69187  0.83655  1.0000
  C   C1685     1.0  0.69532  0.68682  0.85635  1.0000
  H   H2682     1.0  0.78700  0.62036  0.95438  1.0000
  N   N167      1.0  0.80827  0.69710  0.98087  1.0000
  H   H2683     1.0  0.91722  0.66179  0.96827  1.0000
  C   C1686     1.0  0.69170  0.70617  0.82472  1.0000
  H   H2684     1.0  0.70381  0.67577  0.86560  1.0000
  H   H2685     1.0  0.84476  0.54250  0.74429  1.0000
  H   H2686     1.0  0.87312  0.72659  0.68265  1.0000
  Fe  Fe351     1.0  0.89832  0.50050  0.83340  1.0000
  C   C1687     1.0  0.73033  0.62200  0.91343  1.0000
  C   C1688     1.0  0.72176  0.61715  0.93297  1.0000
  C   C1689     1.0  0.70167  0.62342  0.93891  1.0000
  C   C1690     1.0  0.69026  0.63438  0.92523  1.0000
  C   C1691     1.0  0.69885  0.63895  0.90571  1.0000
  C   C1692     1.0  0.71882  0.63278  0.89982  1.0000
  H   H2687     1.0  0.73061  0.60873  0.94352  1.0000
  H   H2688     1.0  0.69502  0.61976  0.95399  1.0000
  H   H2689     1.0  0.69002  0.64731  0.89510  1.0000
  H   H2690     1.0  0.72523  0.63625  0.88465  1.0000
  C   C1693     1.0  0.88222  0.58397  0.89853  1.0000
  C   C1694     1.0  0.89115  0.56678  0.89109  1.0000
  C   C1695     1.0  0.88552  0.56210  0.87478  1.0000
  C   C1696     1.0  0.87099  0.57468  0.86555  1.0000
  C   C1697     1.0  0.86219  0.59203  0.87281  1.0000
  C   C1698     1.0  0.86767  0.59662  0.88930  1.0000
  H   H2691     1.0  0.90241  0.55689  0.89808  1.0000
  H   H2692     1.0  0.89235  0.54864  0.86950  1.0000
  H   H2693     1.0  0.85116  0.60206  0.86564  1.0000
  H   H2694     1.0  0.86083  0.61001  0.89473  1.0000
  C   C1699     1.0  0.83468  0.69053  0.90875  1.0000
  C   C1700     1.0  0.83261  0.67531  0.89964  1.0000
  C   C1701     1.0  0.81779  0.67790  0.88828  1.0000
  C   C1702     1.0  0.80507  0.69571  0.88599  1.0000
  C   C1703     1.0  0.80726  0.71094  0.89497  1.0000
  C   C1704     1.0  0.82205  0.70837  0.90627  1.0000
  H   H2695     1.0  0.84285  0.66181  0.90077  1.0000
  H   H2696     1.0  0.81655  0.66628  0.88094  1.0000
  H   H2697     1.0  0.79761  0.72482  0.89307  1.0000
  H   H2698     1.0  0.82379  0.72028  0.91300  1.0000
  S   S698      1.0  0.90809  0.51009  0.66274  1.0000
  C   C1705     1.0  0.95117  0.73620  0.58080  1.0000
  H   H2699     1.0  0.82310  0.60138  0.75353  1.0000
  S   S699      1.0  0.97145  0.69950  0.57933  1.0000
  H   H2700     1.0  0.85402  0.58386  0.76475  1.0000
  H   H2701     1.0  0.86831  0.64078  0.80230  1.0000
  S   S700      1.0  0.99091  0.61101  0.62789  1.0000
  H   H2702     1.0  0.66942  0.67689  0.78858  1.0000
  H   H2703     1.0  0.67054  0.69137  0.87924  1.0000
  S   S701      1.0  0.98901  0.66597  0.62338  1.0000
  H   H2704     1.0  0.72929  0.70604  0.85336  1.0000
  H   H2705     1.0  0.90201  0.73989  0.62340  1.0000
  C   C1706     1.0  0.87365  0.50682  0.55031  1.0000
  H   H2706     1.0  0.97967  0.59260  0.56783  1.0000
  H   H2707     1.0  0.71971  0.73029  0.82467  1.0000
  H   H2708     1.0  0.94124  0.72273  0.62168  1.0000
  N   N168      1.0  0.74182  0.73200  0.84090  1.0000
  H   H2709     1.0  0.93983  0.68225  0.97421  1.0000
  H   H2710     1.0  0.75224  0.70995  0.82260  1.0000
  C   C1707     1.0  0.66849  0.65917  0.82592  1.0000
  H   H2711     1.0  0.69752  0.71031  0.80944  1.0000
  H   H2712     1.0  0.77006  0.71418  0.83564  1.0000
  H   H2713     1.0  0.82836  0.71783  0.97379  1.0000
  H   H2714     1.0  0.84499  0.56217  0.72400  1.0000
  H   H2715     1.0  0.83306  0.59625  0.72940  1.0000
  H   H2716     1.0  0.96217  0.69419  0.66484  1.0000
  H   H2717     1.0  0.92972  0.71638  0.66551  1.0000
  H   H2718     1.0  0.79302  0.67124  0.93014  1.0000
  C   C1708     1.0  0.90610  0.60535  0.78927  1.0000
  C   C1709     1.0  0.89066  0.61074  0.82181  1.0000
  H   H2719     1.0  0.95917  0.63496  0.68387  1.0000
  H   H2720     1.0  0.87546  0.58704  0.80600  1.0000
  H   H2721     1.0  0.91848  0.61281  0.78978  1.0000
  H   H2722     1.0  0.91055  0.58943  0.79438  1.0000
  H   H2723     1.0  0.90241  0.61857  0.82328  1.0000
  H   H2724     1.0  0.89483  0.59499  0.82782  1.0000
  H   H2725     1.0  0.87699  0.61628  0.83135  1.0000
  N   N169      1.0  0.91119  0.53390  0.71078  1.0000
  C   C1710     1.0  0.92512  0.51540  0.71010  1.0000
  C   C1711     1.0  0.91553  0.54768  0.69247  1.0000
  C   C1712     1.0  0.91301  0.54262  0.72755  1.0000
  C   C1713     1.0  0.89103  0.52983  0.71305  1.0000
  H   H2726     1.0  0.79113  0.67486  0.98147  1.0000
  H   H2727     1.0  0.94052  0.51784  0.70836  1.0000
  H   H2728     1.0  0.92404  0.50843  0.69761  1.0000
  H   H2729     1.0  0.90536  0.56183  0.69253  1.0000
  H   H2730     1.0  0.93073  0.55087  0.69013  1.0000
  H   H2731     1.0  0.91397  0.54166  0.67954  1.0000
  H   H2732     1.0  0.90283  0.55672  0.72830  1.0000
  H   H2733     1.0  0.92814  0.54563  0.72653  1.0000
  H   H2734     1.0  0.90951  0.53271  0.74165  1.0000
  H   H2735     1.0  0.88013  0.54346  0.71358  1.0000
  H   H2736     1.0  0.88737  0.51949  0.72676  1.0000
  H   H2737     1.0  0.88914  0.52317  0.70066  1.0000
  H   H2738     1.0  0.91028  0.59963  0.96114  1.0000
  H   H2739     1.0  0.86941  0.60436  0.78502  1.0000
  H   H2740     1.0  0.97400  0.71337  0.66833  1.0000
  H   H2741     1.0  0.92960  0.62648  0.95103  1.0000
  H   H2742     1.0  0.80354  0.64989  0.94541  1.0000
  C   C1714     1.0  0.88231  0.63438  0.79381  1.0000
  C   C1715     1.0  0.75760  0.72146  0.82793  1.0000
  H   H2743     1.0  0.88020  0.63685  0.77827  1.0000
  C   C1716     1.0  0.86304  0.50393  0.53645  1.0000
  H   H2744     1.0  0.90448  0.60720  0.77367  1.0000
  H   H2745     1.0  0.76194  0.74023  0.85581  1.0000
  C   C1717     1.0  0.87193  0.60286  0.80028  1.0000
  C   C1718     1.0  0.97297  0.63716  0.67351  1.0000
  H   H2746     1.0  0.85790  0.60841  0.80931  1.0000
  C   C1719     1.0  0.92317  0.65836  0.98170  1.0000
  H   H2747     1.0  0.85790  0.50698  0.73685  1.0000
  H   H2748     1.0  0.86306  0.55913  0.76094  1.0000
  H   H2749     1.0  0.80309  0.64921  0.92037  1.0000
  C   C1720     1.0  0.82409  0.70633  0.96752  1.0000
  H   H2750     1.0  0.85577  0.51648  0.52766  1.0000
  C   C1721     1.0  0.94295  0.61559  0.95335  1.0000
  H   H2751     1.0  0.76396  0.62122  0.94665  1.0000
  S   S702      1.0  0.86878  0.60602  0.96892  1.0000
  C   C1722     1.0  0.67646  0.69564  0.86405  1.0000
  H   H2752     1.0  0.92216  0.50464  0.72366  1.0000
  N   N170      1.0  0.88778  0.61336  0.80129  1.0000
  H   H2753     1.0  0.95563  0.62130  0.94344  1.0000
  H   H2754     1.0  0.93877  0.73026  0.57886  1.0000
  H   H2755     1.0  0.98302  0.70118  0.64766  1.0000
  H   H2756     1.0  0.78556  0.71993  0.97131  1.0000
  C   C1723     1.0  0.98892  0.60489  0.68554  1.0000
  H   H2757     1.0  0.94494  0.61519  0.96866  1.0000
  C   C1724     1.0  0.88717  0.73560  0.65321  1.0000
  C   C1725     1.0  0.66515  0.70961  0.85201  1.0000
  C   C1726     1.0  0.73447  0.71806  0.85796  1.0000
  N   N171      1.0  0.91383  0.61990  0.61273  1.0000
  C   C1727     1.0  0.93093  0.62994  0.61021  1.0000
  C   C1728     1.0  0.91282  0.60594  0.63125  1.0000
  C   C1729     1.0  0.91574  0.60919  0.59631  1.0000
  C   C1730     1.0  0.89577  0.63454  0.61319  1.0000
  H   H2758     1.0  0.93225  0.64054  0.59633  1.0000
  H   H2759     1.0  0.94481  0.61934  0.60983  1.0000
  H   H2760     1.0  0.92985  0.63820  0.62237  1.0000
  H   H2761     1.0  0.92638  0.59490  0.63152  1.0000
  H   H2762     1.0  0.91085  0.61355  0.64400  1.0000
  H   H2763     1.0  0.90034  0.59779  0.63338  1.0000
  H   H2764     1.0  0.90299  0.60151  0.59777  1.0000
  H   H2765     1.0  0.92909  0.59786  0.59562  1.0000
  H   H2766     1.0  0.91674  0.61917  0.58203  1.0000
  H   H2767     1.0  0.88267  0.62752  0.61441  1.0000
  H   H2768     1.0  0.89630  0.64566  0.59968  1.0000
  H   H2769     1.0  0.89351  0.64248  0.62581  1.0000
  N   N172      1.0  0.83515  0.57116  0.75212  1.0000
  C   C1731     1.0  0.85486  0.57332  0.75473  1.0000
  C   C1732     1.0  0.82398  0.56387  0.77126  1.0000
  C   C1733     1.0  0.83688  0.55709  0.73868  1.0000
  C   C1734     1.0  0.82485  0.59035  0.74381  1.0000
  H   H2770     1.0  0.82225  0.55493  0.73663  1.0000
  S   S703      1.0  0.85583  0.65269  0.96988  1.0000
  H   H2771     1.0  0.66416  0.69502  0.80423  1.0000
  C   C1735     1.0  0.98545  0.73204  0.58339  1.0000
  C   C1736     1.0  0.95889  0.58211  0.95359  1.0000
  H   H2772     1.0  0.82241  0.57407  0.78183  1.0000
  H   H2773     1.0  0.96436  0.70685  0.62058  1.0000
  H   H2774     1.0  0.94356  0.69946  0.63744  1.0000
  C   C1737     1.0  0.98474  0.60098  0.59392  1.0000
  C   C1738     1.0  0.89767  0.72930  0.63601  1.0000
  N   N173      1.0  0.80544  0.57466  0.87983  1.0000
  C   C1739     1.0  0.80744  0.58597  0.89461  1.0000
  C   C1740     1.0  0.80953  0.58625  0.86015  1.0000
  C   C1741     1.0  0.78524  0.57032  0.88332  1.0000
  C   C1742     1.0  0.81949  0.55618  0.88123  1.0000
  H   H2775     1.0  0.82253  0.58948  0.89242  1.0000
  H   H2776     1.0  0.80433  0.57771  0.90966  1.0000
  H   H2777     1.0  0.79710  0.60004  0.89389  1.0000
  H   H2778     1.0  0.82445  0.59027  0.85705  1.0000
  H   H2779     1.0  0.80872  0.57805  0.84850  1.0000
  H   H2780     1.0  0.79893  0.60007  0.85842  1.0000
  H   H2781     1.0  0.77430  0.58401  0.88229  1.0000
  H   H2782     1.0  0.78149  0.56177  0.89813  1.0000
  H   H2783     1.0  0.78323  0.56177  0.87244  1.0000
  H   H2784     1.0  0.81645  0.54674  0.89566  1.0000
  H   H2785     1.0  0.83480  0.55898  0.87935  1.0000
  H   H2786     1.0  0.81907  0.54765  0.86970  1.0000
  N   N174      1.0  0.77530  0.64837  0.93926  1.0000
  C   C1743     1.0  0.76487  0.65544  0.95744  1.0000
  C   C1744     1.0  0.76361  0.65622  0.92346  1.0000
  C   C1745     1.0  0.77821  0.62676  0.94252  1.0000
  C   C1746     1.0  0.79456  0.65501  0.93359  1.0000
  H   H2787     1.0  0.77321  0.64950  0.96972  1.0000
  H   H2788     1.0  0.75021  0.65075  0.96199  1.0000
  H   H2789     1.0  0.76255  0.67167  0.95562  1.0000
  H   H2790     1.0  0.77115  0.65114  0.90958  1.0000
  H   H2791     1.0  0.74903  0.65132  0.92708  1.0000
  H   H2792     1.0  0.76114  0.67250  0.92054  1.0000
  C   C1747     1.0  0.80285  0.68231  0.97166  1.0000
  H   H2793     1.0  0.76354  0.73149  0.81488  1.0000
  C   C1748     1.0  0.93817  0.59730  0.92960  1.0000
  H   H2794     1.0  0.97554  0.60185  0.69617  1.0000
  H   H2795     1.0  0.95075  0.60235  0.91894  1.0000
  H   H2796     1.0  0.97782  0.63059  0.71094  1.0000
  H   H2797     1.0  0.66430  0.64776  0.83850  1.0000
  H   H2798     1.0  0.74613  0.71122  0.86683  1.0000
  H   H2799     1.0  0.67477  0.66978  0.83162  1.0000
  C   C1749     1.0  0.93600  0.66993  0.98509  1.0000
  H   H2800     1.0  0.92174  0.57475  0.96122  1.0000
  H   H2801     1.0  0.68047  0.65204  0.81559  1.0000
  H   H2802     1.0  0.92473  0.60766  0.92641  1.0000
  H   H2803     1.0  0.93632  0.58290  0.92665  1.0000
  H   H2804     1.0  0.97356  0.65310  0.67024  1.0000
  H   H2805     1.0  0.97996  0.73334  0.62590  1.0000
  C   C1750     1.0  0.85459  0.49576  0.74916  1.0000
  S   S704      1.0  0.89757  0.49321  0.57877  1.0000
  N   N175      1.0  0.99034  0.62596  0.68166  1.0000
  C   C1751     1.0  0.99124  0.63252  0.69998  1.0000
  H   H2806     1.0  0.66500  0.72658  0.82333  1.0000
  Fe  Fe352     1.0  0.99619  0.67943  0.59201  1.0000
  H   H2807     1.0  0.86163  0.49979  0.60677  1.0000
  S   S705      1.0  0.66526  0.64275  0.93183  1.0000
  H   H2808     1.0  0.99264  0.64829  0.69740  1.0000
  H   H2809     1.0  0.99326  0.61211  0.58603  1.0000
  H   H2810     1.0  0.92837  0.73998  0.65045  1.0000
  C   C1752     1.0  0.79093  0.71213  0.98496  1.0000
  H   H2811     1.0  0.89343  0.49147  0.50108  1.0000
  H   H2812     1.0  0.74700  0.81972  0.34154  1.0000
  H   H2813     1.0  0.76650  0.82925  0.34737  1.0000
  H   H2814     1.0  0.79096  0.80764  0.36526  1.0000
  Fe  Fe353     1.0  0.83626  0.79945  0.12013  1.0000
  S   S706      1.0  0.85250  0.79650  0.14530  1.0000
  S   S707      1.0  0.80991  0.78456  0.12162  1.0000
  Fe  Fe354     1.0  0.86001  0.82978  0.09498  1.0000
  S   S708      1.0  0.87865  0.82892  0.11733  1.0000
  S   S709      1.0  0.85973  0.85111  0.06704  1.0000
  Fe  Fe355     1.0  0.87910  0.79641  0.12172  1.0000
  Fe  Fe356     1.0  0.85079  0.82939  0.13896  1.0000
  S   S710      1.0  0.83969  0.85280  0.15844  1.0000
  S   S711      1.0  0.86304  0.79731  0.09710  1.0000
  S   S712      1.0  0.83199  0.83220  0.11607  1.0000
  H   H2815     1.0  0.90789  0.85985  0.10109  1.0000
  S   S713      1.0  0.96405  0.90831  0.05973  1.0000
  S   S714      1.0  0.94249  0.90611  0.11243  1.0000
  Fe  Fe357     1.0  0.95997  0.88102  0.05072  1.0000
  S   S715      1.0  0.93858  0.88380  0.03043  1.0000
  S   S716      1.0  0.95669  0.86416  0.08100  1.0000
  Fe  Fe358     1.0  0.87963  0.93333  0.44589  1.0000
  C   C1753     1.0  0.87180  0.88116  0.10737  1.0000
  Fe  Fe359     1.0  0.86450  0.91514  0.22736  1.0000
  S   S717      1.0  0.83346  0.92879  0.22505  1.0000
  S   S718      1.0  0.88194  0.89403  0.20713  1.0000
  Fe  Fe360     1.0  0.86513  0.93604  0.26168  1.0000
  S   S719      1.0  0.83393  0.95054  0.26204  1.0000
  S   S720      1.0  0.88011  0.94228  0.28485  1.0000
  Fe  Fe361     1.0  0.82807  0.92172  0.25783  1.0000
  S   S721      1.0  0.79959  0.91096  0.27170  1.0000
  Fe  Fe362     1.0  0.84232  0.95609  0.22964  1.0000
  H   H2816     1.0  0.87942  0.89483  0.36804  1.0000
  S   S722      1.0  0.85869  0.90629  0.26013  1.0000
  S   S723      1.0  0.87403  0.94338  0.22921  1.0000
  H   H2817     1.0  0.70340  0.82384  0.33280  1.0000
  H   H2818     1.0  0.94442  0.97612  0.05762  1.0000
  Fe  Fe363     1.0  0.76623  0.85821  0.37445  1.0000
  S   S724      1.0  0.76359  0.83393  0.40012  1.0000
  S   S725      1.0  0.79302  0.85227  0.35176  1.0000
  Fe  Fe364     1.0  0.72903  0.88279  0.39150  1.0000
  S   S726      1.0  0.72359  0.86023  0.41800  1.0000
  S   S727      1.0  0.70839  0.91127  0.38929  1.0000
  Fe  Fe365     1.0  0.75576  0.85789  0.41822  1.0000
  S   S728      1.0  0.76564  0.85827  0.44664  1.0000
  Fe  Fe366     1.0  0.73185  0.83885  0.39693  1.0000
  S   S729      1.0  0.71592  0.81298  0.40033  1.0000
  S   S730      1.0  0.76070  0.88184  0.39289  1.0000
  S   S731      1.0  0.73492  0.86176  0.37016  1.0000
  Fe  Fe367     1.0  0.85655  0.89963  0.45750  1.0000
  S   S732      1.0  0.67441  0.94675  0.46625  1.0000
  S   S733      1.0  0.88772  0.90171  0.45834  1.0000
  C   C1754     1.0  0.78918  0.86428  0.44459  1.0000
  C   C1755     1.0  0.80202  0.86528  0.42680  1.0000
  C   C1756     1.0  0.82087  0.86963  0.42559  1.0000
  C   C1757     1.0  0.82678  0.87371  0.44196  1.0000
  S   S734      1.0  0.85081  0.87836  0.44007  1.0000
  C   C1758     1.0  0.79524  0.86790  0.46109  1.0000
  S   S735      1.0  0.87096  0.94309  0.47524  1.0000
  H   H2819     1.0  0.95131  0.80770  0.05369  1.0000
  C   C1759     1.0  0.91217  0.93965  0.18508  1.0000
  H   H2820     1.0  0.90108  0.92682  0.14535  1.0000
  H   H2821     1.0  0.77161  0.79636  0.32394  1.0000
  C   C1760     1.0  0.69299  0.90809  0.42836  1.0000
  S   S736      1.0  0.68632  0.79162  0.32906  1.0000
  C   C1761     1.0  0.98372  0.77618  0.07924  1.0000
  C   C1762     1.0  0.90849  0.92516  0.15815  1.0000
  H   H2822     1.0  0.95614  0.80275  0.09611  1.0000
  S   S737      1.0  0.83442  0.98651  0.21424  1.0000
  C   C1763     1.0  0.79825  0.89562  0.29456  1.0000
  C   C1764     1.0  0.77987  0.89424  0.30621  1.0000
  C   C1765     1.0  0.77821  0.88142  0.32410  1.0000
  C   C1766     1.0  0.79488  0.86947  0.33012  1.0000
  C   C1767     1.0  0.81325  0.87063  0.31834  1.0000
  C   C1768     1.0  0.81498  0.88388  0.30072  1.0000
  H   H2823     1.0  0.76689  0.90326  0.30146  1.0000
  H   H2824     1.0  0.76400  0.88060  0.33307  1.0000
  H   H2825     1.0  0.82619  0.86142  0.32298  1.0000
  H   H2826     1.0  0.82920  0.88481  0.29182  1.0000
  H   H2827     1.0  0.73498  0.83563  0.45835  1.0000
  C   C1769     1.0  0.83510  0.97430  0.17963  1.0000
  C   C1770     1.0  0.84069  0.97516  0.15935  1.0000
  C   C1771     1.0  0.89244  0.74763  0.11321  1.0000
  H   H2828     1.0  0.90029  0.89014  0.07751  1.0000
  H   H2829     1.0  0.82626  0.96361  0.18797  1.0000
  H   H2830     1.0  0.83621  0.96510  0.15202  1.0000
  H   H2831     1.0  0.88486  0.88963  0.40252  1.0000
  S   S738      1.0  0.79020  0.74650  0.05490  1.0000
  H   H2832     1.0  0.95169  0.95038  0.05806  1.0000
  H   H2833     1.0  0.94139  0.77441  0.06413  1.0000
  C   C1772     1.0  0.88678  0.96559  0.28307  1.0000
  C   C1773     1.0  0.88810  0.97226  0.30013  1.0000
  H   H2834     1.0  0.92835  0.93790  0.18052  1.0000
  N   N176      1.0  0.89062  0.88674  0.10858  1.0000
  H   H2835     1.0  0.89306  0.91484  0.36212  1.0000
  H   H2836     1.0  0.88447  0.96335  0.31419  1.0000
  Fe  Fe368     1.0  0.84104  0.93707  0.47426  1.0000
  C   C1774     1.0  0.94463  0.93103  0.10684  1.0000
  C   C1775     1.0  0.92783  0.94533  0.10734  1.0000
  Fe  Fe369     1.0  0.98937  0.85576  0.07430  1.0000
  H   H2837     1.0  0.84435  0.91437  0.40880  1.0000
  C   C1776     1.0  0.96312  0.93670  0.10128  1.0000
  H   H2838     1.0  0.91347  0.94105  0.11116  1.0000
  H   H2839     1.0  0.72516  0.87101  0.46067  1.0000
  C   C1777     1.0  0.80580  0.77192  0.10385  1.0000
  C   C1778     1.0  0.90507  0.86897  0.11281  1.0000
  H   H2840     1.0  0.84031  0.91800  0.38397  1.0000
  H   H2841     1.0  0.78988  0.78008  0.33632  1.0000
  C   C1779     1.0  0.96482  0.95661  0.09645  1.0000
  N   N177      1.0  0.76867  0.79796  0.35437  1.0000
  H   H2842     1.0  0.81978  0.84630  0.04040  1.0000
  C   C1780     1.0  0.78774  0.76539  0.10625  1.0000
  H   H2843     1.0  0.71381  0.83331  0.36056  1.0000
  H   H2844     1.0  0.81638  0.89015  0.21416  1.0000
  C   C1781     1.0  0.85278  0.86500  0.16999  1.0000
  C   C1782     1.0  0.87196  0.85765  0.17321  1.0000
  C   C1783     1.0  0.88094  0.86694  0.18421  1.0000
  C   C1784     1.0  0.87084  0.88359  0.19208  1.0000
  C   C1785     1.0  0.85205  0.89143  0.18803  1.0000
  C   C1786     1.0  0.84305  0.88214  0.17714  1.0000
  H   H2845     1.0  0.87962  0.84444  0.16783  1.0000
  H   H2846     1.0  0.89557  0.86084  0.18711  1.0000
  H   H2847     1.0  0.84434  0.90458  0.19343  1.0000
  H   H2848     1.0  0.82830  0.88809  0.17450  1.0000
  C   C1787     1.0  0.88210  0.85924  0.05686  1.0000
  C   C1788     1.0  0.89924  0.85111  0.06460  1.0000
  C   C1789     1.0  0.91678  0.85843  0.05650  1.0000
  C   C1790     1.0  0.91716  0.87382  0.04064  1.0000
  C   C1791     1.0  0.90011  0.88159  0.03273  1.0000
  C   C1792     1.0  0.88262  0.87439  0.04087  1.0000
  H   H2849     1.0  0.89903  0.83907  0.07664  1.0000
  H   H2850     1.0  0.93004  0.85192  0.06223  1.0000
  H   H2851     1.0  0.90037  0.89337  0.02039  1.0000
  H   H2852     1.0  0.86945  0.88066  0.03478  1.0000
  Fe  Fe370     1.0  0.66582  0.77022  0.32931  1.0000
  C   C1793     1.0  0.69331  0.79766  0.34951  1.0000
  C   C1794     1.0  0.69108  0.78596  0.36792  1.0000
  C   C1795     1.0  0.69776  0.79099  0.38349  1.0000
  C   C1796     1.0  0.70631  0.80792  0.38089  1.0000
  C   C1797     1.0  0.70776  0.81999  0.36267  1.0000
  C   C1798     1.0  0.70164  0.81468  0.34699  1.0000
  H   H2853     1.0  0.68471  0.77278  0.37003  1.0000
  H   H2854     1.0  0.69650  0.78158  0.39756  1.0000
  N   N178      1.0  0.96927  0.96827  0.03601  1.0000
  H   H2855     1.0  0.97166  0.81293  0.06240  1.0000
  H   H2856     1.0  0.70016  0.86872  0.46148  1.0000
  C   C1799     1.0  0.98427  0.96571  0.04860  1.0000
  H   H2857     1.0  0.78566  0.86648  0.47504  1.0000
  C   C1800     1.0  0.79640  0.75506  0.07443  1.0000
  H   H2858     1.0  0.88353  0.94222  0.38093  1.0000
  C   C1801     1.0  0.92759  0.74256  0.11144  1.0000
  H   H2859     1.0  0.96600  0.76409  0.05440  1.0000
  H   H2860     1.0  0.87534  0.95772  0.18215  1.0000
  H   H2861     1.0  0.89899  0.96290  0.14166  1.0000
  C   C1802     1.0  0.81385  0.87298  0.45971  1.0000
  H   H2862     1.0  0.71019  0.94787  0.39987  1.0000
  C   C1803     1.0  0.68505  0.91607  0.44545  1.0000
  H   H2863     1.0  0.98041  0.97650  0.05884  1.0000
  H   H2864     1.0  0.77710  0.76730  0.11929  1.0000
  H   H2865     1.0  0.96445  0.95547  0.01250  1.0000
  H   H2866     1.0  0.86566  0.87245  0.12136  1.0000
  C   C1804     1.0  0.81951  0.76914  0.08702  1.0000
  C   C1805     1.0  0.75530  0.78332  0.36074  1.0000
  C   C1806     1.0  0.78145  0.79605  0.36908  1.0000
  C   C1807     1.0  0.75701  0.81775  0.35234  1.0000
  H   H2867     1.0  0.74600  0.78527  0.37513  1.0000
  H   H2868     1.0  0.76351  0.76814  0.36230  1.0000
  H   H2869     1.0  0.74511  0.78463  0.35019  1.0000
  H   H2870     1.0  0.77266  0.79749  0.38376  1.0000
  H   H2871     1.0  0.79114  0.78161  0.37044  1.0000
  H   H2872     1.0  0.74795  0.82058  0.36653  1.0000
  H   H2873     1.0  0.91162  0.96349  0.37961  1.0000
  H   H2874     1.0  0.93903  0.96494  0.03914  1.0000
  H   H2875     1.0  0.87395  0.97702  0.43241  1.0000
  C   C1808     1.0  0.90684  0.96013  0.15439  1.0000
  C   C1809     1.0  0.78313  0.75680  0.09173  1.0000
  S   S739      1.0  0.84908  0.93079  0.44372  1.0000
  H   H2876     1.0  0.83092  0.86971  0.41193  1.0000
  H   H2877     1.0  0.69670  0.96175  0.43019  1.0000
  C   C1810     1.0  0.78084  0.79489  0.33537  1.0000
  H   H2878     1.0  0.79101  0.80583  0.33030  1.0000
  H   H2879     1.0  0.66788  0.94541  0.40052  1.0000
  C   C1811     1.0  0.86893  0.93753  0.38605  1.0000
  H   H2880     1.0  0.66652  0.83445  0.33079  1.0000
  H   H2881     1.0  0.95574  0.75588  0.07904  1.0000
  Fe  Fe371     1.0  0.96325  0.89079  0.08962  1.0000
  H   H2882     1.0  0.90761  0.95238  0.19298  1.0000
  C   C1812     1.0  0.88760  0.89842  0.12440  1.0000
  H   H2883     1.0  0.83508  0.83848  0.23395  1.0000
  H   H2884     1.0  0.83373  0.77345  0.08529  1.0000
  H   H2885     1.0  0.87354  0.87220  0.09566  1.0000
  C   C1813     1.0  0.70185  0.91965  0.41180  1.0000
  S   S740      1.0  0.89955  0.94371  0.41826  1.0000
  H   H2886     1.0  0.97591  0.79681  0.04485  1.0000
  H   H2887     1.0  0.79122  0.92867  0.47748  1.0000
  H   H2888     1.0  0.70680  0.87848  0.48035  1.0000
  H   H2889     1.0  0.90877  0.92637  0.19571  1.0000
  H   H2890     1.0  0.92457  0.92306  0.15272  1.0000
  H   H2891     1.0  0.79394  0.85350  0.25296  1.0000
  C   C1814     1.0  0.96581  0.80118  0.05801  1.0000
  N   N179      1.0  0.71509  0.84732  0.48199  1.0000
  H   H2892     1.0  0.80032  0.87013  0.26594  1.0000
  N   N180      1.0  0.87035  0.91619  0.38722  1.0000
  H   H2893     1.0  0.83036  0.88451  0.25364  1.0000
  C   C1815     1.0  0.80650  0.85880  0.25644  1.0000
  H   H2894     1.0  0.81489  0.84643  0.26527  1.0000
  H   H2895     1.0  0.89992  0.85975  0.12685  1.0000
  H   H2896     1.0  0.84499  0.86102  0.25179  1.0000
  H   H2897     1.0  0.81461  0.84677  0.22110  1.0000
  H   H2898     1.0  0.83724  0.82382  0.06468  1.0000
  S   S741      1.0  0.90790  0.77650  0.12338  1.0000
  H   H2899     1.0  0.84522  0.87997  0.23084  1.0000
  H   H2900     1.0  0.80162  0.89550  0.23667  1.0000
  H   H2901     1.0  0.82787  0.80355  0.06038  1.0000
  S   S742      1.0  0.86072  0.98917  0.12361  1.0000
  H   H2902     1.0  0.79254  0.80473  0.06263  1.0000
  C   C1816     1.0  0.90170  0.97397  0.38766  1.0000
  N   N181      1.0  0.81906  0.86683  0.23852  1.0000
  C   C1817     1.0  0.83565  0.87334  0.24392  1.0000
  C   C1818     1.0  0.80743  0.88366  0.22773  1.0000
  H   H2903     1.0  0.82511  0.75966  0.05896  1.0000
  H   H2904     1.0  0.79470  0.87933  0.22350  1.0000
  H   H2905     1.0  0.90508  0.91151  0.16814  1.0000
  C   C1819     1.0  0.82462  0.81572  0.06899  1.0000
  H   H2906     1.0  0.82409  0.80922  0.08467  1.0000
  H   H2907     1.0  0.89104  0.97199  0.25172  1.0000
  C   C1820     1.0  0.82665  0.85158  0.22608  1.0000
  H   H2908     1.0  0.81070  0.82606  0.03531  1.0000
  H   H2909     1.0  0.81467  0.85257  0.07476  1.0000
  C   C1821     1.0  0.89336  0.96802  0.40711  1.0000
  H   H2910     1.0  0.83671  0.85700  0.21278  1.0000
  C   C1822     1.0  0.70342  0.93888  0.41264  1.0000
  C   C1823     1.0  0.95087  0.79092  0.09122  1.0000
  C   C1824     1.0  0.90926  0.75406  0.11558  1.0000
  N   N182      1.0  0.80606  0.82860  0.06567  1.0000
  C   C1825     1.0  0.80764  0.83747  0.04484  1.0000
  H   H2911     1.0  0.75863  0.93335  0.45348  1.0000
  H   H2912     1.0  0.79761  0.86225  0.41405  1.0000
  H   H2913     1.0  0.88774  0.91215  0.08626  1.0000
  C   C1826     1.0  0.88069  0.94468  0.17480  1.0000
  C   C1827     1.0  0.80222  0.84418  0.07778  1.0000
  H   H2914     1.0  0.80016  0.83797  0.09363  1.0000
  H   H2915     1.0  0.88185  0.89004  0.13876  1.0000
  H   H2916     1.0  0.94973  0.77877  0.10380  1.0000
  C   C1828     1.0  0.87821  0.91084  0.36769  1.0000
  N   N183      1.0  0.96418  0.78435  0.07401  1.0000
  C   C1829     1.0  0.75495  0.93614  0.46882  1.0000
  H   H2917     1.0  0.70988  0.83355  0.45935  1.0000
  H   H2918     1.0  0.81853  0.87553  0.47252  1.0000
  C   C1830     1.0  0.78991  0.81694  0.07116  1.0000
  H   H2919     1.0  0.79389  0.84731  0.04173  1.0000
  H   H2920     1.0  0.78876  0.85473  0.07508  1.0000
  H   H2921     1.0  0.78838  0.81019  0.08689  1.0000
  H   H2922     1.0  0.72401  0.81772  0.47652  1.0000
  C   C1831     1.0  0.97546  0.95423  0.02214  1.0000
  C   C1832     1.0  0.88357  0.90579  0.40107  1.0000
  C   C1833     1.0  0.89808  0.89844  0.08981  1.0000
  C   C1834     1.0  0.94806  0.97093  0.09646  1.0000
  H   H2923     1.0  0.90239  0.97337  0.16156  1.0000
  H   H2924     1.0  0.97616  0.92572  0.10092  1.0000
  C   C1835     1.0  0.95642  0.76909  0.06758  1.0000
  H   H2925     1.0  0.77564  0.82610  0.06873  1.0000
  H   H2926     1.0  0.87819  0.75627  0.11671  1.0000
  N   N184      1.0  0.90208  0.94239  0.16811  1.0000
  Fe  Fe372     1.0  0.99611  0.89657  0.05514  1.0000
  H   H2927     1.0  0.90162  0.90259  0.12580  1.0000
  H   H2928     1.0  0.97754  0.93890  0.02996  1.0000
  H   H2929     1.0  0.91939  0.87275  0.11394  1.0000
  H   H2930     1.0  0.94059  0.74716  0.11371  1.0000
  H   H2931     1.0  0.91245  0.90261  0.09012  1.0000
  C   C1836     1.0  0.89414  0.99038  0.29912  1.0000
  H   H2932     1.0  0.91648  0.97611  0.10156  1.0000
  H   H2933     1.0  0.85134  0.89451  0.39538  1.0000
  H   H2934     1.0  0.76903  0.75218  0.09365  1.0000
  C   C1837     1.0  0.89164  0.97717  0.26495  1.0000
  H   H2935     1.0  0.97919  0.96088  0.09259  1.0000
  H   H2936     1.0  0.86063  0.89424  0.10406  1.0000
  H   H2937     1.0  0.87698  0.91211  0.12163  1.0000
  H   H2938     1.0  0.98974  0.95647  0.01276  1.0000
  S   S743      1.0  0.99590  0.88083  0.08601  1.0000
  H   H2939     1.0  0.87807  0.90949  0.41593  1.0000
  H   H2940     1.0  0.67797  0.90724  0.45807  1.0000
  H   H2941     1.0  0.99430  0.77143  0.06650  1.0000
  C   C1838     1.0  0.69576  0.94673  0.42978  1.0000
  H   H2942     1.0  0.74471  0.84893  0.48423  1.0000
  H   H2943     1.0  0.87641  0.93177  0.18535  1.0000
  H   H2944     1.0  0.85899  0.94590  0.37585  1.0000
  C   C1839     1.0  0.68612  0.93553  0.44604  1.0000
  C   C1840     1.0  0.92953  0.96523  0.10197  1.0000
  C   C1841     1.0  0.84070  0.98755  0.18898  1.0000
  H   H2945     1.0  0.69147  0.89332  0.42767  1.0000
  C   C1842     1.0  0.85070  0.91057  0.39408  1.0000
  H   H2946     1.0  0.73869  0.93941  0.47253  1.0000
  S   S744      1.0  0.99218  0.87084  0.04309  1.0000
  H   H2947     1.0  0.86863  0.91848  0.35684  1.0000
  H   H2948     1.0  0.89851  0.90978  0.39653  1.0000
  C   C1843     1.0  0.88047  0.98154  0.41742  1.0000
  H   H2949     1.0  0.86332  0.94209  0.40058  1.0000
  C   C1844     1.0  0.81467  0.76113  0.07221  1.0000
  H   H2950     1.0  0.93576  0.79658  0.08809  1.0000
  H   H2951     1.0  0.92281  0.95892  0.14857  1.0000
  H   H2952     1.0  0.75932  0.89778  0.46624  1.0000
  H   H2953     1.0  0.98592  0.95078  0.05748  1.0000
  H   H2954     1.0  0.87269  0.94652  0.16235  1.0000
  H   H2955     1.0  0.76086  0.94956  0.46926  1.0000
  H   H2956     1.0  0.98304  0.76314  0.09093  1.0000
  C   C1845     1.0  0.75516  0.90174  0.48115  1.0000
  H   H2957     1.0  0.67239  0.74920  0.07176  1.0000
  N   N185      1.0  0.76316  0.91925  0.48238  1.0000
  C   C1846     1.0  0.96707  0.98847  0.02514  1.0000
  C   C1847     1.0  0.95029  0.96473  0.04819  1.0000
  C   C1848     1.0  0.72121  0.83291  0.46849  1.0000
  C   C1849     1.0  0.85239  0.98882  0.14864  1.0000
  S   S745      1.0  0.81359  0.95797  0.48230  1.0000
  H   H2958     1.0  0.98991  0.78704  0.08463  1.0000
  H   H2959     1.0  0.78933  0.91219  0.46189  1.0000
  C   C1850     1.0  0.78473  0.91564  0.47697  1.0000
  C   C1851     1.0  0.71163  0.86725  0.47065  1.0000
  H   H2960     1.0  0.73891  0.90413  0.48475  1.0000
  H   H2961     1.0  0.81854  0.75965  0.64682  1.0000
  N   N186      1.0  0.98780  0.81449  0.62769  1.0000
  Fe  Fe373     1.0  0.96963  0.91608  0.59825  1.0000
  S   S746      1.0  0.96500  0.90136  0.57465  1.0000
  S   S747      1.0  0.95143  0.91532  0.62809  1.0000
  C   C1852     1.0  0.70024  0.89052  0.51764  1.0000
  H   H2962     1.0  0.99555  0.75768  0.58746  1.0000
  Fe  Fe374     1.0  0.97414  0.92770  0.55438  1.0000
  S   S748      1.0  0.95943  0.94032  0.52795  1.0000
  H   H2963     1.0  0.97439  0.94529  0.62097  1.0000
  S   S749      1.0  0.97611  0.94388  0.57831  1.0000
  Fe  Fe375     1.0  0.93104  0.79624  0.60637  1.0000
  S   S750      1.0  0.92558  0.78864  0.63897  1.0000
  S   S751      1.0  0.96143  0.78738  0.59084  1.0000
  Fe  Fe376     1.0  0.89067  0.82001  0.60451  1.0000
  S   S752      1.0  0.88179  0.81457  0.63700  1.0000
  S   S753      1.0  0.87212  0.83778  0.58264  1.0000
  Fe  Fe377     1.0  0.91181  0.82004  0.63795  1.0000
  S   S754      1.0  0.91696  0.83665  0.65991  1.0000
  Fe  Fe378     1.0  0.89628  0.78363  0.63515  1.0000
  S   S755      1.0  0.91960  0.82814  0.60557  1.0000
  S   S756      1.0  0.90281  0.78851  0.60243  1.0000
  C   C1853     1.0  0.73065  0.84598  0.49367  1.0000
  H   H2964     1.0  0.91333  0.84625  0.56373  1.0000
  N   N187      1.0  0.94069  0.85237  0.54596  1.0000
  Fe  Fe379     1.0  0.99702  0.88992  0.57239  1.0000
  H   H2965     1.0  0.98202  0.94188  0.67154  1.0000
  H   H2966     1.0  0.67721  0.96483  0.58246  1.0000
  C   C1854     1.0  0.91929  0.85280  0.54863  1.0000
  H   H2967     1.0  0.70244  0.83047  0.71948  1.0000
  N   N188      1.0  0.69522  0.96161  0.60441  1.0000
  H   H2968     1.0  0.68916  0.94030  0.58954  1.0000
  H   H2969     1.0  0.81879  0.79178  0.65618  1.0000
  H   H2970     1.0  0.76320  0.93686  0.50395  1.0000
  Fe  Fe380     1.0  0.72022  0.89564  0.59907  1.0000
  S   S757      1.0  0.73215  0.86646  0.58973  1.0000
  S   S758      1.0  0.68961  0.90314  0.61542  1.0000
  Fe  Fe381     1.0  0.75564  0.91372  0.57619  1.0000
  S   S759      1.0  0.77058  0.88618  0.56508  1.0000
  S   S760      1.0  0.76701  0.94222  0.56823  1.0000
  Fe  Fe382     1.0  0.74069  0.88396  0.56019  1.0000
  S   S761      1.0  0.73507  0.88049  0.53107  1.0000
  Fe  Fe383     1.0  0.76089  0.87157  0.59561  1.0000
  S   S762      1.0  0.78094  0.84952  0.61326  1.0000
  S   S763      1.0  0.72648  0.91270  0.56903  1.0000
  S   S764      1.0  0.74816  0.89954  0.60726  1.0000
  C   C1855     1.0  0.80135  0.95311  0.50637  1.0000
  C   C1856     1.0  0.80074  0.93392  0.51606  1.0000
  C   C1857     1.0  0.78992  0.93044  0.53493  1.0000
  C   C1858     1.0  0.78017  0.94612  0.54438  1.0000
  C   C1859     1.0  0.78107  0.96527  0.53476  1.0000
  C   C1860     1.0  0.79133  0.96875  0.51568  1.0000
  H   H2971     1.0  0.80822  0.92178  0.50887  1.0000
  H   H2972     1.0  0.78942  0.91565  0.54221  1.0000
  H   H2973     1.0  0.77360  0.97747  0.54196  1.0000
  C   C1861     1.0  0.97770  0.94752  0.65694  1.0000
  H   H2974     1.0  0.95688  0.74936  0.62704  1.0000
  C   C1862     1.0  0.69684  0.84309  0.49519  1.0000
  H   H2975     1.0  0.76061  0.88887  0.49164  1.0000
  H   H2976     1.0  0.66430  0.90926  0.55378  1.0000
  H   H2977     1.0  0.79169  0.98362  0.50819  1.0000
  C   C1863     1.0  0.68769  0.90036  0.64097  1.0000
  C   C1864     1.0  0.70417  0.89351  0.65005  1.0000
  C   C1865     1.0  0.70240  0.89187  0.67040  1.0000
  C   C1866     1.0  0.85066  0.78510  0.61436  1.0000
  H   H2978     1.0  0.94558  0.82422  0.56413  1.0000
  H   H2979     1.0  0.71829  0.88937  0.64146  1.0000
  H   H2980     1.0  0.71522  0.88663  0.67733  1.0000
  H   H2981     1.0  0.86388  0.77831  0.62102  1.0000
  H   H2982     1.0  0.66974  0.87044  0.74259  1.0000
  C   C1867     1.0  0.70032  0.86779  0.54801  1.0000
  C   C1868     1.0  0.98333  0.82541  0.60862  1.0000
  H   H2983     1.0  0.96375  0.86181  0.52332  1.0000
  H   H2984     1.0  0.66484  0.96752  0.61727  1.0000
  C   C1869     1.0  0.84677  0.84265  0.59111  1.0000
  C   C1870     1.0  0.83949  0.84193  0.61102  1.0000
  C   C1871     1.0  0.81921  0.84483  0.61762  1.0000
  C   C1872     1.0  0.80610  0.84869  0.60435  1.0000
  C   C1873     1.0  0.81336  0.85017  0.58434  1.0000
  C   C1874     1.0  0.83368  0.84715  0.57775  1.0000
  H   H2985     1.0  0.84946  0.83915  0.62136  1.0000
  H   H2986     1.0  0.81364  0.84391  0.63309  1.0000
  H   H2987     1.0  0.80334  0.85281  0.57403  1.0000
  H   H2988     1.0  0.83923  0.84772  0.56230  1.0000
  C   C1875     1.0  0.96469  0.76343  0.58605  1.0000
  H   H2989     1.0  0.70577  0.83892  0.74082  1.0000
  H   H2990     1.0  0.94441  0.85427  0.51479  1.0000
  H   H2991     1.0  0.94230  0.94151  0.49393  1.0000
  H   H2992     1.0  0.93801  0.87855  0.55808  1.0000
  H   H2993     1.0  0.71229  0.93371  0.61324  1.0000
  H   H2994     1.0  0.96129  0.86298  0.55840  1.0000
  C   C1876     1.0  0.93963  0.92989  0.52465  1.0000
  C   C1877     1.0  0.93431  0.93282  0.50607  1.0000
  C   C1878     1.0  0.90861  0.91287  0.51860  1.0000
  C   C1879     1.0  0.91357  0.91039  0.53727  1.0000
  C   C1880     1.0  0.92899  0.91885  0.54028  1.0000
  H   H2995     1.0  0.90543  0.90201  0.54951  1.0000
  H   H2996     1.0  0.93239  0.91715  0.55477  1.0000
  C   C1881     1.0  0.94211  0.89326  0.63666  1.0000
  C   C1882     1.0  0.94524  0.87879  0.62491  1.0000
  C   C1883     1.0  0.93715  0.86156  0.63173  1.0000
  C   C1884     1.0  0.92647  0.85844  0.65061  1.0000
  C   C1885     1.0  0.92389  0.87262  0.66259  1.0000
  C   C1886     1.0  0.93148  0.89009  0.65556  1.0000
  H   H2997     1.0  0.95383  0.88080  0.61058  1.0000
  H   H2998     1.0  0.93957  0.85055  0.62254  1.0000
  H   H2999     1.0  0.91575  0.87021  0.67726  1.0000
  H   H3000     1.0  0.92909  0.90114  0.66478  1.0000
  H   H3001     1.0  0.73816  0.75518  0.85760  1.0000
  H   H3002     1.0  0.69208  0.85336  0.50590  1.0000
  H   H3003     1.0  0.66508  0.85916  0.71292  1.0000
  H   H3004     1.0  0.84480  0.75494  0.64342  1.0000
  H   H3005     1.0  0.85123  0.77799  0.60153  1.0000
  S   S765      1.0  0.88067  0.76051  0.65520  1.0000
  N   N189      1.0  0.84095  0.90736  0.56125  1.0000
  C   C1887     1.0  0.84423  0.91959  0.57464  1.0000
  C   C1888     1.0  0.84116  0.91898  0.54146  1.0000
  C   C1889     1.0  0.82179  0.90068  0.56829  1.0000
  C   C1890     1.0  0.85669  0.89021  0.56065  1.0000
  H   H3006     1.0  0.84425  0.91125  0.58970  1.0000
  H   H3007     1.0  0.83256  0.93266  0.57545  1.0000
  H   H3008     1.0  0.85856  0.92492  0.56969  1.0000
  H   H3009     1.0  0.82958  0.93215  0.54133  1.0000
  H   H3010     1.0  0.85550  0.92410  0.53563  1.0000
  H   H3011     1.0  0.83874  0.91022  0.53096  1.0000
  H   H3012     1.0  0.82126  0.89159  0.58307  1.0000
  H   H3013     1.0  0.81875  0.89159  0.55838  1.0000
  H   H3014     1.0  0.80957  0.91325  0.56924  1.0000
  H   H3015     1.0  0.85489  0.88073  0.55050  1.0000
  H   H3016     1.0  0.85697  0.88104  0.57531  1.0000
  H   H3017     1.0  0.87134  0.89472  0.55552  1.0000
  H   H3018     1.0  0.69880  0.82806  0.50374  1.0000
  H   H3019     1.0  0.97246  0.96352  0.65602  1.0000
  H   H3020     1.0  0.76405  0.91117  0.51315  1.0000
  H   H3021     1.0  0.67888  0.80935  0.73992  1.0000
  C   C1891     1.0  0.67073  0.87729  0.53351  1.0000
  H   H3022     1.0  0.97139  0.83697  0.64374  1.0000
  C   C1892     1.0  0.95066  0.83185  0.54918  1.0000
  C   C1893     1.0  0.71358  0.94951  0.60971  1.0000
  H   H3023     1.0  0.91541  0.84453  0.53847  1.0000
  H   H3024     1.0  0.70301  0.95803  0.57426  1.0000
  C   C1894     1.0  0.69647  0.84150  0.72930  1.0000
  S   S766      1.0  0.89014  0.90073  0.51517  1.0000
  H   H3025     1.0  0.94019  0.85640  0.57540  1.0000
  H   H3026     1.0  0.93460  0.76470  0.58342  1.0000
  C   C1895     1.0  0.68055  0.88939  0.51817  1.0000
  C   C1896     1.0  0.97235  0.82110  0.64349  1.0000
  H   H3027     1.0  0.72667  0.85678  0.50385  1.0000
  C   C1897     1.0  0.94523  0.86302  0.56009  1.0000
  H   H3028     1.0  0.69828  0.85610  0.72042  1.0000
  C   C1898     1.0  0.91889  0.92432  0.50303  1.0000
  H   H3029     1.0  0.70770  0.89991  0.50574  1.0000
  C   C1899     1.0  0.94875  0.75567  0.58357  1.0000
  H   H3030     1.0  0.72618  0.95119  0.59756  1.0000
  H   H3031     1.0  0.71326  0.74919  0.83949  1.0000
  H   H3032     1.0  0.83306  0.80876  0.64019  1.0000
  H   H3033     1.0  0.96499  0.94055  0.65621  1.0000
  H   H3034     1.0  0.94778  0.82335  0.53866  1.0000
  H   H3035     1.0  0.73354  0.83123  0.50256  1.0000
  H   H3036     1.0  0.97436  0.79012  0.62618  1.0000
  H   H3037     1.0  0.83246  0.75375  0.62395  1.0000
  C   C1900     1.0  0.94766  0.86182  0.52589  1.0000
  N   N190      1.0  0.67571  0.84059  0.73781  1.0000
  H   H3038     1.0  0.91131  0.86799  0.54575  1.0000
  H   H3039     1.0  0.98823  0.91445  0.64139  1.0000
  C   C1901     1.0  0.66941  0.90542  0.65235  1.0000
  C   C1902     1.0  0.67397  0.82093  0.74926  1.0000
  H   H3040     1.0  0.85187  0.80077  0.60881  1.0000
  H   H3041     1.0  0.71741  0.95351  0.62276  1.0000
  C   C1903     1.0  0.68068  0.86636  0.54835  1.0000
  N   N191      1.0  0.83257  0.78291  0.62867  1.0000
  C   C1904     1.0  0.98861  0.79336  0.62812  1.0000
  H   H3042     1.0  0.70800  0.85928  0.55947  1.0000
  C   C1905     1.0  0.81534  0.79163  0.61913  1.0000
  H   H3043     1.0  0.75537  0.75779  0.83518  1.0000
  C   C1906     1.0  0.98765  0.95108  0.62206  1.0000
  C   C1907     1.0  0.83202  0.76190  0.63602  1.0000
  S   S767      1.0  0.84595  0.90558  0.48818  1.0000
  C   C1908     1.0  0.68415  0.89705  0.68177  1.0000
  H   H3044     1.0  0.80139  0.79084  0.62959  1.0000
  H   H3045     1.0  0.84504  0.78666  0.65281  1.0000
  H   H3046     1.0  0.97517  0.81305  0.65808  1.0000
  H   H3047     1.0  0.81482  0.78412  0.60686  1.0000
  C   C1909     1.0  0.67890  0.95852  0.62077  1.0000
  Fe  Fe384     1.0  0.87658  0.91112  0.48760  1.0000
  H   H3048     1.0  0.91517  0.92640  0.48858  1.0000
  H   H3049     1.0  0.98394  0.96731  0.61974  1.0000
  H   H3050     1.0  0.94044  0.87736  0.52301  1.0000
  H   H3051     1.0  0.73059  0.75210  0.81718  1.0000
  H   H3052     1.0  0.96912  0.82282  0.60586  1.0000
  H   H3053     1.0  0.96682  0.83095  0.54755  1.0000
  H   H3054     1.0  0.67671  0.94296  0.62422  1.0000
  C   C1910     1.0  0.66763  0.90373  0.67269  1.0000
  H   H3055     1.0  0.95767  0.81874  0.64175  1.0000
  C   C1911     1.0  0.98314  0.75170  0.58565  1.0000
  C   C1912     1.0  0.69095  0.95595  0.58687  1.0000
  H   H3056     1.0  0.98250  0.84145  0.60778  1.0000
  C   C1913     1.0  0.71015  0.87975  0.53255  1.0000
  H   H3057     1.0  0.66900  0.83353  0.71189  1.0000
  C   C1914     1.0  0.83232  0.79296  0.64518  1.0000
  H   H3058     1.0  0.81563  0.80733  0.61295  1.0000
  H   H3059     1.0  0.97062  0.74537  0.64671  1.0000
  S   S768      1.0  0.68224  0.89494  0.70726  1.0000
  C   C1915     1.0  0.66845  0.85546  0.75072  1.0000
  H   H3060     1.0  0.67684  0.85295  0.76296  1.0000
  H   H3061     1.0  0.67310  0.89766  0.50649  1.0000
  C   C1916     1.0  0.69744  0.98248  0.60024  1.0000
  H   H3062     1.0  0.68168  0.96248  0.63431  1.0000
  H   H3063     1.0  0.70049  0.98733  0.61322  1.0000
  H   H3064     1.0  0.70969  0.98531  0.58802  1.0000
  H   H3065     1.0  0.68286  0.81741  0.76120  1.0000
  N   N192      1.0  0.99414  0.94328  0.64106  1.0000
  H   H3066     1.0  0.67426  0.91616  0.57235  1.0000
  H   H3067     1.0  0.79146  0.90314  0.48702  1.0000
  H   H3068     1.0  0.67321  0.85686  0.56016  1.0000
  C   C1917     1.0  0.74962  0.74701  0.84766  1.0000
  H   H3069     1.0  0.99220  0.78467  0.64222  1.0000
  H   H3070     1.0  0.74161  0.92574  0.50733  1.0000
  H   H3071     1.0  0.99481  0.82088  0.59637  1.0000
  C   C1918     1.0  0.75778  0.92348  0.50256  1.0000
  C   C1919     1.0  0.72563  0.74137  0.83009  1.0000
  H   H3072     1.0  0.68460  0.84446  0.48697  1.0000
  C   C1920     1.0  0.66397  0.84446  0.72193  1.0000
