data_image0
_chemical_formula_structural       FeS2FeS2FeSFeS3FeS2FeS2FeSFeS3FeS2FeS2FeSFeS3FeS2FeS2FeSFeS3FeS2FeS2FeSFeS3FeS2FeS2FeSFeS3FeS2FeS2FeSFeS3FeS2FeS2FeSFeS3FeS2FeS2FeSFeS3FeS2FeS2FeSFeS3FeS2FeS2FeSFeS3FeS2FeS2FeSFeS3FeS2FeS2FeSFeS3FeS2FeS2FeSFeS3FeS2FeS2FeSFeS3FeS2FeS2FeSFeS3C6H4C6H4C6H4C6H4C6H4C6H4C6H4C6H4C6H4C6H4C6H4C6H4C6H4C6H4C6H4C6H4C6H4C6H4C6H4C6H4C6H4C6H4C6H4C6H4C6H4C6H4C6H4C6H4C6H4C6H4C6H4C6H4NC4H12NC4H12NC4H12NC4H12NC4H12NC4H12NC4H12NC4H12NC4H12NC4H12NC4H12NC4H12NC4H12NC4H12NC4H12NC4H12NC4H12NC4H12NC4H12NC4H12NC4H12NC4H12NC4H12NC4H12NC4H12NC4H12NC4H12NC4H12NC4H12NC4H12NC4H12NC4H12
_chemical_formula_sum              "Fe64 S128 C320 H512 N32"
_cell_length_a       40.68940187486305
_cell_length_b       39.197955598400014
_cell_length_c       26.26785542312202
_cell_angle_alpha    90.75034252826335
_cell_angle_beta     89.32626633236548
_cell_angle_gamma    90.85506628122687

_space_group_name_H-M_alt    "P 1"
_space_group_IT_number       1

loop_
  _space_group_symop_operation_xyz
  'x, y, z'

loop_
  _atom_site_type_symbol
  _atom_site_label
  _atom_site_symmetry_multiplicity
  _atom_site_fract_x
  _atom_site_fract_y
  _atom_site_fract_z
  _atom_site_occupancy
  Fe  Fe1       1.0  0.785640110996621  0.4406131216963064  0.9061946709989552  1.0000
  S   S1        1.0  0.8159572465627244  0.43768372244343917  0.8346925224672528  1.0000
  S   S2        1.0  0.8078385735230719  0.4464369857546531  0.9835343268351208  1.0000
  Fe  Fe2       1.0  0.7213681832937662  0.4305179125721145  0.8505695955948409  1.0000
  S   S3        1.0  0.7458754138264485  0.4273243180584726  0.7736220164474821  1.0000
  S   S4        1.0  0.6680867167271798  0.42151530408174703  0.8698994253695936  1.0000
  Fe  Fe3       1.0  0.7824146715816765  0.3945974982157393  0.8124748753023794  1.0000
  S   S5        1.0  0.80168809035801  0.3472228267684283  0.7745610477301721  1.0000
  Fe  Fe4       1.0  0.7771220867205427  0.47080103617640173  0.8029798976921795  1.0000
  S   S6        1.0  0.7947382545384128  0.5152338962946039  0.7573202393545687  1.0000
  S   S7        1.0  0.7554175251677537  0.3941725665228011  0.8871640667263903  1.0000
  S   S8        1.0  0.7492734679914652  0.47731409046284434  0.8765691699196363  1.0000
  Fe  Fe5       1.0  0.4838668304508733  0.4928393639651984  0.8339650718948345  1.0000
  S   S9        1.0  0.44718675384867485  0.5250090217041736  0.7941575604899597  1.0000
  S   S10       1.0  0.4781069666672908  0.48027378241271323  0.916605965955736  1.0000
  Fe  Fe6       1.0  0.5210683161448683  0.4759859890653668  0.736341285702597  1.0000
  S   S11       1.0  0.48719660339500803  0.5059871462972906  0.6882618340736668  1.0000
  S   S12       1.0  0.5644483178044324  0.45055862988792766  0.699667254871708  1.0000
  Fe  Fe7       1.0  0.491082329097338  0.5451459293803871  0.7508894487460201  1.0000
  S   S13       1.0  0.5041810434990484  0.5998060018386577  0.7347551100725406  1.0000
  Fe  Fe8       1.0  0.4470963273266594  0.4826654551959003  0.7363190460935332  1.0000
  S   S14       1.0  0.39970773971181656  0.4620081312058907  0.704998740587771  1.0000
  S   S15       1.0  0.527916564705228  0.5166486168799919  0.7959553747900873  1.0000
  S   S16       1.0  0.48072688029009425  0.4489379268311518  0.7788223804360227  1.0000
  Fe  Fe9       1.0  0.4837243964922872  0.2571507384435835  0.8249509389703857  1.0000
  S   S17       1.0  0.46043937011515096  0.23502434154224322  0.7547671227908461  1.0000
  S   S18       1.0  0.5381187641083893  0.2681052934353388  0.8252978360241005  1.0000
  Fe  Fe10      1.0  0.41852533039255374  0.26243485857608256  0.8821742836380287  1.0000
  S   S19       1.0  0.3903296922288783  0.24016203030339117  0.8169480980630411  1.0000
  S   S20       1.0  0.3921684836700641  0.27894837605589556  0.9541831369172082  1.0000
  Fe  Fe11      1.0  0.43119754042971403  0.20314148961298437  0.8095498704553576  1.0000
  S   S21       1.0  0.4190085478262705  0.14773541469856397  0.7967820010111923  1.0000
  Fe  Fe12      1.0  0.421915506007133  0.27435157544362493  0.7690198425647612  1.0000
  S   S22       1.0  0.39890618914853526  0.30084219236279075  0.7036251483210507  1.0000
  S   S23       1.0  0.45732158104771853  0.22219707841961134  0.8793475025410235  1.0000
  S   S24       1.0  0.4476225714853452  0.29951704750260955  0.8347625748310598  1.0000
  Fe  Fe13      1.0  0.6696687278467202  0.1334447756240291  0.8156847262059307  1.0000
  S   S25       1.0  0.7032442479417317  0.17105850148873641  0.7768520439839173  1.0000
  S   S26       1.0  0.6160099335619054  0.13037812978188426  0.7950992994213418  1.0000
  Fe  Fe14      1.0  0.7257933946565247  0.10168889228246716  0.8740878328567145  1.0000
  S   S27       1.0  0.7635754187273118  0.13609512381439146  0.8383889695323377  1.0000
  S   S28       1.0  0.7431655665915147  0.06713259734267353  0.935353990547265  1.0000
  Fe  Fe15      1.0  0.7269396708221273  0.17703118768185291  0.8532967881327642  1.0000
  S   S29       1.0  0.7423643224707457  0.22411267318457329  0.8971553711177933  1.0000
  Fe  Fe16      1.0  0.7362778718169019  0.12595375157050323  0.7663163737043457  1.0000
  S   S30       1.0  0.760484305392371  0.1166571780179178  0.6902102981490044  1.0000
  S   S31       1.0  0.6903610172719091  0.14327573069295943  0.8933512435517469  1.0000
  S   S32       1.0  0.7012495431653801  0.08776445961832736  0.8005232115128018  1.0000
  Fe  Fe17      1.0  0.04749969177159352  0.4638215126386658  0.08069388224798257  1.0000
  S   S33       1.0  0.03349168887095333  0.4146927639057706  0.1183040164862672  1.0000
  S   S34       1.0  0.09306473560082185  0.4925322038008906  0.10383649980459775  1.0000
  Fe  Fe18      1.0  0.9827358649490564  0.46922739386752443  0.02622842926911595  1.0000
  S   S35       1.0  0.9624708576457852  0.42088415386010863  0.059594464193005736  1.0000
  S   S36       1.0  0.9538031868125977  0.5014111038160538  0.9728448181658537  1.0000
  Fe  Fe19      1.0  0.984982703614833  0.43937820789259463  0.1323048586448714  1.0000
  S   S37       1.0  0.9593113054882281  0.438822665616895  0.20805673613431286  1.0000
  Fe  Fe20      1.0  0.01228222738751783  0.39979250905372643  0.04254464475694575  1.0000
  S   S38       1.0  0.02034856129102036  0.3466875740429941  0.011115909427773518  1.0000
  S   S39       1.0  0.0005621975684728664  0.48977559910835006  0.10084840443353404  1.0000
  S   S40       1.0  0.031173342102129187  0.4468079102110613  0.0029175840752095894  1.0000
  Fe  Fe21      1.0  0.2621189902680319  0.4794707994770287  0.019586233605595416  1.0000
  S   S41       1.0  0.266820986771701  0.4582177498204631  0.09781567648529599  1.0000
  S   S42       1.0  0.21979202323029987  0.46282510730445914  0.9709327639922659  1.0000
  Fe  Fe22      1.0  0.3222437775708866  0.5246596697393096  0.030605889812070464  1.0000
  S   S43       1.0  0.33203317386612713  0.5079436096893374  0.11021096589894808  1.0000
  S   S44       1.0  0.3547535816651275  0.5616390495257908  0.9888778517637281  1.0000
  Fe  Fe23      1.0  0.320514862642596  0.4555933520978052  0.07933000370753396  1.0000
  S   S45       1.0  0.3519988435089759  0.41199573107620624  0.10271805360520747  1.0000
  Fe  Fe24      1.0  0.27760083524459545  0.5123830407525672  0.12121973136060249  1.0000
  S   S46       1.0  0.2538749976388121  0.5316747885824796  0.19344916293168035  1.0000
  S   S47       1.0  0.31502944529902555  0.4718003551370587  0.9984434001498877  1.0000
  S   S48       1.0  0.2686802366285357  0.5340955216690801  0.04419766244537904  1.0000
  Fe  Fe25      1.0  0.21604293211431222  0.276509596819661  0.9988845181396911  1.0000
  S   S49       1.0  0.24830896268404756  0.24505413376055818  0.04669848935261012  1.0000
  S   S50       1.0  0.23956167526214417  0.29966222424294364  0.9293576051491961  1.0000
  Fe  Fe26      1.0  0.1574856181467943  0.26474780273403065  0.06865516601510091  1.0000
  S   S51       1.0  0.18547106466315336  0.23324171430050428  0.12357191230706177  1.0000
  S   S52       1.0  0.1037842120770694  0.2747844842974755  0.08137522309111112  1.0000
  Fe  Fe27      1.0  0.22555870469997566  0.2724246676460883  0.11264944101546681  1.0000
  S   S53       1.0  0.26245790982914663  0.28819443423434504  0.17151130526055391  1.0000
  Fe  Fe28      1.0  0.20619465926216357  0.20880998673493353  0.052827812029395904  1.0000
  S   S54       1.0  0.21778206443179712  0.1532548867143236  0.04818255488103729  1.0000
  S   S55       1.0  0.19557570701069743  0.3067770215698282  0.06461164379413153  1.0000
  S   S56       1.0  0.17524270645647463  0.23731911411676296  0.9981007938635386  1.0000
  Fe  Fe29      1.0  0.9716920384036204  0.13961705108191455  0.07592609937543116  1.0000
  S   S57       1.0  0.9408910980469877  0.17141101554581303  0.12893501627132875  1.0000
  S   S58       1.0  0.025979519925572125  0.13399080477981526  0.08716095270525237  1.0000
  Fe  Fe30      1.0  0.9132737995513167  0.11720581504174683  0.012072809484890756  1.0000
  S   S59       1.0  0.8776235009708355  0.14734541012869548  0.05941323616222194  1.0000
  S   S60       1.0  0.8971978352944837  0.0881992932157718  0.9423441838538594  1.0000
  Fe  Fe31      1.0  0.9166593900334048  0.18829131355763193  0.05742722350840701  1.0000
  S   S61       1.0  0.9020039717459639  0.24232595929527098  0.04369430736898372  1.0000
  Fe  Fe32      1.0  0.9052709046823726  0.12722857457472123  0.12532255587400054  1.0000
  S   S62       1.0  0.880085739981335  0.10659041503331647  0.1950363677688134  1.0000
  S   S63       1.0  0.9502299574483096  0.15992707022724806  0.004402534070695907  1.0000
  S   S64       1.0  0.9382140445736541  0.09372007042838783  0.0782343314554721  1.0000
  Fe  Fe33      1.0  0.38762816444226095  0.06529851154430077  0.5577916591347004  1.0000
  S   S65       1.0  0.39835895986724057  0.048281876411453206  0.47762733740750335  1.0000
  S   S66       1.0  0.364662006874081  0.11546030635865745  0.5772735502443465  1.0000
  Fe  Fe34      1.0  0.4183748078444049  0.0032803728615311556  0.6039357856100019  1.0000
  S   S67       1.0  0.4313061691178924  0.9801062785010295  0.5281413693220122  1.0000
  S   S68       1.0  0.43016506294847395  0.9803340798587753  0.6792380060330974  1.0000
  Fe  Fe35      1.0  0.44717173810521  0.03310250628196321  0.5077070229722651  1.0000
  S   S69       1.0  0.49450562637913476  0.040894613645770184  0.46514565849943895  1.0000
  Fe  Fe36      1.0  0.38141900248484206  0.9970387063664478  0.5050478130661628  1.0000
  S   S70       1.0  0.3520977803495422  0.9633586781844568  0.4526624807002018  1.0000
  S   S71       1.0  0.4382939246440383  0.0552490382049855  0.585512099846314  1.0000
  S   S72       1.0  0.3665099420440377  0.015138302529346115  0.5831747204122911  1.0000
  Fe  Fe37      1.0  0.6916378715192031  0.6310954722452236  0.6217973054561681  1.0000
  S   S73       1.0  0.6740370472878698  0.599724498298427  0.5558004394144107  1.0000
  S   S74       1.0  0.6787709955269229  0.6104607394134692  0.6986301351774106  1.0000
  Fe  Fe38      1.0  0.7175523751970951  0.6873654578756635  0.5540952851736213  1.0000
  S   S75       1.0  0.7010515075737389  0.6614078884122652  0.48187791956425685  1.0000
  S   S76       1.0  0.7460341575138864  0.7368509277263722  0.5566428259874174  1.0000
  Fe  Fe39      1.0  0.655277995739107  0.6489661029433466  0.5268023474304733  1.0000
  S   S77       1.0  0.602822083006926  0.6458383296748214  0.5030396366831253  1.0000
  Fe  Fe40      1.0  0.7212958234221306  0.6146176531199986  0.5176282935885929  1.0000
  S   S78       1.0  0.748805866423427  0.5759886385219639  0.4707089095011962  1.0000
  S   S79       1.0  0.6695724888773608  0.6795730521302358  0.5957359806363942  1.0000
  S   S80       1.0  0.741263125908724  0.6413382661608613  0.5868088280328912  1.0000
  Fe  Fe41      1.0  0.4273783042732455  0.7933457044099518  0.5994192139014142  1.0000
  S   S81       1.0  0.44189154867858854  0.818078009278017  0.5259470418045885  1.0000
  S   S82       1.0  0.4162622458630101  0.8193544783019764  0.674243790128702  1.0000
  Fe  Fe42      1.0  0.4300774640459565  0.7218587750275813  0.5532081027575236  1.0000
  S   S83       1.0  0.4448514872171127  0.7407557415215852  0.47592545446496126  1.0000
  S   S84       1.0  0.4173631865845042  0.6668426532189222  0.56748928742833  1.0000
  Fe  Fe43      1.0  0.4785179039385242  0.7762452168767617  0.5193723817140893  1.0000
  S   S85       1.0  0.5313415290217545  0.7874194760711342  0.4989537426001689  1.0000
  Fe  Fe44      1.0  0.40661615612826335  0.7804928824484078  0.4902064616820511  1.0000
  S   S86       1.0  0.373001087737013  0.7977261224450367  0.4282618263628028  1.0000
  S   S87       1.0  0.46667982530619845  0.7542435571684135  0.595881649644662  1.0000
  S   S88       1.0  0.38926246142600635  0.7589539811042402  0.5644048856016028  1.0000
  Fe  Fe45      1.0  0.7025904636500713  0.979890023469659  0.46414720056501996  1.0000
  S   S89       1.0  0.7305993289468578  0.9339226309708413  0.4872929660132974  1.0000
  S   S90       1.0  0.7223437305758266  0.007114965242414284  0.39536002832669226  1.0000
  Fe  Fe46      1.0  0.6537830058577505  0.9730499571167979  0.5520039901984248  1.0000
  S   S91       1.0  0.6781597793088346  0.9270167431852072  0.5822366788469464  1.0000
  S   S92       1.0  0.6100933151909465  0.9885081496930187  0.5989795751079636  1.0000
  Fe  Fe47      1.0  0.7249062668634916  0.9559310661271903  0.5661273532945332  1.0000
  S   S93       1.0  0.7641555756267417  0.9609156183879708  0.6250726960842191  1.0000
  Fe  Fe48      1.0  0.680841863253273  0.9101727002403852  0.5007453373806512  1.0000
  S   S94       1.0  0.6626380276489795  0.8583333470990573  0.4760076969904085  1.0000
  S   S95       1.0  0.7002561663388567  0.0036429267889148687  0.5421464985904639  1.0000
  S   S96       1.0  0.652961741678671  0.9543594055888106  0.470987065346727  1.0000
  Fe  Fe49      1.0  0.8620347130201303  0.6848570094809799  0.24231255877046848  1.0000
  S   S97       1.0  0.9031931296075996  0.695552243034894  0.296336365810372  1.0000
  S   S98       1.0  0.8233846639045985  0.7230801800498292  0.2250415755061678  1.0000
  Fe  Fe50      1.0  0.8827231195556622  0.6115484770780216  0.22348558220445358  1.0000
  S   S99       1.0  0.926166538400477  0.6160160849770472  0.275226948554062  1.0000
  S   S100      1.0  0.8691024152504013  0.5654844435452004  0.17582208917086173  1.0000
  Fe  Fe51      1.0  0.8909983202229544  0.6437518702663515  0.3272732611522064  1.0000
  S   S101      1.0  0.8876000515470213  0.6377054615555865  0.4122285650053478  1.0000
  Fe  Fe52      1.0  0.9342405757603857  0.6671631522160242  0.2394464258700389  1.0000
  S   S102      1.0  0.9817912502446965  0.689207122073951  0.20893540113360431  1.0000
  S   S103      1.0  0.8469049120322231  0.6355190554334373  0.2779178433303431  1.0000
  S   S104      1.0  0.8937465784732016  0.6603705132686952  0.18280474690636606  1.0000
  Fe  Fe53      1.0  0.20847225795457652  0.05715391240216583  0.28637061754476584  1.0000
  S   S105      1.0  0.16943518526000978  0.056002629746814137  0.34722081492299883  1.0000
  S   S106      1.0  0.2361951404103545  0.10635133583791023  0.27325960021762913  1.0000
  Fe  Fe54      1.0  0.20164277612408135  0.9815375571018703  0.2643380438300109  1.0000
  S   S107      1.0  0.16195302113802387  0.9735083226306055  0.3230643650974513  1.0000
  S   S108      1.0  0.2238771068924563  0.9381609947359396  0.22063996556147167  1.0000
  Fe  Fe55      1.0  0.14179510669616896  0.022075035013149114  0.29271117344192304  1.0000
  S   S109      1.0  0.08811783916108692  0.031172799385972283  0.2805368109667361  1.0000
  Fe  Fe56      1.0  0.1929824302945852  0.007811481411512444  0.37181246169174403  1.0000
  S   S110      1.0  0.20236870212116348  0.9965677385795239  0.45373436011852164  1.0000
  S   S111      1.0  0.17877406741423324  0.027143558535731582  0.22931594642218747  1.0000
  S   S112      1.0  0.23466829364539457  0.012042208825047807  0.31575725539945054  1.0000
  Fe  Fe57      1.0  0.21679656797958455  0.7131271122114023  0.26302440393848486  1.0000
  S   S113      1.0  0.20358769967933565  0.69044111093518  0.3384926216781313  1.0000
  S   S114      1.0  0.2580465897801206  0.6924949396490356  0.2146955701510503  1.0000
  Fe  Fe58      1.0  0.16283311934918918  0.7657478308395013  0.2709257424359158  1.0000
  S   S115      1.0  0.1457939447290998  0.7472559131309011  0.3472324463220154  1.0000
  S   S116      1.0  0.13265916446670312  0.8083630235395739  0.24076581221215765  1.0000
  Fe  Fe59      1.0  0.19950294426186996  0.7447579149016837  0.36483291426325276  1.0000
  S   S117      1.0  0.22105923034345146  0.7614100042955321  0.439808653957332  1.0000
  Fe  Fe60      1.0  0.15159456650843228  0.6952495901925991  0.3123019916924876  1.0000
  S   S118      1.0  0.11328855887218008  0.6537080436006795  0.32128493879752784  1.0000
  S   S119      1.0  0.216304162984372  0.7674884409120721  0.29112647385372825  1.0000
  S   S120      1.0  0.16521009960856897  0.7138240847609102  0.23452708391621926  1.0000
  Fe  Fe61      1.0  0.8956250774662896  0.9304193248821767  0.2602797381800015  1.0000
  S   S121      1.0  0.9320794468858034  0.9624235724354658  0.30345189364787106  1.0000
  S   S122      1.0  0.8815067747290136  0.9460408965370979  0.18198950948966952  1.0000
  Fe  Fe62      1.0  0.8819864268631582  0.8836635382559644  0.3496118314594408  1.0000
  S   S123      1.0  0.9171424406647457  0.911819198765106  0.4003984681880965  1.0000
  S   S124      1.0  0.8458587370982432  0.8449343995714548  0.37865938815374006  1.0000
  Fe  Fe63      1.0  0.8952575175399591  0.958897565682842  0.36753859608639217  1.0000
  S   S125      1.0  0.8765822467829035  0.0022733403222034987  0.41634133722382183  1.0000
  Fe  Fe64      1.0  0.9500913334357367  0.9122066195130994  0.3310200000025362  1.0000
  S   S126      1.0  0.0036449830605886913  0.8987799969451716  0.32850500750162  1.0000
  S   S127      1.0  0.8576922265068571  0.930295394709139  0.32211663029585336  1.0000
  S   S128      1.0  0.9162850792570696  0.8801662629041324  0.28230471626348347  1.0000
  C   C1        1.0  0.1975970770676933  0.9024437167424006  0.2188342783189966  1.0000
  C   C2        1.0  0.21085880920024996  0.8699572962782912  0.21209618675047048  1.0000
  C   C3        1.0  0.19068918377450206  0.8408690612986989  0.21696674163792296  1.0000
  C   C4        1.0  0.15714081182693254  0.844299377698187  0.22743724285804254  1.0000
  C   C5        1.0  0.14352588018057438  0.8768245294385942  0.23135197655641593  1.0000
  C   C6        1.0  0.16383270243235076  0.9059121112576136  0.22756961566851058  1.0000
  H   H1        1.0  0.23693051273296473  0.8672604455364153  0.20477004273369015  1.0000
  H   H2        1.0  0.20112546251998994  0.8158144888298824  0.2124942960405091  1.0000
  H   H3        1.0  0.11752047399362836  0.8795559352389472  0.2390154606784086  1.0000
  H   H4        1.0  0.15339629787815687  0.9310032543834237  0.23140686697112156  1.0000
  C   C7        1.0  0.06582530249692538  0.9941767782179701  0.296962112019325  1.0000
  C   C8        1.0  0.03541188910517068  0.9969681960337885  0.3219100597695335  1.0000
  C   C9        1.0  0.016619917216059044  0.9676237959984973  0.33270922250437723  1.0000
  C   C10       1.0  0.02809111992740876  0.93540140458541  0.3183448535113979  1.0000
  C   C11       1.0  0.05886842272647663  0.9325349062663678  0.2943896944750076  1.0000
  C   C12       1.0  0.07767319355617221  0.9619154926872407  0.2835324512209276  1.0000
  H   H5        1.0  0.026593514308201224  0.021768351839132505  0.3337128047721221  1.0000
  H   H6        1.0  0.9935735790405236  0.9699104370704265  0.353194206408139  1.0000
  H   H7        1.0  0.06786103235786523  0.9077004304053823  0.28320993243777365  1.0000
  H   H8        1.0  0.10092959310438053  0.9596216835696287  0.26356390594423257  1.0000
  C   C13       1.0  0.01785168733829967  0.67836610837765  0.2404963119252586  1.0000
  C   C14       1.0  0.04727667892077969  0.6948806384293802  0.22679641311332285  1.0000
  C   C15       1.0  0.0763859551944951  0.6877576410286645  0.2521841184860263  1.0000
  C   C16       1.0  0.07652903370620155  0.663309926849952  0.2904077735978432  1.0000
  C   C17       1.0  0.04723848581967682  0.6460571810039217  0.3032834809088509  1.0000
  C   C18       1.0  0.017789337188460097  0.6538952137363724  0.2787947230824571  1.0000
  H   H9        1.0  0.04755397866268973  0.7135105090420266  0.19676633583910771  1.0000
  H   H10       1.0  0.09866994560873016  0.7011773049183012  0.2418394918656668  1.0000
  H   H11       1.0  0.04717103568420566  0.62712075742966  0.33291215481019226  1.0000
  H   H12       1.0  0.9951474866786509  0.6410708111961817  0.28971671595791354  1.0000
  C   C19       1.0  0.8296067401978782  0.7593569648995837  0.2631374081089368  1.0000
  C   C20       1.0  0.8027799543114261  0.7742288208985317  0.2881339727846975  1.0000
  C   C21       1.0  0.8079386768182726  0.8006197547987481  0.3236983163132139  1.0000
  C   C22       1.0  0.8397598826119621  0.812918847272164  0.33287708709313146  1.0000
  C   C23       1.0  0.8664539007688795  0.7991864720462556  0.3061186454687284  1.0000
  C   C24       1.0  0.8614021529726144  0.7720742326153851  0.2716433560632301  1.0000
  H   H13       1.0  0.7781953099819258  0.7642787466199523  0.2816919084420023  1.0000
  H   H14       1.0  0.7872761861443995  0.8113933868440256  0.34431366832025323  1.0000
  H   H15       1.0  0.8911160348051985  0.8085734274663704  0.3133534562256022  1.0000
  H   H16       1.0  0.8821270754956867  0.7608521242068977  0.2518254678590663  1.0000
  C   C25       1.0  0.7652853732379225  0.008532097452928156  0.4002006421421575  1.0000
  C   C26       1.0  0.7800224903063843  0.016351655438831214  0.4468064820500562  1.0000
  C   C27       1.0  0.8143944937624639  0.016574252807449286  0.45088778963751336  1.0000
  C   C28       1.0  0.8340511765608822  0.0076876771762379725  0.4088126002762614  1.0000
  C   C29       1.0  0.8192717824295459  0.0012310150590479907  0.36175581045991706  1.0000
  C   C30       1.0  0.7849598829499255  0.0015821784906826508  0.3574348811949326  1.0000
  H   H17       1.0  0.7648442335085743  0.022442569871717666  0.47960537455493996  1.0000
  H   H18       1.0  0.8256457649059483  0.022806265353683575  0.4870009364349765  1.0000
  H   H19       1.0  0.8342785731617225  0.9961951922374749  0.32854395641774586  1.0000
  H   H20       1.0  0.7735996449041467  0.9956053967494681  0.32132088431421585  1.0000
  C   C31       1.0  0.3307707482320899  0.787820392689  0.43268239453986074  1.0000
  C   C32       1.0  0.31039571743699473  0.7962466991731065  0.3922678838500954  1.0000
  C   C33       1.0  0.27673582479839137  0.7880691023063503  0.3940916379857919  1.0000
  C   C34       1.0  0.2631613419864903  0.7718692607037565  0.43672125036450377  1.0000
  C   C35       1.0  0.2833771869532077  0.7641717535776467  0.4776521296747491  1.0000
  C   C36       1.0  0.3171841420413702  0.7717504786829458  0.4753891690184896  1.0000
  H   H21       1.0  0.3207094021134157  0.8089696737539395  0.35927255268583574  1.0000
  H   H22       1.0  0.2613109059278323  0.7948476472955619  0.3628170452666338  1.0000
  H   H23       1.0  0.27295545186648873  0.7517010669900099  0.5107758230384087  1.0000
  H   H24       1.0  0.3325495436958788  0.764965753873132  0.5066391863410061  1.0000
  C   C37       1.0  0.7888380312599885  0.5902563391717341  0.4566260399355417  1.0000
  C   C38       1.0  0.8029479549706876  0.5824946560277359  0.4091782128383147  1.0000
  C   C39       1.0  0.8340647932942661  0.5957509713702981  0.3961768501386215  1.0000
  C   C40       1.0  0.8513002307368744  0.6163687418394372  0.43085376164366934  1.0000
  C   C41       1.0  0.8382685085624927  0.6218695686164617  0.4798134826624214  1.0000
  C   C42       1.0  0.8068076557378184  0.6092946373305206  0.49243662651049064  1.0000
  H   H25       1.0  0.7894256899868947  0.5670955640255222  0.38182104238317244  1.0000
  H   H26       1.0  0.8447277675473875  0.5898908838624065  0.35933477031234146  1.0000
  H   H27       1.0  0.8519690318798158  0.6369356472466285  0.5073381226162944  1.0000
  H   H28       1.0  0.7965110788947478  0.6145075134470074  0.5297197698668374  1.0000
  C   C43       1.0  0.5834982308461034  0.6853051585432623  0.4996498590143074  1.0000
  C   C44       1.0  0.6007792586110612  0.7147355566782614  0.48460128822219184  1.0000
  C   C45       1.0  0.5844742509094275  0.7460619075691469  0.4825204495442857  1.0000
  C   C46       1.0  0.5513052362071647  0.7480435743521244  0.4969700657230413  1.0000
  C   C47       1.0  0.5341683504691058  0.7185101860650244  0.511493660884117  1.0000
  C   C48       1.0  0.5501379290226592  0.6871923047503471  0.5124106941082703  1.0000
  H   H29       1.0  0.6264538644506895  0.7131808597822451  0.47372460485425677  1.0000
  H   H30       1.0  0.5974358961379499  0.7686194469805372  0.4693697312113176  1.0000
  H   H31       1.0  0.5084799406697175  0.7195452274114351  0.5218058687054588  1.0000
  H   H32       1.0  0.5366362507190561  0.6644143892384099  0.5235326147536656  1.0000
  C   C49       1.0  0.7247089287449894  0.7707520489494215  0.5305175640493439  1.0000
  C   C50       1.0  0.698753384200878  0.7644550609383574  0.49714187584191444  1.0000
  C   C51       1.0  0.6807244356187085  0.7917272668089663  0.4786285133105868  1.0000
  C   C52       1.0  0.6881292605052279  0.8252036135156652  0.4943649081950455  1.0000
  C   C53       1.0  0.7145335961907454  0.8315904327966611  0.5268868274856711  1.0000
  C   C54       1.0  0.7330122904790604  0.8043414391330291  0.5446090213274094  1.0000
  H   H33       1.0  0.6923526025876365  0.7385870695684718  0.48590591440861375  1.0000
  H   H34       1.0  0.6604469945096936  0.7867869736791547  0.453112816738463  1.0000
  H   H35       1.0  0.7203489192581939  0.857430174265697  0.5390812153034008  1.0000
  H   H36       1.0  0.7531232250926445  0.8092076089686494  0.5704402895829438  1.0000
  C   C55       1.0  0.30955198609114554  0.9677735139636718  0.45745816265097095  1.0000
  C   C56       1.0  0.2901261464527667  0.9571213555338002  0.41655445447935047  1.0000
  C   C57       1.0  0.25658183280190566  0.9643029476441483  0.41667959667337295  1.0000
  C   C58       1.0  0.24237597138454325  0.9815559015199268  0.4580652493753572  1.0000
  C   C59       1.0  0.2612318217359598  0.989676065524755  0.5008136953995267  1.0000
  C   C60       1.0  0.29500664082006084  0.9831725854534387  0.5002423977834576  1.0000
  H   H37       1.0  0.3013153536504039  0.9449179904373001  0.383567618854367  1.0000
  H   H38       1.0  0.2419027452970665  0.9572531198057459  0.3841028857875467  1.0000
  H   H39       1.0  0.2501136564483336  0.0027056036899582026  0.5331148395935633  1.0000
  H   H40       1.0  0.3097623693867207  0.9908070341881509  0.5323509445718902  1.0000
  C   C61       1.0  0.4274821541448886  0.9355822886073973  0.6776675804622254  1.0000
  C   C62       1.0  0.4377122066580648  0.9170633130882718  0.6345651212326046  1.0000
  C   C63       1.0  0.43517356783655925  0.8813021685366751  0.6337812019579906  1.0000
  C   C64       1.0  0.42172059458519506  0.8639823699057299  0.675549305916056  1.0000
  C   C65       1.0  0.4119110182665238  0.8825176715250896  0.7188525931568287  1.0000
  C   C66       1.0  0.4150762610291053  0.9182083180815522  0.7200936866743455  1.0000
  H   H41       1.0  0.4483656587816212  0.9302283297590304  0.6023906708741721  1.0000
  H   H42       1.0  0.44399860507014616  0.8672490035248362  0.6011435163903757  1.0000
  H   H43       1.0  0.4016932449986616  0.8693227115509372  0.7514631347531749  1.0000
  H   H44       1.0  0.40733383779219645  0.9323987159428261  0.7536482111406047  1.0000
  C   C67       1.0  0.5267902717323908  0.02655512241432656  0.5021867492978266  1.0000
  C   C68       1.0  0.5588989019558542  0.02652792019795025  0.48248205998598653  1.0000
  C   C69       1.0  0.584733849264388  0.014725376582284344  0.5120698677979073  1.0000
  C   C70       1.0  0.5783860162662  0.0033330651352039276  0.561472680442227  1.0000
  C   C71       1.0  0.5463488772885559  0.003359497994950278  0.5811926962860913  1.0000
  C   C72       1.0  0.5205167457021846  0.014694154860504183  0.5514107814923196  1.0000
  H   H45       1.0  0.5637376664447066  0.03562917635774521  0.44434923254378794  1.0000
  H   H46       1.0  0.6095423014210241  0.014909907157668156  0.4968328370096212  1.0000
  H   H47       1.0  0.5414179643941576  0.9941105839583284  0.6191944677623442  1.0000
  H   H48       1.0  0.49575481091986406  0.014120757470458711  0.5665221917181389  1.0000
  C   C73       1.0  0.8775970220737511  0.062015242755760536  0.19033868193297288  1.0000
  C   C74       1.0  0.8761807054931317  0.045405876684520896  0.14283515674532166  1.0000
  C   C75       1.0  0.8760419508624467  0.009564472135131119  0.1398927302407853  1.0000
  C   C76       1.0  0.8769943533954201  0.9904753451752817  0.18449500269391317  1.0000
  C   C77       1.0  0.8766460997883545  0.007228016202458498  0.23176543078819392  1.0000
  C   C78       1.0  0.8773422985887966  0.04282986334117744  0.23476870924503013  1.0000
  H   H49       1.0  0.875490309358977  0.06010270588559896  0.10830407631957018  1.0000
  H   H50       1.0  0.8760290685147618  0.9967736183917886  0.10311222043592339  1.0000
  H   H51       1.0  0.8764807458558537  0.9928065209656196  0.26630459415457663  1.0000
  H   H52       1.0  0.8786372474425715  0.05533782026512623  0.27163855286174154  1.0000
  C   C79       1.0  0.2285174465188231  0.13937689837618378  0.10868692119857393  1.0000
  C   C80       1.0  0.2256786803837371  0.10477982663013731  0.12049819616549494  1.0000
  C   C81       1.0  0.2296686761669497  0.09420954124359034  0.17081004391760746  1.0000
  C   C82       1.0  0.23650952188360028  0.118222248098798  0.20921157907609306  1.0000
  C   C83       1.0  0.2415410300370391  0.15250930332214607  0.19674226502231273  1.0000
  C   C84       1.0  0.2375501682879927  0.16308415222679828  0.14646790535548315  1.0000
  H   H53       1.0  0.21924597639347587  0.08630302005117763  0.09114069556841464  1.0000
  H   H54       1.0  0.22718254611237523  0.06751011569218512  0.1798353906316341  1.0000
  H   H55       1.0  0.2471344811593981  0.17113404750301764  0.22629501347238623  1.0000
  H   H56       1.0  0.24053963546909063  0.18972983515953068  0.13734915074886245  1.0000
  C   C85       1.0  0.08185623820038891  0.2357801485310216  0.07990145926918113  1.0000
  C   C86       1.0  0.04757512560025789  0.23532484390101058  0.0850151838150135  1.0000
  C   C87       1.0  0.03006456270151303  0.20417408030514742  0.08601550561562488  1.0000
  C   C88       1.0  0.0468995383644526  0.1733607918735996  0.08184909278974484  1.0000
  C   C89       1.0  0.08104939482369411  0.1738703691504093  0.07505443886147467  1.0000
  C   C90       1.0  0.09853666865223834  0.2049791860774423  0.07435378496871503  1.0000
  H   H57       1.0  0.034574538992593995  0.2590448686234197  0.08777053101005006  1.0000
  H   H58       1.0  0.0036177050855226156  0.2040280728595966  0.09023070020816748  1.0000
  H   H59       1.0  0.09392667280303901  0.15012807338424083  0.06980196791540316  1.0000
  H   H60       1.0  0.12491281721700755  0.20504113240627975  0.06934267306709097  1.0000
  C   C91       1.0  0.2560725920361343  0.5762538472720866  0.19947740973614247  1.0000
  C   C92       1.0  0.23900976394791928  0.5923031390827321  0.23939311514046852  1.0000
  C   C93       1.0  0.2393142190698802  0.6279543306978231  0.24381952575906363  1.0000
  C   C94       1.0  0.25719251465317383  0.6477546684163282  0.2089922501528032  1.0000
  C   C95       1.0  0.27496664716458963  0.6316518746819317  0.16976575056288912  1.0000
  C   C96       1.0  0.274172521703627  0.5959184193802043  0.16469649154339217  1.0000
  H   H61       1.0  0.22531822884686173  0.577177074750081  0.26673735548235195  1.0000
  H   H62       1.0  0.22575890470240598  0.639942507126419  0.27432767905626243  1.0000
  H   H63       1.0  0.2889568716221415  0.6468130667598299  0.14276233305933483  1.0000
  H   H64       1.0  0.28762005308880984  0.5836690041291145  0.13392615011203013  1.0000
  C   C97       1.0  0.3283986996315698  0.37565244733702674  0.11723637269831322  1.0000
  C   C98       1.0  0.29722788081649415  0.37085594174964975  0.09637915783103845  1.0000
  C   C99       1.0  0.2773466700925886  0.34326422457162153  0.11171293296488938  1.0000
  C   C100      1.0  0.2884413795688355  0.3206334772234895  0.1482511310414043  1.0000
  C   C101      1.0  0.3200416992352536  0.32489985583252484  0.16804664685358417  1.0000
  C   C102      1.0  0.34014231575052833  0.3522206026354044  0.15215321350274946  1.0000
  H   H65       1.0  0.28828101511535026  0.3884798226795581  0.06858141072206236  1.0000
  H   H66       1.0  0.2530544600294061  0.3402498786947695  0.09629258059883883  1.0000
  H   H67       1.0  0.3287463013586305  0.30743518637400846  0.1962788856318063  1.0000
  H   H68       1.0  0.36434026982126005  0.3558425489301537  0.1681998969374554  1.0000
  C   C103      1.0  0.9303915111225275  0.47139345358631285  0.20449980654133393  1.0000
  C   C104      1.0  0.9112361249087617  0.4735022329294067  0.1609892834609783  1.0000
  C   C105      1.0  0.8914662525919378  0.5018886732013218  0.1534932072801667  1.0000
  C   C106      1.0  0.8907220862243623  0.5283478681934969  0.18969151636052875  1.0000
  C   C107      1.0  0.9087489380870104  0.5256008045118004  0.23450787869900291  1.0000
  C   C108      1.0  0.9286322265635619  0.4970840100735667  0.24192566427587558  1.0000
  H   H69       1.0  0.9119119603676564  0.4530906274422905  0.13304493750685942  1.0000
  H   H70       1.0  0.8776070109229703  0.5037439965298847  0.11885752222819845  1.0000
  H   H71       1.0  0.9076861346341304  0.5455015973114651  0.2632459656167465  1.0000
  H   H72       1.0  0.9434260225006803  0.49551715180305633  0.27575799460821937  1.0000
  C   C109      1.0  0.12759330036409633  0.4845004240111497  0.06542006886736895  1.0000
  C   C110      1.0  0.1585637523231025  0.49396070984276014  0.08355105905696592  1.0000
  C   C111      1.0  0.18668024745420495  0.48758183669236327  0.05416458655141043  1.0000
  C   C112      1.0  0.1840715058871724  0.47186872671799657  0.006280697815457037  1.0000
  C   C113      1.0  0.15300063230339175  0.463026361113234  0.9874534319850852  1.0000
  C   C114      1.0  0.12471189151956374  0.4691237488496407  0.01723964662098565  1.0000
  H   H73       1.0  0.1609822408082633  0.505850417733945  0.12065030314763403  1.0000
  H   H74       1.0  0.21034975806138925  0.49497476432928567  0.06883553858783253  1.0000
  H   H75       1.0  0.150896924461839  0.4517646334797963  0.9498305068439371  1.0000
  H   H76       1.0  0.10075689940097554  0.462569165560799  0.0026296034544264213  1.0000
  C   C115      1.0  0.9873064092209536  0.317529866517293  0.01845864881492898  1.0000
  C   C116      1.0  0.9564434430880627  0.328654503340106  0.03475351771323609  1.0000
  C   C117      1.0  0.9304417485409627  0.3053907803511379  0.04193069707620012  1.0000
  C   C118      1.0  0.9352034144419741  0.2705585499844178  0.033578260819828065  1.0000
  C   C119      1.0  0.9660890493743435  0.25909467725359747  0.01741027626926872  1.0000
  C   C120      1.0  0.9919986274160829  0.2826419862404461  0.00923149478010643  1.0000
  H   H77       1.0  0.9523325949797927  0.3551777017347646  0.04171851939269433  1.0000
  H   H78       1.0  0.9066528009321917  0.3143705187749795  0.054657429880306196  1.0000
  H   H79       1.0  0.9700543131116872  0.23220186715325672  0.010828235701940025  1.0000
  H   H80       1.0  0.015820014831140483  0.27368077154809184  0.9965880446048411  1.0000
  C   C121      1.0  0.7862811286857229  0.06932266987440139  0.9378815194714627  1.0000
  C   C122      1.0  0.8019280059607616  0.07374427569962318  0.9847939978065536  1.0000
  C   C123      1.0  0.8361635131136915  0.07873923092834811  0.986605402745183  1.0000
  C   C124      1.0  0.8548752918618456  0.07867506973780491  0.9415506677463266  1.0000
  C   C125      1.0  0.8393872662930669  0.07276289423880122  0.8948547270115201  1.0000
  C   C126      1.0  0.8051054933572129  0.06848531103099464  0.8929584511249179  1.0000
  H   H81       1.0  0.7874557334081931  0.07421595639621482  0.019594628327992192  1.0000
  H   H82       1.0  0.848041996249415  0.08252425185385204  0.022844222715230345  1.0000
  H   H83       1.0  0.8537768530373062  0.07243662435657838  0.8599463260437283  1.0000
  H   H84       1.0  0.7931949228561832  0.06463233053532358  0.8566696971530481  1.0000
  C   C127      1.0  0.7649301511655708  0.07329806709354836  0.673864759718357  1.0000
  C   C128      1.0  0.7618945702056861  0.0478283835980311  0.7105878255256696  1.0000
  C   C129      1.0  0.7629587637142768  0.013214068577836358  0.695902300738523  1.0000
  C   C130      1.0  0.7665461150134341  0.004031027439609813  0.6444298655490133  1.0000
  C   C131      1.0  0.7703174784521644  0.029525923320018466  0.607981565234832  1.0000
  C   C132      1.0  0.7698447513742896  0.064055460164538  0.6226902298945979  1.0000
  H   H85       1.0  0.7587583621080839  0.05473429598163415  0.7503132406052544  1.0000
  H   H86       1.0  0.760190017310299  0.9936017397340875  0.724316149531646  1.0000
  H   H87       1.0  0.7735180434962284  0.022614025245465186  0.5683473550619033  1.0000
  H   H88       1.0  0.7724425153182617  0.08362447949823106  0.5941908613722825  1.0000
  C   C133      1.0  0.35046485202283933  0.2887688699316778  0.9462001272659233  1.0000
  C   C134      1.0  0.3306079500452968  0.29453399273094033  0.9892111146454505  1.0000
  C   C135      1.0  0.2968084049171361  0.29977539681478677  0.9838796341807698  1.0000
  C   C136      1.0  0.2825789625323163  0.29886805331590743  0.9356314703281737  1.0000
  C   C137      1.0  0.30280894265302305  0.2956048034936226  0.8924137043900002  1.0000
  C   C138      1.0  0.3367423020499772  0.2907628511131288  0.8977090898247809  1.0000
  H   H89       1.0  0.34122680769745756  0.29470858096577773  0.026769673786465997  1.0000
  H   H90       1.0  0.28170283601890134  0.3045705225225536  0.017193816593545463  1.0000
  H   H91       1.0  0.2921138878390992  0.29609286488374786  0.8549301152074158  1.0000
  H   H92       1.0  0.35212851126867606  0.2886474207831001  0.8642392333819643  1.0000
  C   C139      1.0  0.40223687208246  0.13975494136821223  0.7365842412767606  1.0000
  C   C140      1.0  0.3977999199516222  0.16622104811543775  0.7021704489288155  1.0000
  C   C141      1.0  0.3851192105617335  0.1590232260173146  0.65361450339863  1.0000
  C   C142      1.0  0.3775162801300438  0.12531534324613025  0.6392556482719783  1.0000
  C   C143      1.0  0.38150405880481664  0.09903894850351103  0.6740451755083888  1.0000
  C   C144      1.0  0.39326079146545934  0.10635501077557574  0.7229040001019962  1.0000
  H   H93       1.0  0.40448458221722183  0.1921506653758546  0.712600591815039  1.0000
  H   H94       1.0  0.38234541802544475  0.17936098752597746  0.6265892964077683  1.0000
  H   H95       1.0  0.37535691774285507  0.07299312271488367  0.6633681311850722  1.0000
  H   H96       1.0  0.3955611266436265  0.08602395678851527  0.7499741329735697  1.0000
  C   C145      1.0  0.5598086747196432  0.22982154461766688  0.8174758395014025  1.0000
  C   C146      1.0  0.5431724524807169  0.19940062583004445  0.8051307075349904  1.0000
  C   C147      1.0  0.5606791848280869  0.16909490502456  0.7981631936764183  1.0000
  C   C148      1.0  0.5948276790296716  0.16886021480408628  0.8042821759101308  1.0000
  C   C149      1.0  0.6114977416217904  0.19922985723048064  0.8171435531429263  1.0000
  C   C150      1.0  0.5939686462194324  0.2297016032750604  0.8233857908098671  1.0000
  H   H97       1.0  0.5167981243804262  0.19913499584106217  0.8009336572748579  1.0000
  H   H98       1.0  0.5476749488839923  0.14575838124408666  0.7884923978591334  1.0000
  H   H99       1.0  0.6378167399961708  0.19918187792840578  0.8223371877791347  1.0000
  H   H100      1.0  0.6066669301866526  0.25311621993282785  0.8334147234699102  1.0000
  C   C151      1.0  0.4481205921621427  0.5064918137051796  0.944138707089835  1.0000
  C   C152      1.0  0.42830376598273484  0.49394051195755334  0.9836397432470615  1.0000
  C   C153      1.0  0.4002260781255168  0.5116670642505354  0.9992639675502715  1.0000
  C   C154      1.0  0.3927403481806282  0.5426879058584931  0.9766955480018312  1.0000
  C   C155      1.0  0.41420943816383  0.5567563310969028  0.9403931714271221  1.0000
  C   C156      1.0  0.44179173085815265  0.5384934298513314  0.9238166719627213  1.0000
  H   H101      1.0  0.434137827630891  0.4700527444619017  0.0010295715087789148  1.0000
  H   H102      1.0  0.38416635604201815  0.501100217651052  0.028246465963408518  1.0000
  H   H103      1.0  0.4087466670323779  0.5810146690712802  0.9234801173687697  1.0000
  H   H104      1.0  0.4580499840416503  0.5490886832026989  0.8951045300168565  1.0000
  C   C157      1.0  0.48142031251989714  0.6165888129015236  0.6851801830182771  1.0000
  C   C158      1.0  0.45231509648855056  0.6005602309662055  0.6693006900342309  1.0000
  C   C159      1.0  0.43316372407439147  0.615669743387873  0.6319291490502482  1.0000
  C   C160      1.0  0.4432693411256058  0.6465779879544988  0.6101500667432241  1.0000
  C   C161      1.0  0.47302362315626795  0.6618481013948472  0.6247307489208881  1.0000
  C   C162      1.0  0.4919320003235179  0.6470549171845049  0.6625932394970857  1.0000
  H   H105      1.0  0.444182594587478  0.576937846965184  0.6865600523731559  1.0000
  H   H106      1.0  0.4102577677297697  0.6036638153542982  0.6204217535686649  1.0000
  H   H107      1.0  0.48160959114375856  0.6848878654333821  0.6066188646166722  1.0000
  H   H108      1.0  0.5147330956714172  0.6591756639695937  0.6742935452843157  1.0000
  C   C163      1.0  0.3983321751878637  0.4172918510160615  0.7065291832808622  1.0000
  C   C164      1.0  0.4098034965260362  0.39978206562588436  0.7487667941821526  1.0000
  C   C165      1.0  0.40937633457944983  0.3639660869422391  0.7487909056644146  1.0000
  C   C166      1.0  0.3978399115637862  0.3456120764197539  0.7063860944238385  1.0000
  C   C167      1.0  0.3857049738338096  0.3631952991624001  0.6647643538939885  1.0000
  C   C168      1.0  0.38567748161501786  0.39895155235789437  0.6650204714145542  1.0000
  H   H109      1.0  0.4185605787013965  0.4137926475128503  0.7816791446435675  1.0000
  H   H110      1.0  0.41787103009947923  0.3506946185724907  0.7815650175451212  1.0000
  H   H111      1.0  0.3765501021387466  0.34914294907039145  0.6320077998728304  1.0000
  H   H112      1.0  0.37655532963369964  0.41238867199928897  0.6324662395897547  1.0000
  C   C169      1.0  0.847404253884678  0.46443831043742134  0.9809410679317913  1.0000
  C   C170      1.0  0.8585990831562418  0.48224610351063124  0.9380813214794865  1.0000
  C   C171      1.0  0.8910973831433181  0.49484349474097244  0.9359304701766086  1.0000
  C   C172      1.0  0.9121796497858644  0.4897055562138211  0.9767532486628073  1.0000
  C   C173      1.0  0.9002964246060362  0.4736595765448047  0.0203585880535071  1.0000
  C   C174      1.0  0.8680865847045987  0.46080060218019947  0.022512835949863863  1.0000
  H   H113      1.0  0.8423480154597341  0.4863324511744352  0.9065740836116353  1.0000
  H   H114      1.0  0.9000820079651439  0.5077888971901191  0.9022569233628096  1.0000
  H   H115      1.0  0.9161632083111059  0.47131045956444223  0.05245668888814481  1.0000
  H   H116      1.0  0.8594151630263627  0.44765677280945076  0.05620545666931487  1.0000
  C   C175      1.0  0.7625155940073738  0.5430327458816891  0.7463466640154846  1.0000
  C   C176      1.0  0.7693300982114795  0.5748881280507437  0.7250215265277111  1.0000
  C   C177      1.0  0.7435405968689813  0.5960489768469341  0.7113419354848017  1.0000
  C   C178      1.0  0.7109800724962134  0.5856089724896277  0.7199738102267482  1.0000
  C   C179      1.0  0.7041635105448152  0.5543401717324867  0.743254236851484  1.0000
  C   C180      1.0  0.7299680878477804  0.5328855860897782  0.7561061826561742  1.0000
  H   H117      1.0  0.7945390801209437  0.5829301864342449  0.7181902757347025  1.0000
  H   H118      1.0  0.7488571463370046  0.6205148507940886  0.6943525348250658  1.0000
  H   H119      1.0  0.67896793676952  0.5462845878057467  0.7501425213588176  1.0000
  H   H120      1.0  0.7246110001602777  0.5083052006385739  0.7727674862912204  1.0000
  C   C181      1.0  0.6398560770833569  0.4297519305488044  0.8218455832100119  1.0000
  C   C182      1.0  0.6496571776440885  0.4310900893033405  0.770665953520719  1.0000
  C   C183      1.0  0.6263320367122529  0.4369266415731128  0.732901434414689  1.0000
  C   C184      1.0  0.5933902481717633  0.44211162810122473  0.7464910198370617  1.0000
  C   C185      1.0  0.5835961884331095  0.44059506650913316  0.7975871150113575  1.0000
  C   C186      1.0  0.6067472423823073  0.434019839354366  0.8351235021273359  1.0000
  H   H121      1.0  0.675096465171411  0.4275426581286626  0.7601270524210686  1.0000
  H   H122      1.0  0.6339263719878665  0.43805242526226706  0.6933452200234225  1.0000
  H   H123      1.0  0.558193312741288  0.4445368026355129  0.8083754492755968  1.0000
  H   H124      1.0  0.5990893336622694  0.43296262861067114  0.8746914825716273  1.0000
  C   C187      1.0  0.789048702802262  0.31120750111378415  0.8085244242030521  1.0000
  C   C188      1.0  0.779764142285834  0.2811848201038174  0.782664406639703  1.0000
  C   C189      1.0  0.7662478906502277  0.25361279511557155  0.809755338214174  1.0000
  C   C190      1.0  0.7624329547621741  0.25614614978201067  0.8626425128626914  1.0000
  C   C191      1.0  0.7732714685148037  0.2854800289106581  0.8885946018405187  1.0000
  C   C192      1.0  0.7865087026343504  0.3130005527749138  0.861540042948489  1.0000
  H   H125      1.0  0.7819156270334058  0.2797056186242362  0.7415784356143651  1.0000
  H   H126      1.0  0.7580506100724514  0.2308239660376311  0.7896281742448245  1.0000
  H   H127      1.0  0.7705706784478218  0.2872887183171997  0.9295938332662649  1.0000
  H   H128      1.0  0.7945559887227337  0.33569557905182185  0.8817114828161489  1.0000
  N   N1        1.0  0.29797171036321046  0.08078358172893751  0.4253317753975583  1.0000
  C   C193      1.0  0.2795874258693276  0.09632660160179629  0.38358529448188206  1.0000
  C   C194      1.0  0.2751478028485735  0.07314890562070508  0.4680049558595074  1.0000
  C   C195      1.0  0.32399574218255783  0.10468056604330478  0.4430682889283315  1.0000
  C   C196      1.0  0.31306226230488055  0.04884712992229967  0.4066671466064511  1.0000
  H   H129      1.0  0.29576389488866694  0.10196387104318472  0.35016505273299536  1.0000
  H   H130      1.0  0.2679153000456955  0.12061363413678805  0.39584182037220916  1.0000
  H   H131      1.0  0.2595735179327328  0.07896129874223923  0.3698307983722502  1.0000
  H   H132      1.0  0.26364161848164736  0.09672320008096524  0.48349490179971677  1.0000
  H   H133      1.0  0.2548542678695541  0.05560027609072704  0.4557191169222301  1.0000
  H   H134      1.0  0.28807900619971605  0.06077922379777778  0.49986167138660176  1.0000
  H   H135      1.0  0.3135912670001056  0.12925471303076685  0.45689250885484656  1.0000
  H   H136      1.0  0.34210051781159606  0.11047560665924383  0.4121735692585613  1.0000
  H   H137      1.0  0.3378515926933655  0.09389790855734392  0.4753198836352417  1.0000
  H   H138      1.0  0.3274880200684713  0.03657994315755775  0.43694568504487474  1.0000
  H   H139      1.0  0.3301222163618305  0.05346728383152888  0.37397801784759666  1.0000
  H   H140      1.0  0.2940753263439361  0.03002137147664219  0.3936977736035201  1.0000
  N   N2        1.0  0.7778939901040742  0.5138612119351573  0.5854621433154932  1.0000
  C   C197      1.0  0.8059815087416833  0.5176645854162972  0.5496599458219682  1.0000
  C   C198      1.0  0.7677970255148578  0.5478542783985896  0.6042039848078504  1.0000
  C   C199      1.0  0.7877232379543605  0.49300453804255634  0.6290563177447557  1.0000
  C   C200      1.0  0.7500211136100444  0.49703840644475833  0.5590951521089841  1.0000
  H   H141      1.0  0.8148008932939375  0.4924682839955311  0.5356805360065836  1.0000
  H   H142      1.0  0.8270507367230893  0.5313518347481491  0.567841541169471  1.0000
  H   H143      1.0  0.7991095999126535  0.5325273301778182  0.5156893357092045  1.0000
  H   H144      1.0  0.7882057363106012  0.5613502104888327  0.6242837875168168  1.0000
  H   H145      1.0  0.7602628060618782  0.5643949135838545  0.5725806883336335  1.0000
  H   H146      1.0  0.7465248488731909  0.5459238642660332  0.6310919442760775  1.0000
  H   H147      1.0  0.7673149652436939  0.49021296884231313  0.6574428687234943  1.0000
  H   H148      1.0  0.8088441563950821  0.5049769881558306  0.6495968150248308  1.0000
  H   H149      1.0  0.7951607741392872  0.4669587035471733  0.6167654763706282  1.0000
  H   H150      1.0  0.7284317186732137  0.49386660465025545  0.5851233739077244  1.0000
  H   H151      1.0  0.7567628373103524  0.4713693290613606  0.5441438616128841  1.0000
  H   H152      1.0  0.7419189196185373  0.512364766354005  0.5261761884277294  1.0000
  N   N3        1.0  0.9630438212207573  0.5892003887174192  0.09991618560791227  1.0000
  C   C201      1.0  0.9859920365123047  0.574948158018397  0.061444126754481854  1.0000
  C   C202      1.0  0.9297551881654299  0.5905287986151236  0.07814208031131442  1.0000
  C   C203      1.0  0.974129183927168  0.6239564949692021  0.11477735350986329  1.0000
  C   C204      1.0  0.9621762879531366  0.5673480674882424  0.14536125870114192  1.0000
  H   H153      1.0  0.011101341503457318  0.5720896491821942  0.07705843945666424  1.0000
  H   H154      1.0  0.9879811462598268  0.5913835334366321  0.027289360307563237  1.0000
  H   H155      1.0  0.9774892508110887  0.5493461853578798  0.04786236879461003  1.0000
  H   H156      1.0  0.9119060986962186  0.6017395855035771  0.1058386036136385  1.0000
  H   H157      1.0  0.9295352712824891  0.6062376096154861  0.04318655845804753  1.0000
  H   H158      1.0  0.9204189010671786  0.5644880609615737  0.06777635309917462  1.0000
  H   H159      1.0  0.9573202355300596  0.6353755227049523  0.1437566633738343  1.0000
  H   H160      1.0  0.9749808930485371  0.6414088898401624  0.0817190294746406  1.0000
  H   H161      1.0  0.9990361590334778  0.623924003289502  0.1318919270379526  1.0000
  H   H162      1.0  0.9454240319465498  0.5777778128849542  0.17533729045461088  1.0000
  H   H163      1.0  0.9869161867367413  0.565066985089017  0.16248194330506016  1.0000
  H   H164      1.0  0.9531128175131064  0.54112247232507  0.1359429584345917  1.0000
  N   N4        1.0  0.3412787295453313  0.49419542114679005  0.8286037871323404  1.0000
  C   C205      1.0  0.34481204339177196  0.5124867613809561  0.779924968237605  1.0000
  C   C206      1.0  0.30605972074519394  0.4877219319910474  0.839906399517056  1.0000
  C   C207      1.0  0.35575990681734776  0.5152036064843335  0.8699245511489541  1.0000
  C   C208      1.0  0.3586847782699701  0.461414542614558  0.824734565050141  1.0000
  H   H165      1.0  0.37113838580036007  0.5179540558564333  0.7705690407834017  1.0000
  H   H166      1.0  0.3318371893723921  0.5372716434439819  0.7812264559646629  1.0000
  H   H167      1.0  0.3348349076786839  0.49704960067191184  0.7475492068615136  1.0000
  H   H168      1.0  0.30249705542754607  0.4740835606312832  0.8765686854185343  1.0000
  H   H169      1.0  0.29226511025192536  0.5119944877409799  0.8433536405443088  1.0000
  H   H170      1.0  0.29432291903208024  0.471880616051494  0.809481946382557  1.0000
  H   H171      1.0  0.35379289068413944  0.5022010638145212  0.9072467315641969  1.0000
  H   H172      1.0  0.3432700220835979  0.5401757960457957  0.874548751431563  1.0000
  H   H173      1.0  0.3822866072149409  0.5206989569800154  0.8625365274708547  1.0000
  H   H174      1.0  0.3492094876308901  0.4453289304067591  0.7926637079590707  1.0000
  H   H175      1.0  0.3559171926412495  0.44655234485631856  0.8603128164262553  1.0000
  H   H176      1.0  0.3854696160077441  0.465619882015556  0.8173968288115896  1.0000
  N   N5        1.0  0.6584556533865866  0.07847780839332041  0.6500119763730078  1.0000
  C   C209      1.0  0.676272037406994  0.11070033368776518  0.6617174426516285  1.0000
  C   C210      1.0  0.6803286656888337  0.049313355968255035  0.6580296457120061  1.0000
  C   C211      1.0  0.6479506418763177  0.07870005791247858  0.5963419329849797  1.0000
  C   C212      1.0  0.6293724161725318  0.07519917387999286  0.6839234664769968  1.0000
  H   H177      1.0  0.6850773602892556  0.11130159216987817  0.7015377099117618  1.0000
  H   H178      1.0  0.6603920401082307  0.1332704610744315  0.6570816979033548  1.0000
  H   H179      1.0  0.6983514500804882  0.11399488773095186  0.6366798404948898  1.0000
  H   H180      1.0  0.6676046431971363  0.024504537108218653  0.6500101122198476  1.0000
  H   H181      1.0  0.7023901014274517  0.050732478472944154  0.6328305972722214  1.0000
  H   H182      1.0  0.6892643141346974  0.04868981817971019  0.6978974192859908  1.0000
  H   H183      1.0  0.6344785017503013  0.05481563307050075  0.585930391000591  1.0000
  H   H184      1.0  0.6694561283083281  0.08087661009533577  0.5698987055093441  1.0000
  H   H185      1.0  0.6313613458443577  0.10034445709250575  0.5889909812173854  1.0000
  H   H186      1.0  0.6367021563828614  0.07433450775633178  0.7246443176594156  1.0000
  H   H187      1.0  0.615098160121896  0.051380531737977186  0.6753024056187197  1.0000
  H   H188      1.0  0.6126866323682562  0.09724083440574886  0.6802227869214313  1.0000
  N   N6        1.0  0.8086307214098689  0.717336614747558  0.4251235842749612  1.0000
  C   C213      1.0  0.7927631540385042  0.751000880923818  0.4259778156600201  1.0000
  C   C214      1.0  0.8255160291892985  0.7118362223401224  0.375626418531991  1.0000
  C   C215      1.0  0.7833763974976808  0.6903119577723525  0.43255171322353636  1.0000
  C   C216      1.0  0.8328846326975162  0.7162096341045017  0.4664819919112072  1.0000
  H   H189      1.0  0.7744657954636713  0.7529716191053809  0.3950602910143615  1.0000
  H   H190      1.0  0.8111626271943108  0.7720673751328286  0.42128106378796004  1.0000
  H   H191      1.0  0.779610767830782  0.755658022709619  0.4627163599538942  1.0000
  H   H192      1.0  0.8384440605055037  0.6869841766602267  0.37443131212978575  1.0000
  H   H193      1.0  0.8078785832264064  0.7114733914958117  0.34354829104870827  1.0000
  H   H194      1.0  0.844253701869585  0.7321827868317748  0.3680989070492512  1.0000
  H   H195      1.0  0.7637171420056452  0.6916117810758833  0.4035775765867846  1.0000
  H   H196      1.0  0.7714557740499867  0.6924351841620416  0.47081235498166085  1.0000
  H   H197      1.0  0.7941824835815462  0.6645158769788272  0.42913481916526  1.0000
  H   H198      1.0  0.8208102461157329  0.71910195654784  0.5045805581500131  1.0000
  H   H199      1.0  0.8517605234971632  0.7368814560240802  0.4626429845829228  1.0000
  H   H200      1.0  0.8462237093110314  0.6916683017625316  0.4658679882798498  1.0000
  N   N7        1.0  0.3043947355761789  0.19263914626117248  0.7668189321838959  1.0000
  C   C217      1.0  0.3208306644388546  0.2103681525490136  0.7239133989516081  1.0000
  C   C218      1.0  0.273482798216862  0.1764817465860443  0.7489481744013666  1.0000
  C   C219      1.0  0.2969153258621435  0.21750094567900619  0.8080717193697704  1.0000
  C   C220      1.0  0.3262355330576563  0.1660424518327279  0.786173928971073  1.0000
  H   H201      1.0  0.3053046487118229  0.23093348092430505  0.7086763811813496  1.0000
  H   H202      1.0  0.32649429949952435  0.19236840054422644  0.691939324384827  1.0000
  H   H203      1.0  0.34454190125853346  0.22245793167955716  0.7355614574211583  1.0000
  H   H204      1.0  0.27824929058978365  0.1575241365797616  0.7178362479447322  1.0000
  H   H205      1.0  0.2604311932829175  0.16281056669881241  0.780321792652646  1.0000
  H   H206      1.0  0.2563809684844957  0.1957703126624424  0.7339942289171447  1.0000
  H   H207      1.0  0.2843860534833556  0.20504478359034503  0.8410176727695444  1.0000
  H   H208      1.0  0.28059248455202285  0.23804838393743089  0.7947868710084808  1.0000
  H   H209      1.0  0.3196249315319135  0.23011029204834033  0.822721238398401  1.0000
  H   H210      1.0  0.3321873358216632  0.14674529095587732  0.7560676996237348  1.0000
  H   H211      1.0  0.31483177632497533  0.15223392828700935  0.8188008236172029  1.0000
  H   H212      1.0  0.3500286360203035  0.17710704896541918  0.799489853931142  1.0000
  N   N8        1.0  0.4209718152288824  0.7183946746952093  0.738058476386918  1.0000
  C   C221      1.0  0.45452899308266304  0.7318683808943146  0.7281405734357892  1.0000
  C   C222      1.0  0.4050523583494414  0.7393109377296806  0.7782824947073753  1.0000
  C   C223      1.0  0.4227610279573002  0.6825559139967701  0.754611364482553  1.0000
  C   C224      1.0  0.40156256038557947  0.7199712190363221  0.6909774824513153  1.0000
  H   H213      1.0  0.4673224225052819  0.716536512785374  0.6981860617374508  1.0000
  H   H214      1.0  0.4698288489434965  0.731291397909735  0.7629380234719955  1.0000
  H   H215      1.0  0.45401015999461203  0.7587822933626613  0.7149670246963459  1.0000
  H   H216      1.0  0.37952997555079593  0.7301218750250791  0.7863897680997676  1.0000
  H   H217      1.0  0.4189377394213596  0.7386320789138867  0.8145087798525753  1.0000
  H   H218      1.0  0.40359916616490277  0.766556063072309  0.7667564644862479  1.0000
  H   H219      1.0  0.39792634610151345  0.6716506520685662  0.7631135029165709  1.0000
  H   H220      1.0  0.43792834688876603  0.6801486901901341  0.7893530485566834  1.0000
  H   H221      1.0  0.4340406632054681  0.6660890568307316  0.7245002886287834  1.0000
  H   H222      1.0  0.3763744033364207  0.7090962837810704  0.6964007903291526  1.0000
  H   H223      1.0  0.4133774455714756  0.7053587786702179  0.6593680390625833  1.0000
  H   H224      1.0  0.39905647249912946  0.7467166373142032  0.678062618737042  1.0000
  N   N9        1.0  0.49066794690812804  0.06830052610723181  0.7315779112857662  1.0000
  C   C225      1.0  0.5030063521728112  0.04297618516894386  0.69404390674215  1.0000
  C   C226      1.0  0.4610405294738835  0.05429868395700632  0.7573793451192837  1.0000
  C   C227      1.0  0.4821849683648263  0.10007395468024094  0.7053069533561678  1.0000
  C   C228      1.0  0.5163134404227104  0.07584893156501904  0.7697032574327655  1.0000
  H   H225      1.0  0.5250175922737674  0.052767346908032975  0.6730020064007883  1.0000
  H   H226      1.0  0.4839614892670924  0.036171549660928726  0.665446225181399  1.0000
  H   H227      1.0  0.5097526447200814  0.018754411344052757  0.7126856768565619  1.0000
  H   H228      1.0  0.44131533333277684  0.04808326540476937  0.7295274246467928  1.0000
  H   H229      1.0  0.4663730317456828  0.030224836955822676  0.7775051326143714  1.0000
  H   H230      1.0  0.4508573396994145  0.07283221140978369  0.785758289626538  1.0000
  H   H231      1.0  0.503720027168558  0.11105285178824054  0.6844244009091974  1.0000
  H   H232      1.0  0.4733721307803437  0.11991115712097766  0.732790578398318  1.0000
  H   H233      1.0  0.4621884897413295  0.09557752225380978  0.6773171730161309  1.0000
  H   H234      1.0  0.5077007126956795  0.09488191795493495  0.798618735712243  1.0000
  H   H235      1.0  0.5390845703742639  0.08649137263533535  0.7516234434326104  1.0000
  H   H236      1.0  0.5232508597285885  0.05250166764979891  0.7904679142135239  1.0000
  N   N10       1.0  0.8821747973754369  0.37120838290182656  0.9082569957856175  1.0000
  C   C229      1.0  0.8516508748865098  0.37463223759555103  0.9388508028878861  1.0000
  C   C230      1.0  0.8976613659905623  0.4052287111233861  0.9013332137540305  1.0000
  C   C231      1.0  0.8743067512749866  0.35597357961090914  0.8579893798855596  1.0000
  C   C232      1.0  0.9051221138439615  0.3490582088899345  0.935174877682118  1.0000
  H   H237      1.0  0.8396956914867484  0.34940634257216574  0.9459819834045707  1.0000
  H   H238      1.0  0.8334618099152021  0.39065144559215226  0.9193320531475991  1.0000
  H   H239      1.0  0.856479171332741  0.3869389939967632  0.9765577804933815  1.0000
  H   H240      1.0  0.8810007508321358  0.42282688089698484  0.881540692583539  1.0000
  H   H241      1.0  0.903986066246107  0.4174249063848326  0.9385633785999697  1.0000
  H   H242      1.0  0.9207707826297379  0.40369865482994066  0.8783926680456994  1.0000
  H   H243      1.0  0.8967860862939571  0.3525529015115557  0.834054699773038  1.0000
  H   H244      1.0  0.8573785039983152  0.3723723378860463  0.8364137189681519  1.0000
  H   H245      1.0  0.861946068663936  0.3305786380815546  0.8617123259879838  1.0000
  H   H246      1.0  0.8943897566714452  0.32311732553296396  0.9414159178857442  1.0000
  H   H247      1.0  0.9112809005841486  0.36010671153317364  0.973146653022667  1.0000
  H   H248      1.0  0.9286504447295982  0.34597596443352957  0.9136345776908231  1.0000
  N   N11       1.0  0.33013008383414477  0.6958145219469921  0.328206353317975  1.0000
  C   C233      1.0  0.33595125011766797  0.6906568236250374  0.27298491024718213  1.0000
  C   C234      1.0  0.335057139042471  0.6633332428267691  0.35485025201953974  1.0000
  C   C235      1.0  0.2960436601211742  0.7072379079030018  0.3370347143101764  1.0000
  C   C236      1.0  0.35341195853567503  0.7219411598955753  0.34800166722612996  1.0000
  H   H249      1.0  0.3308446830949495  0.7142285089759177  0.251350489465831  1.0000
  H   H250      1.0  0.31959035372086325  0.6701841166801644  0.25721365838529403  1.0000
  H   H251      1.0  0.3617469271551795  0.6832413328027123  0.2645437793273212  1.0000
  H   H252      1.0  0.33075346881881734  0.6663418077558796  0.39662987592239357  1.0000
  H   H253      1.0  0.31784415438248803  0.6430480129681699  0.340748539979002  1.0000
  H   H254      1.0  0.36055641285499646  0.6539826479493628  0.3491062423747465  1.0000
  H   H255      1.0  0.29078176120515326  0.71184632931187  0.37823997364821793  1.0000
  H   H256      1.0  0.2779122463204836  0.6879105714785795  0.32286594580399874  1.0000
  H   H257      1.0  0.29119382254134646  0.7313810745174787  0.31671097463190895  1.0000
  H   H258      1.0  0.3498287503573686  0.7471031897499969  0.32981304649749  1.0000
  H   H259      1.0  0.37941622552767407  0.7145989565480675  0.34111064891982457  1.0000
  H   H260      1.0  0.3502571165499441  0.7257874722360903  0.38982373128370673  1.0000
  N   N12       1.0  0.7982742333823709  0.5421964649773912  0.06777936654010208  1.0000
  C   C237      1.0  0.801781771030955  0.5116860635176296  0.09966827075086848  1.0000
  C   C238      1.0  0.7867894989239338  0.5709980702815419  0.09991311541778614  1.0000
  C   C239      1.0  0.774168340152946  0.5348494219429237  0.027227931610322997  1.0000
  C   C240      1.0  0.8303982021002247  0.5512543074090804  0.04436044140165074  1.0000
  H   H261      1.0  0.8109906525207067  0.4895847037261057  0.0769433404072104  1.0000
  H   H262      1.0  0.777884357650941  0.5037300721252957  0.11713229010258686  1.0000
  H   H263      1.0  0.8193118034247883  0.5165573147921919  0.1312913952421526  1.0000
  H   H264      1.0  0.7839264310520557  0.5945479961772391  0.07727750480841333  1.0000
  H   H265      1.0  0.762665272244513  0.5650124537199038  0.11838472818415346  1.0000
  H   H266      1.0  0.8045208458055871  0.5771246552960483  0.13089835117375137  1.0000
  H   H267      1.0  0.7707682493739743  0.5573304378554852  0.0024866684019460017  1.0000
  H   H268      1.0  0.7496988985227313  0.5274961497597676  0.04336856159086855  1.0000
  H   H269      1.0  0.7822735656373765  0.5133605656711795  0.0021344819454440778  1.0000
  H   H270      1.0  0.8287228170413979  0.5743385157168674  0.02039959670099134  1.0000
  H   H271      1.0  0.8396930640532136  0.5302156863383315  0.0196335972808237  1.0000
  H   H272      1.0  0.849295817491748  0.5564837608864127  0.07378213889897434  1.0000
  N   N13       1.0  0.40510048112976677  0.385802831291567  0.9702367362693152  1.0000
  C   C241      1.0  0.4002177678842296  0.36233379280007416  0.013371052609061128  1.0000
  C   C242      1.0  0.39585669881720004  0.3682402211336645  0.92225681567428  1.0000
  C   C243      1.0  0.44001859475574234  0.3966736109711387  0.9673103964531913  1.0000
  C   C244      1.0  0.3842151410231727  0.4159601123738746  0.9780944662348109  1.0000
  H   H273      1.0  0.37409831740975275  0.35366397226552854  0.016751648301741584  1.0000
  H   H274      1.0  0.40671173717189973  0.37491192777644716  0.050238184539296064  1.0000
  H   H275      1.0  0.41554677849177407  0.33918909741131215  0.00888678823971234  1.0000
  H   H276      1.0  0.39928367171997575  0.3851824489222821  0.8889066277857554  1.0000
  H   H277      1.0  0.41105373608218776  0.34523415760191095  0.9153363907929711  1.0000
  H   H278      1.0  0.36969185772251106  0.35947826566015045  0.9233601879672809  1.0000
  H   H279      1.0  0.4445616154476218  0.414894680515032  0.9357119978075843  1.0000
  H   H280      1.0  0.4564201517609071  0.3745206111887595  0.9608389441141728  1.0000
  H   H281      1.0  0.4479519440657685  0.4097281315758275  0.003111200053297125  1.0000
  H   H282      1.0  0.38749025320559805  0.43458801772655026  0.9468081403365497  1.0000
  H   H283      1.0  0.390285586475361  0.4295693690162407  0.014320426941295317  1.0000
  H   H284      1.0  0.35773098003815135  0.40850646779581035  0.9807329444797427  1.0000
  N   N14       1.0  0.8404610889809965  0.18718371190590286  0.9145477738716974  1.0000
  C   C245      1.0  0.87410831596147  0.1735862184795949  0.9157437657957717  1.0000
  C   C246      1.0  0.8171542838334138  0.16236121127150052  0.9374996891230435  1.0000
  C   C247      1.0  0.8314012183776593  0.19304213685008342  0.8610890211269667  1.0000
  C   C248      1.0  0.8391227393451066  0.21960751150722357  0.9437806911638765  1.0000
  H   H285      1.0  0.8924442117546995  0.191771680503888  0.8993000065221347  1.0000
  H   H286      1.0  0.8758727085432686  0.14911283931864863  0.893881354275416  1.0000
  H   H287      1.0  0.8817468666786977  0.16831354743784635  0.9552322269464907  1.0000
  H   H288      1.0  0.8238393218396857  0.15628798699342514  0.9772760426523815  1.0000
  H   H289      1.0  0.7915497457059291  0.1720796199624446  0.9382060713648895  1.0000
  H   H290      1.0  0.8167973225019461  0.13795610029199262  0.9156729487291094  1.0000
  H   H291      1.0  0.8056650355489297  0.2017571636976122  0.858392678025805  1.0000
  H   H292      1.0  0.8332032276784225  0.16915747169942147  0.8378001818897393  1.0000
  H   H293      1.0  0.8475836339918593  0.21267511904490494  0.8430999600774363  1.0000
  H   H294      1.0  0.8140630387992457  0.2306546143899332  0.9428776176264158  1.0000
  H   H295      1.0  0.8568437833464959  0.23885538687071514  0.9284693570960514  1.0000
  H   H296      1.0  0.8453624635300947  0.21572993473050556  0.9844780731817452  1.0000
  N   N15       1.0  0.3345629161814876  0.20199272621620779  0.08545280184276649  1.0000
  C   C249      1.0  0.3192078893545725  0.23075609563199317  0.11336041672956787  1.0000
  C   C250      1.0  0.33769473491040625  0.17282494911355384  0.12010853594799364  1.0000
  C   C251      1.0  0.36742864131264996  0.21275394214149523  0.0664736352343287  1.0000
  C   C252      1.0  0.31387920385810425  0.191600534150685  0.04184697643166402  1.0000
  H   H297      1.0  0.3160104324338937  0.2532032963297499  0.0884587194364308  1.0000
  H   H298      1.0  0.33423842495248857  0.23948911082130286  0.1462810418401821  1.0000
  H   H299      1.0  0.2944620150021423  0.22356674455857983  0.12870484106504576  1.0000
  H   H300      1.0  0.3131666882269329  0.16410141810327472  0.13476158647962277  1.0000
  H   H301      1.0  0.34920172459873267  0.15060342348893285  0.10043655076840619  1.0000
  H   H302      1.0  0.35300432706037993  0.1797059732964259  0.15365092390987356  1.0000
  H   H303      1.0  0.37984006753316896  0.19173375126661263  0.04521885912393686  1.0000
  H   H304      1.0  0.3837359310889995  0.2210049539036394  0.09818276695750283  1.0000
  H   H305      1.0  0.36576789180012376  0.2346156450931296  0.03992882472916204  1.0000
  H   H306      1.0  0.32477673332862445  0.16994405962645365  0.020037232441139086  1.0000
  H   H307      1.0  0.3109115496348698  0.21299770009394026  0.014833398355452054  1.0000
  H   H308      1.0  0.28885789412770446  0.1831345335344936  0.05463442191752721  1.0000
  N   N16       1.0  0.672388811783177  0.3166368407052313  0.8480629144950399  1.0000
  C   C253      1.0  0.674049765729335  0.27934655349835075  0.8394684111599215  1.0000
  C   C254      1.0  0.6916965928670478  0.33435194167922755  0.8080428101989315  1.0000
  C   C255      1.0  0.6861298999985223  0.32546600812117216  0.8984726315183346  1.0000
  C   C256      1.0  0.6377364367821076  0.3273897742190416  0.8463725495491387  1.0000
  H   H309      1.0  0.66107323609307  0.2650076913429122  0.8702305674348351  1.0000
  H   H310      1.0  0.6998331604615033  0.27056298134956397  0.8387812876876882  1.0000
  H   H311      1.0  0.6630092827018009  0.27152730147092946  0.802481456008883  1.0000
  H   H312      1.0  0.7180658516085663  0.327113298197742  0.8087065772199178  1.0000
  H   H313      1.0  0.6822676755723357  0.32811930076263895  0.7694107435543026  1.0000
  H   H314      1.0  0.6907997245366815  0.3625643286741173  0.8132074234147544  1.0000
  H   H315      1.0  0.6722795324590037  0.31249782700714607  0.9296523377000052  1.0000
  H   H316      1.0  0.6852309121280226  0.35346939138201106  0.9061873000957023  1.0000
  H   H317      1.0  0.7122485747950689  0.3177617197063488  0.9010353224672915  1.0000
  H   H318      1.0  0.6355788689630466  0.3553879237731907  0.8532257551095158  1.0000
  H   H319      1.0  0.6224585634062865  0.31431787335934963  0.8759135179577135  1.0000
  H   H320      1.0  0.6266094462940996  0.3214130999447376  0.8087559791972313  1.0000
  N   N17       1.0  0.35359510468065153  0.8778995049277446  0.5347851591293624  1.0000
  C   C257      1.0  0.38468064653191114  0.8831891004655605  0.5060729049527495  1.0000
  C   C258      1.0  0.348646618597732  0.9067297676424892  0.5707979002716296  1.0000
  C   C259      1.0  0.3551988743603592  0.8457621779593122  0.5633019146860122  1.0000
  C   C260      1.0  0.32591786070228124  0.8756631943371317  0.49887288449389544  1.0000
  H   H321      1.0  0.40601725691860585  0.8854984057283968  0.5319285425131485  1.0000
  H   H322      1.0  0.3842972021269975  0.9068509065046406  0.48340298899397427  1.0000
  H   H323      1.0  0.38927312921917606  0.861842575959877  0.4786836422693918  1.0000
  H   H324      1.0  0.3689912446575576  0.9088325163168425  0.5987348412768728  1.0000
  H   H325      1.0  0.3477541090626778  0.9314332675947576  0.550512261194246  1.0000
  H   H326      1.0  0.32524373634745374  0.9037948351787919  0.5927116055587557  1.0000
  H   H327      1.0  0.35862174255575574  0.8236222733453495  0.5369624857092041  1.0000
  H   H328      1.0  0.33228059207435034  0.840951961378435  0.5857474827257713  1.0000
  H   H329      1.0  0.3760176521488369  0.8462292420289019  0.5903810291049041  1.0000
  H   H330      1.0  0.32386206700995257  0.8993836745133497  0.4766258809221522  1.0000
  H   H331      1.0  0.3020797601128543  0.8712494347952305  0.5190225817364499  1.0000
  H   H332      1.0  0.3293269349170008  0.8545106570964249  0.47075764658289543  1.0000
  N   N18       1.0  0.5567825249519945  0.8995102580707103  0.4989541712875825  1.0000
  C   C261      1.0  0.5494521412368513  0.9310913363371329  0.47132544869429144  1.0000
  C   C262      1.0  0.525680078573346  0.8826798671440612  0.5151255498459092  1.0000
  C   C263      1.0  0.5765983367366087  0.9081586197698062  0.5442709593241746  1.0000
  C   C264      1.0  0.5754231518221079  0.8761241702721827  0.46514141202779397  1.0000
  H   H333      1.0  0.572402301501332  0.9447115628334419  0.45917567489933075  1.0000
  H   H334      1.0  0.5351697528775171  0.9492265094017267  0.495574714099576  1.0000
  H   H335      1.0  0.5347937223353855  0.9256112609256179  0.43657918592251627  1.0000
  H   H336      1.0  0.5107782660171509  0.8997084340940172  0.5402609436376561  1.0000
  H   H337      1.0  0.5103755090653059  0.875244722348499  0.48177293250082315  1.0000
  H   H338      1.0  0.530348248130394  0.8588695753534421  0.5363780055255427  1.0000
  H   H339      1.0  0.5827633152608428  0.8849862604231424  0.565945992395594  1.0000
  H   H340      1.0  0.5634117402679655  0.9259594773748806  0.5705495670363121  1.0000
  H   H341      1.0  0.6002203162748749  0.9209334984225919  0.5334650870392013  1.0000
  H   H342      1.0  0.5817475497416917  0.8521311648320155  0.48485373751533234  1.0000
  H   H343      1.0  0.5989320510088487  0.8880829107588478  0.4517512287095869  1.0000
  H   H344      1.0  0.5610695195572778  0.8685856370866616  0.4308736609893885  1.0000
  N   N19       1.0  0.6244820965030015  0.7792000469270378  0.6209656513663278  1.0000
  C   C265      1.0  0.6194145063153489  0.7994296356983802  0.5747232274878494  1.0000
  C   C266      1.0  0.6057892052760153  0.7466396253578872  0.6168381687459743  1.0000
  C   C267      1.0  0.6128762831022894  0.7986802120357082  0.6660434454944015  1.0000
  C   C268      1.0  0.6598740128788512  0.7720595765398309  0.6260573138696065  1.0000
  H   H345      1.0  0.592921548580887  0.8046531119793462  0.5686821833838215  1.0000
  H   H346      1.0  0.628362332224804  0.7855289403428445  0.5403732150600361  1.0000
  H   H347      1.0  0.6331077122057398  0.8242407180728566  0.576178518431274  1.0000
  H   H348      1.0  0.6085034394999783  0.7308567898132375  0.6514043160147907  1.0000
  H   H349      1.0  0.5790921265541389  0.7509270077048205  0.6109916322957467  1.0000
  H   H350      1.0  0.614556974973085  0.7310135381762135  0.5838768895569146  1.0000
  H   H351      1.0  0.6163731560296289  0.7841479144551793  0.7016720119262345  1.0000
  H   H352      1.0  0.586250850013379  0.8044766008961298  0.6632577510830894  1.0000
  H   H353      1.0  0.6265621825205094  0.8233767118113827  0.6701463629969981  1.0000
  H   H354      1.0  0.6691644008125391  0.7567301548704706  0.5931520030201165  1.0000
  H   H355      1.0  0.6648694507524101  0.7572838224827405  0.6609565348511748  1.0000
  H   H356      1.0  0.6749836702195786  0.795981279829311  0.6275178504918596  1.0000
  N   N20       1.0  0.13868978910498578  0.5870607678752238  0.19337512513535304  1.0000
  C   C269      1.0  0.10698105476736686  0.5864637506506132  0.2214749242231504  1.0000
  C   C270      1.0  0.15864356524330714  0.5578629934057943  0.20898639696079502  1.0000
  C   C271      1.0  0.15652171936278697  0.6193228204992576  0.20497184725313633  1.0000
  C   C272      1.0  0.1326085537697419  0.5845320058375724  0.1380656557279254  1.0000
  H   H357      1.0  0.09148501369599497  0.6084855338231787  0.21131388108365212  1.0000
  H   H358      1.0  0.11074554003401917  0.5881097404207655  0.2634064682638564  1.0000
  H   H359      1.0  0.0926745493848125  0.5626141693077701  0.21326413680122824  1.0000
  H   H360      1.0  0.18252042754241704  0.5571116627604794  0.18776284213021333  1.0000
  H   H361      1.0  0.164306277709423  0.5592918021994989  0.25031153322455224  1.0000
  H   H362      1.0  0.14557361128251628  0.5331533147708343  0.20160030072420376  1.0000
  H   H363      1.0  0.18036366727381928  0.6209713273808234  0.18379857686937973  1.0000
  H   H364      1.0  0.16191311323369717  0.6218346384947009  0.2463618300116388  1.0000
  H   H365      1.0  0.14182734143186215  0.6419069668934769  0.19474328821788167  1.0000
  H   H366      1.0  0.1560883091644452  0.5844092099710795  0.11579320144447847  1.0000
  H   H367      1.0  0.11786980911551365  0.6063012043500084  0.12478126802296452  1.0000
  H   H368      1.0  0.11898029326404493  0.560549134225765  0.12806007766073724  1.0000
  N   N21       1.0  0.032460737891012004  0.796268969571807  0.282982112177814  1.0000
  C   C273      1.0  0.05951267399193694  0.7730562772430204  0.29506796700682636  1.0000
  C   C274      1.0  0.046079632792222824  0.8269710918155787  0.2577382400976638  1.0000
  C   C275      1.0  0.015208181654143171  0.8065254207759066  0.3304705470792262  1.0000
  C   C276      1.0  0.00904004406873038  0.778545851466602  0.24868347478723551  1.0000
  H   H369      1.0  0.05024489854262848  0.7494206383564183  0.31384108510357445  1.0000
  H   H370      1.0  0.07773230049887436  0.7856041264372813  0.32074785772812264  1.0000
  H   H371      1.0  0.07319433083941163  0.7651052379671514  0.2600124674781916  1.0000
  H   H372      1.0  0.026435005682766688  0.8453563817812105  0.24870015719981264  1.0000
  H   H373      1.0  0.06408910351411223  0.84071646727486  0.28248644596146844  1.0000
  H   H374      1.0  0.05929968780823036  0.8202459284009509  0.22168952233716022  1.0000
  H   H375      1.0  0.9943267513307171  0.823671262928542  0.32254393215838695  1.0000
  H   H376      1.0  0.03192406500927225  0.8208285117077324  0.3566763314784964  1.0000
  H   H377      1.0  0.005129340148987138  0.783974331498589  0.3510731367473052  1.0000
  H   H378      1.0  0.998496620439933  0.7550638639633153  0.26640807118616006  1.0000
  H   H379      1.0  0.021169610492734803  0.7705096409605169  0.2123631681147009  1.0000
  H   H380      1.0  0.9881798952611345  0.7952129116888368  0.23895517798008403  1.0000
  N   N22       1.0  0.1920364473450973  0.8759007076789349  0.3863506112804025  1.0000
  C   C277      1.0  0.18971150706978107  0.9028833539570734  0.42602104252709194  1.0000
  C   C278      1.0  0.21707175613032126  0.8858180286757474  0.34784908535845244  1.0000
  C   C279      1.0  0.15981413846690698  0.8712631243350818  0.3615953345012424  1.0000
  C   C280      1.0  0.2015364768112381  0.8434840431990178  0.409795453258823  1.0000
  H   H381      1.0  0.17091209937595592  0.8963862354949597  0.4555731093225609  1.0000
  H   H382      1.0  0.1827255482442478  0.9277492887076116  0.40954490221060214  1.0000
  H   H383      1.0  0.21355070236705123  0.9070399571082056  0.4456473428811137  1.0000
  H   H384      1.0  0.24167146472308768  0.8899229824573469  0.3651368670759886  1.0000
  H   H385      1.0  0.2196616675116967  0.8658137268622282  0.3176607894624189  1.0000
  H   H386      1.0  0.2104989113188327  0.9098899777783465  0.3285778740090774  1.0000
  H   H387      1.0  0.160491936703066  0.8503190884952307  0.3325940588345675  1.0000
  H   H388      1.0  0.15232181279127133  0.894851191841171  0.3418818682899523  1.0000
  H   H389      1.0  0.1401294285384649  0.8646355132413768  0.3896609855004254  1.0000
  H   H390      1.0  0.1833148239225691  0.8349961091717699  0.43911768308138466  1.0000
  H   H391      1.0  0.22589107033772732  0.845698205704807  0.42849350158131355  1.0000
  H   H392      1.0  0.20325672545232673  0.8225501753889978  0.38085241563517797  1.0000
  N   N23       1.0  0.801941343108637  0.8746449797988681  0.2020445873814487  1.0000
  C   C281      1.0  0.8354472247539414  0.8620346514540416  0.2108163212838674  1.0000
  C   C282      1.0  0.7810556910024008  0.8678970249426291  0.24734339763089364  1.0000
  C   C283      1.0  0.7878898630433635  0.856840668559286  0.1571703410873555  1.0000
  C   C284      1.0  0.8033895623131356  0.9117617178918644  0.19278389233109827  1.0000
  H   H393      1.0  0.8354327671249463  0.8338838047392702  0.21609473748761365  1.0000
  H   H394      1.0  0.8463065044366481  0.873854696588804  0.24555155823490216  1.0000
  H   H395      1.0  0.8523512449687672  0.8681641227998916  0.17840694661685208  1.0000
  H   H396      1.0  0.7560736568571037  0.8786398093173984  0.2432658449484002  1.0000
  H   H397      1.0  0.7778996857081216  0.8400471864754403  0.2536024035261393  1.0000
  H   H398      1.0  0.7920150510278383  0.8792587235232691  0.28252673416100804  1.0000
  H   H399      1.0  0.8031433525592067  0.8614811852111184  0.1223677589751806  1.0000
  H   H400      1.0  0.7625663409956878  0.8656265781188909  0.14941357876306616  1.0000
  H   H401      1.0  0.786596497981857  0.8287062579260669  0.16280569594514427  1.0000
  H   H402      1.0  0.8183907563185994  0.9177430687556172  0.15818641432955505  1.0000
  H   H403      1.0  0.814822624452562  0.9259198554884539  0.22523987915401822  1.0000
  H   H404      1.0  0.7785131403750332  0.9223520110084912  0.18706878049986742  1.0000
  N   N24       1.0  0.28355134223774664  0.42596931522082226  0.2502648570503774  1.0000
  C   C285      1.0  0.2693976403728219  0.3951202162812392  0.22550298019966636  1.0000
  C   C286      1.0  0.2592087456018266  0.4535565356095769  0.24980733944578326  1.0000
  C   C287      1.0  0.3135723922402933  0.43693158450616476  0.22232087676335704  1.0000
  C   C288      1.0  0.29201154102830373  0.41827725973614793  0.30341148928277584  1.0000
  H   H405      1.0  0.28678672078969497  0.3735377664376904  0.2261294670187778  1.0000
  H   H406      1.0  0.2634904369786847  0.39981843957196345  0.18491205153449108  1.0000
  H   H407      1.0  0.2463022214591637  0.38646773083452385  0.24476442014549493  1.0000
  H   H408      1.0  0.2693382579720368  0.4777167823885212  0.26653208131119477  1.0000
  H   H409      1.0  0.2516391915433712  0.45933325105409745  0.21028853231053182  1.0000
  H   H410      1.0  0.23651788750652636  0.44663923314635706  0.2715614304819938  1.0000
  H   H411      1.0  0.32487011643529884  0.46029976432962405  0.23965545903840643  1.0000
  H   H412      1.0  0.3081651118827528  0.44298935299341896  0.18213215571084662  1.0000
  H   H413      1.0  0.3324265092331582  0.416619308687285  0.22127632611591636  1.0000
  H   H414      1.0  0.3105072859495103  0.397659182482506  0.3049908381159612  1.0000
  H   H415      1.0  0.26997334479831997  0.4096831513788087  0.32554958129595774  1.0000
  H   H416      1.0  0.30255015313487144  0.4411584280000167  0.3232262317174703  1.0000
  N   N25       1.0  0.789183934828668  0.09381347451638496  0.2790987931797181  1.0000
  C   C289      1.0  0.8183441897120165  0.09533980019327114  0.31217619456677476  1.0000
  C   C290      1.0  0.7920378044931735  0.06478914713797201  0.24286948299736946  1.0000
  C   C291      1.0  0.787227367654774  0.12588532307041247  0.25033753996407765  1.0000
  C   C292      1.0  0.7592072900312107  0.08931470863423445  0.3108440770038863  1.0000
  H   H417      1.0  0.8412630164863303  0.09991044678780096  0.28957335388513583  1.0000
  H   H418      1.0  0.8213820142477267  0.07114411739547988  0.3332533445275123  1.0000
  H   H419      1.0  0.816579113007944  0.11633607581935579  0.34093401641582827  1.0000
  H   H420      1.0  0.8130402093520018  0.06860461205156088  0.21598781574301273  1.0000
  H   H421      1.0  0.7960866382801415  0.040406328717998985  0.26289866160059944  1.0000
  H   H422      1.0  0.7695676456402331  0.061574691127710864  0.21944573357705152  1.0000
  H   H423      1.0  0.7657227023483886  0.12554093730452787  0.22451416409505623  1.0000
  H   H424      1.0  0.8096928083833701  0.1299993777665532  0.22622369111602325  1.0000
  H   H425      1.0  0.7850149282056685  0.14840080431391423  0.2763229973484783  1.0000
  H   H426      1.0  0.7366637247257356  0.08802946972511871  0.28726067455727805  1.0000
  H   H427      1.0  0.7563162259392975  0.11062879391394408  0.33885733972771337  1.0000
  H   H428      1.0  0.75988059445032  0.06529421172369165  0.3328997538296689  1.0000
  N   N26       1.0  0.9928988617420551  0.027819938554684235  0.18548939577421297  1.0000
  C   C293      1.0  0.9903638098746984  0.04350863737929456  0.23682962012233855  1.0000
  C   C294      1.0  0.9597085961095723  0.01790894126224929  0.1679131747709317  1.0000
  C   C295      1.0  0.013619142339484025  0.9972102359498788  0.18743821966061966  1.0000
  C   C296      1.0  0.007797028263480055  0.05273534879127074  0.14991514765036262  1.0000
  H   H429      1.0  0.979266120193481  0.02536536614635776  0.2646888234938946  1.0000
  H   H430      1.0  0.9746259546747195  0.06652747512112156  0.2367904316190246  1.0000
  H   H431      1.0  0.015003250946608926  0.051395880868415185  0.25126680628653975  1.0000
  H   H432      1.0  0.9603541071647893  0.006342093619804646  0.12898891329054107  1.0000
  H   H433      1.0  0.9478051285210813  0.9989308614657813  0.19368596512159533  1.0000
  H   H434      1.0  0.9434145605205626  0.04039906966439522  0.16659700231834274  1.0000
  H   H435      1.0  0.03907962977002155  0.0038938687365068785  0.19950206865722694  1.0000
  H   H436      1.0  0.015366259690883455  0.984241197615494  0.14958944398992813  1.0000
  H   H437      1.0  0.0035647052363989573  0.9782921915142402  0.21510450418664173  1.0000
  H   H438      1.0  0.009171949404173763  0.0422849737765727  0.11033711581492  1.0000
  H   H439      1.0  0.03316669629436131  0.060238449922598976  0.16133867777099176  1.0000
  H   H440      1.0  0.9932578351171598  0.07655103815464814  0.14861594786889776  1.0000
  N   N27       1.0  0.12715890301339727  0.1195077734366421  0.19370148226913353  1.0000
  C   C297      1.0  0.1405334055128149  0.11376115773517825  0.2448972389106218  1.0000
  C   C298      1.0  0.1326806758794108  0.08903131488491267  0.16115418210384092  1.0000
  C   C299      1.0  0.1439969150243745  0.14938662094177513  0.17085359141114198  1.0000
  C   C300      1.0  0.09148612255280697  0.1257118114861311  0.19801505627787036  1.0000
  H   H441      1.0  0.16726198793408642  0.10822326158639384  0.2429543297749809  1.0000
  H   H442      1.0  0.12809068231655285  0.09173566944675171  0.2637083724791696  1.0000
  H   H443      1.0  0.1374149969055014  0.13648916031621217  0.27018605123027967  1.0000
  H   H444      1.0  0.12089660387990708  0.06583860409212372  0.177906171412894  1.0000
  H   H445      1.0  0.12243403956354282  0.09232773954335527  0.12241456460670186  1.0000
  H   H446      1.0  0.15936832737583395  0.08392759410569628  0.15624956283200778  1.0000
  H   H447      1.0  0.13657034454445416  0.1530663352450845  0.13077880677701348  1.0000
  H   H448      1.0  0.17107716862301214  0.14624675259287212  0.17023896644792358  1.0000
  H   H449      1.0  0.13870309119833646  0.1733414219353162  0.19239176612981904  1.0000
  H   H450      1.0  0.08042996146513515  0.12942533501108255  0.1599909667351562  1.0000
  H   H451      1.0  0.08630295025525436  0.14891866747475646  0.22139241321822223  1.0000
  H   H452      1.0  0.078324772224166  0.10377063481511395  0.21605182584958593  1.0000
  N   N28       1.0  0.8344927329095183  0.9222523934928033  0.5193718761876983  1.0000
  C   C301      1.0  0.8352802090150986  0.9568988565679516  0.5422898269502776  1.0000
  C   C302      1.0  0.8674177412202817  0.9070856531142919  0.5226272947196364  1.0000
  C   C303      1.0  0.8250395533611097  0.9243029565092492  0.4653304185614707  1.0000
  C   C304      1.0  0.810339423612259  0.9007406881186589  0.5471875233455664  1.0000
  H   H453      1.0  0.8109467781667087  0.9693402741455626  0.5395470286756947  1.0000
  H   H454      1.0  0.8537549583119494  0.9736367900837744  0.522843267702634  1.0000
  H   H455      1.0  0.8413779839102564  0.9563498352551191  0.5834798833653986  1.0000
  H   H456      1.0  0.8863899147837173  0.9234701359907984  0.5036742782061087  1.0000
  H   H457      1.0  0.8749112839081945  0.9041182786510148  0.5629197004565776  1.0000
  H   H458      1.0  0.8680378566155718  0.8814909209758692  0.5036732678996563  1.0000
  H   H459      1.0  0.8013448493490672  0.9376780749143665  0.46097583760147165  1.0000
  H   H460      1.0  0.822356285581152  0.8985238866468778  0.44748974242483697  1.0000
  H   H461      1.0  0.843813273351408  0.9386235263473778  0.4427687166554636  1.0000
  H   H462      1.0  0.8089966087768959  0.8743989261135834  0.5309128684132935  1.0000
  H   H463      1.0  0.7853168847724789  0.9115955620905418  0.5457370713975116  1.0000
  H   H464      1.0  0.8165176222040986  0.8990105280320092  0.5882534855231276  1.0000
  N   N29       1.0  0.590505284134683  0.5637920026656679  0.6567694061529273  1.0000
  C   C305      1.0  0.5923654567824735  0.5619874415658203  0.7128572873776079  1.0000
  C   C306      1.0  0.618694239681036  0.5456756986299444  0.6337067701666164  1.0000
  C   C307      1.0  0.5913240886874234  0.5999007349932137  0.6410800456292648  1.0000
  C   C308      1.0  0.5595745512718486  0.5474745502785386  0.6394362746881932  1.0000
  H   H465      1.0  0.6154949402363312  0.5740888259328544  0.7271593626048526  1.0000
  H   H466      1.0  0.5916721266358095  0.5350623447198007  0.7259838050626534  1.0000
  H   H467      1.0  0.5714860898794891  0.5754134094112895  0.731658024079295  1.0000
  H   H468      1.0  0.6184603123164696  0.5182824745429523  0.6445427454483418  1.0000
  H   H469      1.0  0.6183546935035782  0.546914356359192  0.5914030811077303  1.0000
  H   H470      1.0  0.6424540767499023  0.5570802984836324  0.6465562050713826  1.0000
  H   H471      1.0  0.5901687732410694  0.6022576656459749  0.5988865742941719  1.0000
  H   H472      1.0  0.6142786143106661  0.6131045575312353  0.6536774362176522  1.0000
  H   H473      1.0  0.5701838546878123  0.614111239991463  0.657779338817826  1.0000
  H   H474      1.0  0.5573980417259919  0.5483836104078775  0.5972794545714026  1.0000
  H   H475      1.0  0.537793819100691  0.5606026185410664  0.656030346875383  1.0000
  H   H476      1.0  0.5580363585852707  0.5202179617629005  0.6508144408473967  1.0000
  N   N30       1.0  0.5129384755321392  0.3515852466112846  0.7203348520538598  1.0000
  C   C309      1.0  0.50966650389898  0.3617723271629659  0.7745180805737868  1.0000
  C   C310      1.0  0.5481688734171369  0.3482481251572116  0.707116588545286  1.0000
  C   C311      1.0  0.49817334845274314  0.37776705184085196  0.6880369161901717  1.0000
  C   C312      1.0  0.4958255425613158  0.3185102875350825  0.7117962838436952  1.0000
  H   H477      1.0  0.48348779369911765  0.36565943532706996  0.7855279614451915  1.0000
  H   H478      1.0  0.5233486676153601  0.3860420128463656  0.7826089406312625  1.0000
  H   H479      1.0  0.5196327057654758  0.34195612520804103  0.7999574081569387  1.0000
  H   H480      1.0  0.5516796441858625  0.340503146705548  0.6665419225653795  1.0000
  H   H481      1.0  0.5617396671121568  0.37290254903879594  0.712952141569339  1.0000
  H   H482      1.0  0.5599945236848982  0.32875847840176664  0.7310980018305924  1.0000
  H   H483      1.0  0.500396226280293  0.37098395041576504  0.6468958448433685  1.0000
  H   H484      1.0  0.5103976377205431  0.40309647660139797  0.6935901685629046  1.0000
  H   H485      1.0  0.47155677984314254  0.3809153987093614  0.6968595539855211  1.0000
  H   H486      1.0  0.5064604523434391  0.29808852727388374  0.7353596117328677  1.0000
  H   H487      1.0  0.49756413878292843  0.31006603878054706  0.6712614225892706  1.0000
  H   H488      1.0  0.4692139332329949  0.32009904679728546  0.721691714597844  1.0000
  N   N31       1.0  0.0014483633847359734  0.3168970333010132  0.18034930063765775  1.0000
  C   C313      1.0  0.9843459475947001  0.2861420160533923  0.16011295542192672  1.0000
  C   C314      1.0  0.005662701655010816  0.31357996188477866  0.23585374678205073  1.0000
  C   C315      1.0  0.9817161176752185  0.3474108473693358  0.170230094426673  1.0000
  C   C316      1.0  0.03406531167722915  0.3204754348125029  0.15531737533522305  1.0000
  H   H489      1.0  0.9811597238367397  0.2876394473161723  0.1182826359894018  1.0000
  H   H490      1.0  0.9593969639199973  0.2828356957020948  0.17734410154409175  1.0000
  H   H491      1.0  0.9983845643024837  0.2625617196114342  0.16737151450486865  1.0000
  H   H492      1.0  0.020398555375064964  0.29077855053769186  0.24490642286575573  1.0000
  H   H493      1.0  0.018523262887589764  0.3363905931387004  0.25231083062064225  1.0000
  H   H494      1.0  0.9814824057968303  0.31101657909696256  0.25585774595248767  1.0000
  H   H495      1.0  0.9563331499067862  0.344962953470199  0.18618137497922072  1.0000
  H   H496      1.0  0.9796415758090077  0.3518893752286173  0.12870313545137146  1.0000
  H   H497      1.0  0.9928696409101161  0.37086630282420396  0.1875902408110462  1.0000
  H   H498      1.0  0.04981523920404829  0.29805041568266555  0.1623457380836657  1.0000
  H   H499      1.0  0.04752190224596298  0.34366918102726657  0.1690401229099887  1.0000
  H   H500      1.0  0.03187769574771626  0.32255072950916175  0.11324438761053646  1.0000
  N   N32       1.0  0.12250109786620267  0.35777101192290556  0.9757076594239477  1.0000
  C   C317      1.0  0.11366724024785091  0.32155623176506454  0.9660086198426331  1.0000
  C   C318      1.0  0.11815600740807852  0.3656660578471752  0.030555999676603385  1.0000
  C   C319      1.0  0.10085099720602408  0.379723880869265  0.9459369427341345  1.0000
  C   C320      1.0  0.15714364813027326  0.3641151513155975  0.9603236612289138  1.0000
  H   H501      1.0  0.08793607000899994  0.3156861494696916  0.9786580026972506  1.0000
  H   H502      1.0  0.12991200239596656  0.304232638465527  0.9871482425939535  1.0000
  H   H503      1.0  0.11583584534555857  0.3147276299267723  0.9249049657219239  1.0000
  H   H504      1.0  0.12480473592130514  0.39273478636614484  0.03954090209764716  1.0000
  H   H505      1.0  0.09218549668002884  0.36125178718903256  0.04309568167829414  1.0000
  H   H506      1.0  0.1336646500466565  0.3491140863733178  0.05423983161091983  1.0000
  H   H507      1.0  0.10353836827496865  0.3746073577398721  0.9043607677031763  1.0000
  H   H508      1.0  0.10649124701018153  0.4072104526200834  0.9528614889738699  1.0000
  H   H509      1.0  0.07453527525625425  0.37538322424892134  0.9563031310540966  1.0000
  H   H510      1.0  0.1650272808889519  0.39094395620611877  0.9684916857925191  1.0000
  H   H511      1.0  0.1611566118650074  0.3591027956496866  0.9189376148548436  1.0000
  H   H512      1.0  0.17418601221154173  0.34736347650111193  0.9808553265465757  1.0000
