data_image0
_chemical_formula_structural       FeS2FeS2FeSFeS3FeS2FeS2FeSFeS3FeS2FeS2FeSFeS3FeS2FeS2FeSFeS3FeS2FeS2FeSFeS3FeS2FeS2FeSFeS3FeS2FeS2FeSFeS3FeS2FeS2FeSFeS3FeS2FeS2FeSFeS3FeS2FeS2FeSFeS3FeS2FeS2FeSFeS3FeS2FeS2FeSFeS3FeS2FeS2FeSFeS3FeS2FeS2FeSFeS3FeS2FeS2FeSFeS3FeS2FeS2FeSFeS3FeS2FeS2FeSFeS3FeS2FeS2FeSFeS3FeS2FeS2FeSFeS3FeS2FeS2FeSFeS3FeS2FeS2FeSFeS3FeS2FeS2FeSFeS3FeS2FeS2FeSFeS3FeS2FeS2FeSFeS3C6H4C6H4C6H4C6H4C6H4C6H4C6H4C6H4C6H4C6H4C6H4C6H4C6H4C6H4C6H4C6H4C6H4C6H4C6H4C6H4C6H4C6H4C6H4C6H4C6H4C6H4C6H4C6H4C6H4C6H4C6H4C6H4C6H4C6H4C6H4C6H4C6H4C6H4C6H4C6H4C6H4C6H4C6H4C6H4C6H4C6H4C6H4C6H4NC4H12NC4H12NC4H12NC4H12NC4H12NC4H12NC4H12NC4H12NC4H12NC4H12NC4H12NC4H12NC4H12NC4H12NC4H12NC4H12NC4H12NC4H12NC4H12NC4H12NC4H12NC4H12NC4H12NC4H12NC4H12NC4H12NC4H12NC4H12NC4H12NC4H12NC4H12NC4H12NC4H12NC4H12NC4H12NC4H12NC4H12NC4H12NC4H12NC4H12NC4H12NC4H12NC4H12NC4H12NC4H12NC4H12NC4H12NC4H12
_chemical_formula_sum              "Fe96 S192 C480 H768 N48"
_cell_length_a       52.47684199409451
_cell_length_b       52.45719815171955
_cell_length_c       45.76423409441227
_cell_angle_alpha    90.31107315431514
_cell_angle_beta     89.91851487809774
_cell_angle_gamma    120.12912031188559

_space_group_name_H-M_alt    "P 1"
_space_group_IT_number       1

loop_
  _space_group_symop_operation_xyz
  'x, y, z'

loop_
  _atom_site_type_symbol
  _atom_site_label
  _atom_site_symmetry_multiplicity
  _atom_site_fract_x
  _atom_site_fract_y
  _atom_site_fract_z
  _atom_site_occupancy
  Fe  Fe1       1.0  0.5233451997528845  0.15230162142981005  0.4570329207477181  1.0000
  S   S1        1.0  0.4913498840579906  0.11741328649168117  0.4262515293058051  1.0000
  S   S2        1.0  0.5646677564798729  0.15523148996712108  0.47536280198067105  1.0000
  Fe  Fe2       1.0  0.484070639134974  0.17903544605233285  0.4668732475506454  1.0000
  S   S3        1.0  0.4483598456885922  0.14572563442690314  0.43782624427694955  1.0000
  S   S4        1.0  0.4831174379589019  0.21619134761526218  0.49131084394612523  1.0000
  Fe  Fe3       1.0  0.45704308368397284  0.1121722456254095  0.45922004286184775  1.0000
  S   S5        1.0  0.4218680456533704  0.06517820999918807  0.47042784082237715  1.0000
  Fe  Fe4       1.0  0.4852745391782587  0.15356558770223946  0.4073802862230618  1.0000
  S   S6        1.0  0.4832395157060777  0.16644572339588806  0.36055573396047486  1.0000
  S   S7        1.0  0.48949160560364435  0.1448056666174103  0.49103853029001016  1.0000
  S   S8        1.0  0.5206248831668697  0.18911301390025045  0.4354400275016495  1.0000
  Fe  Fe5       1.0  0.6752928592144832  0.11380449636278718  0.4164789955564047  1.0000
  S   S9        1.0  0.6752348626223348  0.0718352862589867  0.40792361387501946  1.0000
  S   S10       1.0  0.6401413739805843  0.11995688666450631  0.39472121555994794  1.0000
  Fe  Fe6       1.0  0.7341028643123616  0.14089124204429107  0.44834873096875116  1.0000
  S   S11       1.0  0.7386265385853149  0.10057331011045942  0.4420828482028159  1.0000
  S   S12       1.0  0.7639991746824558  0.18427470584096106  0.47131873286363557  1.0000
  Fe  Fe7       1.0  0.7226739131395518  0.10061124673309407  0.3961103638116636  1.0000
  S   S13       1.0  0.7379644117949443  0.09011096247794724  0.353579777241997  1.0000
  Fe  Fe8       1.0  0.6904222065943012  0.07506958090162393  0.45447247452471157  1.0000
  S   S14       1.0  0.6617661781752582  0.033181130544253076  0.4804111950284834  1.0000
  S   S15       1.0  0.7218496561821903  0.1425746974041707  0.40190492833126906  1.0000
  S   S16       1.0  0.6869594102595897  0.11536073282324173  0.46376654583415655  1.0000
  Fe  Fe9       1.0  0.3974162014077828  0.9765111808963932  0.6240980090150641  1.0000
  S   S17       1.0  0.37310112806493845  0.9300697782617605  0.6059330482376858  1.0000
  S   S18       1.0  0.417746479806939  0.021167926887922413  0.6011651966925114  1.0000
  Fe  Fe10      1.0  0.39748096693849505  0.955416637485599  0.6872110538828814  1.0000
  S   S19       1.0  0.37382937695869173  0.9081044200126  0.6735163137817894  1.0000
  S   S20       1.0  0.41766591026237637  0.9676244733177038  0.7325944685892357  1.0000
  Fe  Fe11      1.0  0.4036499577163356  0.9225968973945441  0.6346183700774298  1.0000
  S   S21       1.0  0.4233145647020916  0.8939533094837226  0.623609349166423  1.0000
  Fe  Fe12      1.0  0.34513714027196535  0.9192635912155797  0.6465417640201441  1.0000
  S   S22       1.0  0.29593275421697324  0.8893297286535745  0.6532810745499853  1.0000
  S   S23       1.0  0.4296691709460214  0.9692914553620614  0.6501170749059614  1.0000
  S   S24       1.0  0.36708467207210416  0.9663190324258839  0.6628887553375478  1.0000
  Fe  Fe13      1.0  0.597194989954903  0.8855225693147039  0.6337261864849324  1.0000
  S   S25       1.0  0.6440467953251743  0.91138498401885  0.6489499223619372  1.0000
  S   S26       1.0  0.5769426183265078  0.8387377781566662  0.6163101248246996  1.0000
  Fe  Fe14      1.0  0.5859888164519383  0.9361460806558823  0.6475869523281284  1.0000
  S   S27       1.0  0.6319203364325848  0.9648922239104932  0.6648475482037454  1.0000
  S   S28       1.0  0.5605674007911057  0.9602815223062449  0.6457357793685645  1.0000
  Fe  Fe15      1.0  0.6454705686504209  0.9494404488096707  0.6250070074728682  1.0000
  S   S29       1.0  0.6841075369560681  0.9817786511006944  0.5972245715287392  1.0000
  Fe  Fe16      1.0  0.6252601531960381  0.9238962923030167  0.6869934749747124  1.0000
  S   S30       1.0  0.6361978730712196  0.9157599922844192  0.7326307183553673  1.0000
  S   S31       1.0  0.5999255486596573  0.9226608313402741  0.6067376051495431  1.0000
  S   S32       1.0  0.5781124985220906  0.8962290055407542  0.6727745656835828  1.0000
  Fe  Fe17      1.0  0.4573257388670833  0.11571564916984874  0.19741551824720446  1.0000
  S   S33       1.0  0.48243324457581904  0.16456877938467052  0.19024036637273145  1.0000
  S   S34       1.0  0.4491137147448162  0.09320432719180033  0.2418119853777748  1.0000
  Fe  Fe18      1.0  0.4547378216013194  0.10190662672756313  0.1307264705591626  1.0000
  S   S35       1.0  0.48029457436005085  0.15019943226195187  0.11893612183080493  1.0000
  S   S36       1.0  0.445850714759099  0.0622631939518913  0.10222436147554803  1.0000
  Fe  Fe19      1.0  0.5088512300576906  0.1553408928849663  0.1576699165669119  1.0000
  S   S37       1.0  0.558446950441998  0.18099613697723788  0.16141512359902177  1.0000
  Fe  Fe20      1.0  0.4516175683569714  0.15544706998059843  0.1525385578468002  1.0000
  S   S38       1.0  0.42917305676489714  0.18270471918737433  0.14788281843267398  1.0000
  S   S39       1.0  0.48582798160581786  0.10724714275853837  0.16713124604264784  1.0000
  S   S40       1.0  0.4239987271444839  0.10658442448430375  0.16198253948552838  1.0000
  Fe  Fe21      1.0  0.7033379597954673  0.09392201090406209  0.1336047938523732  1.0000
  S   S41       1.0  0.6953600266930571  0.12483228106334296  0.10693081048415252  1.0000
  S   S42       1.0  0.70909559630972  0.05864422179990254  0.1103537245030561  1.0000
  Fe  Fe22      1.0  0.700236889535788  0.12187168786870473  0.19132861791572792  1.0000
  S   S43       1.0  0.6915350994321197  0.15448006558571414  0.16816176798087415  1.0000
  S   S44       1.0  0.6974350925431311  0.1284750887437409  0.2399962345981195  1.0000
  Fe  Fe23      1.0  0.6607173651977736  0.11651412633972129  0.14006916158328478  1.0000
  S   S45       1.0  0.6166339979798188  0.1062320157520515  0.12212913487400635  1.0000
  Fe  Fe24      1.0  0.727014570028647  0.1602157646874519  0.1371976671662354  1.0000
  S   S46       1.0  0.7555109664224782  0.20485440589037096  0.11650393371630219  1.0000
  S   S47       1.0  0.6663664410407124  0.08311965671291506  0.1651381997489692  1.0000
  S   S48       1.0  0.7383236503959618  0.13029756626779787  0.16195128071682216  1.0000
  Fe  Fe25      1.0  0.3627008597760451  0.9469398523873257  0.8932704456872322  1.0000
  S   S49       1.0  0.3781686191717141  0.9151341762650239  0.9028125244833601  1.0000
  S   S50       1.0  0.3430221993170137  0.9457791494548426  0.8488441107992736  1.0000
  Fe  Fe26      1.0  0.37325395056099175  0.9701020053980565  0.9571214250674245  1.0000
  S   S51       1.0  0.38851669509797876  0.9388649386934317  0.9711602884608709  1.0000
  S   S52       1.0  0.37358649254438436  0.006929840781430386  0.9843799298103338  1.0000
  Fe  Fe27      1.0  0.41402867791312176  0.9516289384954956  0.9290799310507956  1.0000
  S   S53       1.0  0.4628910847697711  0.9694881116648348  0.9235289137075671  1.0000
  Fe  Fe28      1.0  0.35066894222993644  0.9050389833846508  0.9434626317845948  1.0000
  S   S54       1.0  0.321535754043568  0.8561981932001843  0.9529802982701354  1.0000
  S   S55       1.0  0.4006642228299922  0.9845273053451176  0.9162256910828132  1.0000
  S   S56       1.0  0.33339192414543595  0.9352441101594102  0.9327500772595523  1.0000
  Fe  Fe29      1.0  0.6201918889609427  0.9551331080396954  0.8918960803052446  1.0000
  S   S57       1.0  0.5932388603742066  0.9064112421292342  0.8992342717183474  1.0000
  S   S58       1.0  0.6290106439152426  0.9782361259867285  0.8482503209593324  1.0000
  Fe  Fe30      1.0  0.6328238994486421  0.9692912306448689  0.9582285775414314  1.0000
  S   S59       1.0  0.6073951511435834  0.9211477897293449  0.9699962129660238  1.0000
  S   S60       1.0  0.6452562996969756  0.009064011768838616  0.9877456188204118  1.0000
  Fe  Fe31      1.0  0.6292069198735539  0.9138566591908175  0.9307909681563582  1.0000
  S   S61       1.0  0.6524156869053422  0.8874561504752988  0.9243526191348753  1.0000
  Fe  Fe32      1.0  0.5738482093161361  0.9181471377090701  0.9373243159591009  1.0000
  S   S62       1.0  0.5255993677867824  0.895722338572043  0.9498439443186527  1.0000
  S   S63       1.0  0.657410105036382  0.9625551050807497  0.9214034023305027  1.0000
  S   S64       1.0  0.5981029905401944  0.9662295357732623  0.9274816199178132  1.0000
  Fe  Fe33      1.0  0.3403133226727415  0.45132861231214266  0.9433786229347056  1.0000
  S   S65       1.0  0.35989813385385483  0.42821940061976244  0.9177547053001947  1.0000
  S   S66       1.0  0.29067138450919205  0.4290600309815577  0.9485362533811449  1.0000
  Fe  Fe34      1.0  0.4000497774142139  0.5026690212192898  0.9599126074574988  1.0000
  S   S67       1.0  0.4234948830236152  0.4840219688412062  0.9350895842900414  1.0000
  S   S68       1.0  0.43089613314257663  0.5436560129804423  0.9854021502670741  1.0000
  Fe  Fe35      1.0  0.39009250294074277  0.47336601164368186  0.8996505949082682  1.0000
  S   S69       1.0  0.40922841779196895  0.4875311536685486  0.8540528206947876  1.0000
  Fe  Fe36      1.0  0.39167829488788486  0.44085798173617335  0.9556102419077283  1.0000
  S   S70       1.0  0.4158988362756928  0.41836394743820277  0.9736572624538885  1.0000
  S   S71       1.0  0.36892871860194787  0.49583121444611156  0.9230480697489488  1.0000
  S   S72       1.0  0.36969896540404046  0.4601838293483231  0.9825219237335225  1.0000
  Fe  Fe37      1.0  0.6303840132116559  0.6779114936328066  0.9370889339829622  1.0000
  S   S73       1.0  0.5899636272520347  0.677245192985821  0.954184152163279  1.0000
  S   S74       1.0  0.6568348074319502  0.6603862847721351  0.9601038819724774  1.0000
  Fe  Fe38      1.0  0.6291300973805938  0.7064630137027026  0.879275631232513  1.0000
  S   S75       1.0  0.5892046485276805  0.70892868081629  0.8919993974726531  1.0000
  S   S76       1.0  0.6524414653427375  0.723952672713358  0.8360691060087189  1.0000
  Fe  Fe39      1.0  0.6102094436693556  0.7231935392763972  0.9360686605848252  1.0000
  S   S77       1.0  0.6032202428254032  0.7548907826423069  0.96397271562943  1.0000
  Fe  Fe40      1.0  0.571849256210926  0.6631230754546342  0.908895766308247  1.0000
  S   S78       1.0  0.5248403518190997  0.6318813308436962  0.8957022238888889  1.0000
  S   S79       1.0  0.6522361009306836  0.7251020558579201  0.9222559345242732  1.0000
  S   S80       1.0  0.6103099894931511  0.6594002364461611  0.8928992598434135  1.0000
  Fe  Fe41      1.0  0.7017916110433514  0.6382213417778267  0.12042881291132912  1.0000
  S   S81       1.0  0.71969946364773  0.6107161358229142  0.10154311069922073  1.0000
  S   S82       1.0  0.680108654792566  0.6606310024433114  0.09663114060337075  1.0000
  Fe  Fe42      1.0  0.7064961313987878  0.6202520599939578  0.18403192084223244  1.0000
  S   S83       1.0  0.7241937396911342  0.5911686282942233  0.16953215589120255  1.0000
  S   S84       1.0  0.6897898385104215  0.6202095265339903  0.2297385522496588  1.0000
  Fe  Fe43      1.0  0.7522332613716542  0.6282656207185988  0.13891094586021455  1.0000
  S   S85       1.0  0.801729060260657  0.6479987809213897  0.13459424421561858  1.0000
  Fe  Fe44      1.0  0.6901700877835406  0.5762706371454828  0.1339223267422039  1.0000
  S   S86       1.0  0.6616224224997485  0.5283268698979421  0.12072148742984139  1.0000
  S   S87       1.0  0.7364164353622686  0.6585972021842701  0.15570053947738646  1.0000
  S   S88       1.0  0.6705432892784756  0.6026961090589747  0.15048666465241983  1.0000
  Fe  Fe45      1.0  0.49897497205724156  0.4125512875799113  0.16022416714413693  1.0000
  S   S89       1.0  0.4523926352633236  0.39831183236700024  0.17337602168581198  1.0000
  S   S90       1.0  0.5305212258660721  0.4608814941835379  0.1679798203509885  1.0000
  Fe  Fe46      1.0  0.48295810734305056  0.35036801223008845  0.14216914194323432  1.0000
  S   S91       1.0  0.4355038164044144  0.33207350746344994  0.15347022494217225  1.0000
  S   S92       1.0  0.5003678999691044  0.32103363059647977  0.1263680316533739  1.0000
  Fe  Fe47      1.0  0.4401589757815447  0.37243396509483634  0.13136865606335654  1.0000
  S   S93       1.0  0.40299300002324867  0.3687618277158546  0.1028271444909297  1.0000
  Fe  Fe48      1.0  0.45271067150233035  0.3598323744240628  0.1940864929439499  1.0000
  S   S94       1.0  0.4337617710044818  0.3375606601445505  0.23737270547324574  1.0000
  S   S95       1.0  0.48675576921102426  0.389008648737816  0.11688866910871645  1.0000
  S   S96       1.0  0.500152950395601  0.37588170078555494  0.18407111905584134  1.0000
  Fe  Fe49      1.0  0.40729860613185287  0.4854168183865923  0.653974443624612  1.0000
  S   S97       1.0  0.3915850836144252  0.4388347636025106  0.6676089054218193  1.0000
  S   S98       1.0  0.45678511557549606  0.5126935196326903  0.6538338916967033  1.0000
  Fe  Fe50      1.0  0.34500286412082676  0.47305642436795936  0.642801036962025  1.0000
  S   S99       1.0  0.325241901595643  0.4256259020678644  0.6551936681189922  1.0000
  S   S100      1.0  0.3173330794130656  0.4923516370414547  0.6270565828078224  1.0000
  Fe  Fe51      1.0  0.3571504766151663  0.4429972050801763  0.6928273451851805  1.0000
  S   S101      1.0  0.3396793273343984  0.4238659912074295  0.7375463180019839  1.0000
  Fe  Fe52      1.0  0.36178784751583976  0.42661937669142375  0.628620944253652  1.0000
  S   S102      1.0  0.3551816641778681  0.3890372467411145  0.5986955821976655  1.0000
  S   S103      1.0  0.3749858908635074  0.490669689215646  0.6820228641457486  1.0000
  S   S104      1.0  0.37956132199159254  0.4729951254174788  0.6134349557500256  1.0000
  Fe  Fe53      1.0  0.601907688491935  0.6712178304187965  0.6715805195107908  1.0000
  S   S105      1.0  0.5804540631615877  0.6927913838634449  0.6477707476498995  1.0000
  S   S106      1.0  0.5864100109188343  0.6593341430923985  0.7186854621758769  1.0000
  Fe  Fe54      1.0  0.6308071469220538  0.6653556520807579  0.6146244291947007  1.0000
  S   S107      1.0  0.6118006425881009  0.6873068431039772  0.587240483843512  1.0000
  S   S108      1.0  0.6575332145591215  0.6449858360560935  0.5973243233951679  1.0000
  Fe  Fe55      1.0  0.6237403394705756  0.7190583449277178  0.6250443496173854  1.0000
  S   S109      1.0  0.6467846215877083  0.7690076519362022  0.6235127079572858  1.0000
  Fe  Fe56      1.0  0.5702284233661833  0.6590463684626899  0.6125749406695161  1.0000
  S   S110      1.0  0.5244350335800533  0.6353736642727935  0.5931596615183212  1.0000
  S   S111      1.0  0.6462449734133431  0.6994065288936585  0.6509291354228021  1.0000
  S   S112      1.0  0.5883361161126337  0.6353118907055775  0.6379545458976252  1.0000
  Fe  Fe57      1.0  0.7461563775430293  0.587306906159856  0.44734633192552853  1.0000
  S   S113      1.0  0.7503109591400934  0.6291667062136624  0.430126145604857  1.0000
  S   S114      1.0  0.7812176416232219  0.5892728450081415  0.47761184498869413  1.0000
  Fe  Fe58      1.0  0.6870488213614981  0.5491661481523313  0.4173601543219839  1.0000
  S   S115      1.0  0.6871630342303366  0.588350547796094  0.3979237277457193  1.0000
  S   S116      1.0  0.6489346184696279  0.5060199636213359  0.4018846380511395  1.0000
  Fe  Fe59      1.0  0.7344933562431549  0.6044000139058651  0.38756047097322754  1.0000
  S   S117      1.0  0.7585524729622128  0.6221848853702103  0.3447660489042962  1.0000
  Fe  Fe60      1.0  0.7024849276651345  0.6088298957403464  0.44245685292958  1.0000
  S   S118      1.0  0.6817338339670868  0.6338756021724683  0.46249146739220065  1.0000
  S   S119      1.0  0.733598811076278  0.5637756729186071  0.40417905119027564  1.0000
  S   S120      1.0  0.6991475650283209  0.5684107224221051  0.4625908242542841  1.0000
  Fe  Fe61      1.0  0.4500791639142403  0.33656155379249447  0.4366042235468174  1.0000
  S   S121      1.0  0.4279583435920787  0.3591977715900478  0.41556528515383345  1.0000
  S   S122      1.0  0.43177266397301045  0.2880845467047627  0.4276932729698068  1.0000
  Fe  Fe62      1.0  0.5018173183997733  0.3936689461684784  0.45752099895445403  1.0000
  S   S123      1.0  0.48453868437847564  0.420853301108918  0.43788023541491794  1.0000
  S   S124      1.0  0.5448771284713984  0.4153226091102154  0.48206635929730035  1.0000
  Fe  Fe63      1.0  0.4408623822504517  0.3871218358481097  0.45643748322554634  1.0000
  S   S125      1.0  0.41507130273473325  0.4083594583666126  0.4734553348745499  1.0000
  Fe  Fe64      1.0  0.4730281643879328  0.39101847180910815  0.3988215873553692  1.0000
  S   S126      1.0  0.483722762836798  0.41238370867687646  0.3542698329015292  1.0000
  S   S127      1.0  0.4590696291535637  0.3616107161043777  0.4791428707998497  1.0000
  S   S128      1.0  0.4943164181863457  0.3667489188306281  0.41689281034301867  1.0000
  Fe  Fe65      1.0  0.14966511963487172  0.44122393659691345  0.6333583108639308  1.0000
  S   S129      1.0  0.10744401367621906  0.41836715612587577  0.65930611280894  1.0000
  S   S130      1.0  0.1776251727977181  0.4194793320699282  0.6344974640576367  1.0000
  Fe  Fe66      1.0  0.1397146091181632  0.49138204275454983  0.6164361531562398  1.0000
  S   S131      1.0  0.09788608608855091  0.47294604859915274  0.6418306726608326  1.0000
  S   S132      1.0  0.15230875907665858  0.532503557708695  0.5907669992481529  1.0000
  Fe  Fe67      1.0  0.12188222214461147  0.46359248548747234  0.6770333361012205  1.0000
  S   S133      1.0  0.12213284648471616  0.4790108401538722  0.72365887033799  1.0000
  Fe  Fe68      1.0  0.0875432603449535  0.42983497645087626  0.621339130982322  1.0000
  S   S134      1.0  0.04113020571722361  0.40368228055977845  0.6026538571375208  1.0000
  S   S135      1.0  0.1649912664435023  0.4859215219781995  0.6529602185773776  1.0000
  S   S136      1.0  0.12850499374843796  0.4487739843326559  0.5940454941401497  1.0000
  Fe  Fe69      1.0  0.17834337939426562  0.7291034751649046  0.6284151671340001  1.0000
  S   S137      1.0  0.1419934207963056  0.7359940106235818  0.6451575580913824  1.0000
  S   S138      1.0  0.21292591420767262  0.7625342496263301  0.59802321840462  1.0000
  Fe  Fe70      1.0  0.15366372807273937  0.6697945866705395  0.6585129890987704  1.0000
  S   S139      1.0  0.11582152284315289  0.6726687351008255  0.6774673305077445  1.0000
  S   S140      1.0  0.1538868143442041  0.629517270790419  0.6745445680064871  1.0000
  Fe  Fe71      1.0  0.11232255743292394  0.6882932274216002  0.6328026716903468  1.0000
  S   S141      1.0  0.06663610847126376  0.6686996782003404  0.6127773510382069  1.0000
  Fe  Fe72      1.0  0.14921602684643917  0.7194346853191009  0.6879224908982589  1.0000
  S   S142      1.0  0.15579625725927398  0.742453532100208  0.7316353245695395  1.0000
  S   S143      1.0  0.14812160324434137  0.6823496400935369  0.6131348306725156  1.0000
  S   S144      1.0  0.1876441530119234  0.7157553341347315  0.6718058683600355  1.0000
  Fe  Fe73      1.0  0.9118375204565078  0.32187869363795607  0.42367745568461385  1.0000
  S   S145      1.0  0.9566292225675366  0.34848135062308855  0.4031936955901673  1.0000
  S   S146      1.0  0.8901609513819069  0.2723588323701308  0.41839431839336094  1.0000
  Fe  Fe74      1.0  0.9128432926332061  0.37694517767834385  0.44651205856114173  1.0000
  S   S147      1.0  0.9577361002066728  0.4077059584636653  0.4285356773027194  1.0000
  S   S148      1.0  0.8841858421958431  0.3891024089812243  0.47257227472182595  1.0000
  Fe  Fe75      1.0  0.9409578736982879  0.37884003177610553  0.38830524684135675  1.0000
  S   S149      1.0  0.944030321426179  0.3989851287114751  0.34387947468938157  1.0000
  Fe  Fe76      1.0  0.9691820595372175  0.37435568018352716  0.4454222979124374  1.0000
  S   S150      1.0  0.012429093660277106  0.3840603725215626  0.46642792969643515  1.0000
  S   S151      1.0  0.8950887892013366  0.35026201772289706  0.40544135480376986  1.0000
  S   S152      1.0  0.9254146347450146  0.345782576248683  0.4666397888047038  1.0000
  Fe  Fe77      1.0  0.9334599161046427  0.6108834303623488  0.43314148009658665  1.0000
  S   S153      1.0  0.9786388293929268  0.6266003787578608  0.4142689485787578  1.0000
  S   S154      1.0  0.906974785633536  0.6326236793437814  0.42099886614914533  1.0000
  Fe  Fe78      1.0  0.929580114334248  0.5554239651736369  0.4575762752906137  1.0000
  S   S155      1.0  0.9737156968121462  0.5658973482539211  0.4405192780728349  1.0000
  S   S156      1.0  0.8970543657764422  0.5154804081141753  0.48261570532267756  1.0000
  Fe  Fe79      1.0  0.9885912967410864  0.6118903657738518  0.4571430291857568  1.0000
  S   S157      1.0  0.03432595812165783  0.6370171866368404  0.47810170761462956  1.0000
  Fe  Fe80      1.0  0.9604307337759219  0.579801925920271  0.39950593685402663  1.0000
  S   S158      1.0  0.9623223023751226  0.561927537816142  0.3548869713397338  1.0000
  S   S159      1.0  0.9447910151616883  0.6002788209616475  0.4771314154237259  1.0000
  S   S160      1.0  0.9148793538851913  0.5651835796203454  0.4154263372780001  1.0000
  Fe  Fe81      1.0  0.17294051479854944  0.476535919313541  0.9364660224967318  1.0000
  S   S161      1.0  0.1455826922497961  0.4281702967694305  0.9268452368069365  1.0000
  S   S162      1.0  0.22169575993387036  0.49987035188562506  0.9472027552197199  1.0000
  Fe  Fe82      1.0  0.12308152411223644  0.4877159932359553  0.9211299301652504  1.0000
  S   S163      1.0  0.09244093861284433  0.4401504908055232  0.9096832008389674  1.0000
  S   S164      1.0  0.10168182722025203  0.5156320481662512  0.9171241119753817  1.0000
  Fe  Fe83      1.0  0.10931323018319454  0.43076134497264895  0.9509338360830832  1.0000
  S   S165      1.0  0.07600250797568228  0.3944885880263494  0.9806564184654692  1.0000
  Fe  Fe84      1.0  0.13124212285428663  0.4423423146891348  0.8866646148477471  1.0000
  S   S166      1.0  0.13053970431191167  0.42122951927969843  0.842799219232971  1.0000
  S   S167      1.0  0.13789238764579842  0.4783139248542985  0.9637000501103576  1.0000
  S   S168      1.0  0.16065130335347558  0.4906790875062441  0.8949236079282732  1.0000
  Fe  Fe85      1.0  0.15507932610446  0.7373593707533218  0.9326239539936052  1.0000
  S   S169      1.0  0.10767725261569762  0.7183600072117478  0.9181933163727128  1.0000
  S   S170      1.0  0.18296516822127373  0.7872064486312705  0.9306278435788882  1.0000
  Fe  Fe86      1.0  0.1480790957374752  0.6770040957086477  0.9414149683944851  1.0000
  S   S171      1.0  0.10120851169969243  0.6545550044457824  0.9272206476918453  1.0000
  S   S172      1.0  0.16909947547803736  0.6502171851932602  0.95443915229819  1.0000
  Fe  Fe87      1.0  0.11640945399784683  0.6876602657313154  0.8914249578901601  1.0000
  S   S173      1.0  0.09789701060079883  0.6693107163850175  0.8467219203779207  1.0000
  Fe  Fe88      1.0  0.09679708650243964  0.68697483277918  0.9557311871597138  1.0000
  S   S174      1.0  0.054173024049718584  0.6611210972816813  0.9813295423916217  1.0000
  S   S175      1.0  0.16408620207337504  0.7082107515034638  0.9033603533478718  1.0000
  S   S176      1.0  0.1435013409925674  0.7080670232125388  0.9722057896294605  1.0000
  Fe  Fe89      1.0  0.9744234183539991  0.3855950492691238  0.11915523040980323  1.0000
  S   S177      1.0  0.9255550405187125  0.3657453202641108  0.11113121126705414  1.0000
  S   S178      1.0  0.011421704807054695  0.41599588263653503  0.08805658221804491  1.0000
  Fe  Fe90      1.0  0.9649717611815427  0.3694703523609324  0.184772090516351  1.0000
  S   S179      1.0  0.91630095027718  0.3498604193473917  0.18145500578465726  1.0000
  S   S180      1.0  0.9852099203745539  0.3650305377535881  0.2266391517102234  1.0000
  Fe  Fe91      1.0  0.9199849706276048  0.32860303271331803  0.14039680305620963  1.0000
  S   S181      1.0  0.8932339537857191  0.2786373351068934  0.14028980127681073  1.0000
  Fe  Fe92      1.0  0.9262829298228751  0.38846187141942956  0.15329223336508804  1.0000
  S   S182      1.0  0.9029026422135157  0.41353397967386385  0.16334367723646565  1.0000
  S   S183      1.0  0.968856708696337  0.346674312983645  0.14487183490092082  1.0000
  S   S184      1.0  0.9750114512158531  0.41015517698455445  0.1600763083194489  1.0000
  Fe  Fe93      1.0  0.9161155795232068  0.5954383441455631  0.14813966910076812  1.0000
  S   S185      1.0  0.9465759364811406  0.6411875171344225  0.1646907625100177  1.0000
  S   S186      1.0  0.8679378623756238  0.5745194513798316  0.135516767457262  1.0000
  Fe  Fe94      1.0  0.9646063263427119  0.5796761625938055  0.1483625921695477  1.0000
  S   S187      1.0  0.9986741851641926  0.6239969506193294  0.16562087266430328  1.0000
  S   S188      1.0  0.9785222647055078  0.5482150125145733  0.13123946700950795  1.0000
  Fe  Fe95      1.0  0.9626834458021459  0.6192136650467501  0.19593553470649663  1.0000
  S   S189      1.0  0.9709418360763618  0.6365439299175234  0.24263065420740057  1.0000
  Fe  Fe96      1.0  0.979842176738562  0.6417805652853562  0.13296564033735306  1.0000
  S   S190      1.0  0.009305350702096407  0.6808711429227375  0.10413004496900372  1.0000
  S   S191      1.0  0.929937549251952  0.5730935044797307  0.18123213148288567  1.0000
  S   S192      1.0  0.9478813855916911  0.5978290127532543  0.11391551117260984  1.0000
  C   C1        1.0  0.925779571716579  0.45125412392081715  0.15651684955417852  1.0000
  C   C2        1.0  0.9471266967427812  0.46058728251650677  0.13459816462480395  1.0000
  C   C3        1.0  0.96373160601953  0.4905636133592696  0.12755071005338972  1.0000
  C   C4        1.0  0.9592349897668445  0.511324631778526  0.14252817326227685  1.0000
  C   C5        1.0  0.9387003986651306  0.5021736331055713  0.1652407321892977  1.0000
  C   C6        1.0  0.9218065026524261  0.4720879860382262  0.17210830555271509  1.0000
  H   H1        1.0  0.9503118591129763  0.4446106312422607  0.12252273387968447  1.0000
  H   H2        1.0  0.9797691252898052  0.49761300486109  0.11011266853749192  1.0000
  H   H3        1.0  0.9358835122788572  0.5182772848937105  0.17744081684015314  1.0000
  H   H4        1.0  0.9056332617574849  0.464907904967756  0.1894213445460726  1.0000
  C   C7        1.0  0.043585100531720815  0.6674403191052801  0.01616416374520946  1.0000
  C   C8        1.0  0.02065083322772599  0.6434128153743243  0.03083461084839427  1.0000
  C   C9        1.0  0.010935801720358289  0.6471090006452295  0.05832464419088353  1.0000
  C   C10       1.0  0.023416876393203112  0.675106928454014  0.07109489092025147  1.0000
  C   C11       1.0  0.04643903999117162  0.6992085594188512  0.05648072876743302  1.0000
  C   C12       1.0  0.0567974404235132  0.6953571547833858  0.029274713008810953  1.0000
  H   H5        1.0  0.010265726575989334  0.6217429498869677  0.02084856953663916  1.0000
  H   H6        1.0  0.9933346563178577  0.6283389921261573  0.06929030069292222  1.0000
  H   H7        1.0  0.0561895335079215  0.7209839268755062  0.06616915891162925  1.0000
  H   H8        1.0  0.07438514984267078  0.7140847956486408  0.018134611275184565  1.0000
  C   C13       1.0  0.05959566859972532  0.40040028467032207  0.011937669934419137  1.0000
  C   C14       1.0  0.0697140746157987  0.42863119783708403  0.023404147812610132  1.0000
  C   C15       1.0  0.0548188709047501  0.432824451646822  0.046918459013888004  1.0000
  C   C16       1.0  0.029853405934128573  0.40885900020742405  0.05944429230410854  1.0000
  C   C17       1.0  0.02021827291257757  0.38048274865495124  0.0485996128591726  1.0000
  C   C18       1.0  0.03503034426623478  0.3763192625645258  0.024911489174610058  1.0000
  H   H9        1.0  0.08889161299055179  0.44725587197511874  0.013969166573674308  1.0000
  H   H10       1.0  0.06260924108071961  0.4548368310414019  0.055342881213786416  1.0000
  H   H11       1.0  0.0010723007067594548  0.36182077899433923  0.05804907480127295  1.0000
  H   H12       1.0  0.027119460658884556  0.3543595858471992  0.016256300534158052  1.0000
  C   C19       1.0  0.12062912549148655  0.5522578426027082  0.9297438499464478  1.0000
  C   C20       1.0  0.15051579014706232  0.5665262838513723  0.9372111937659906  1.0000
  C   C21       1.0  0.16513932951665972  0.596460568683716  0.945546096842224  1.0000
  C   C22       1.0  0.14992591741374042  0.6121176276236724  0.9464272387260135  1.0000
  C   C23       1.0  0.11982696744253665  0.597353091907867  0.9400029562050206  1.0000
  C   C24       1.0  0.10530198766606048  0.5676588925178532  0.9314870067191746  1.0000
  H   H13       1.0  0.16248048947640456  0.5547016314974698  0.9360651888912094  1.0000
  H   H14       1.0  0.18840589849948508  0.6076228186920706  0.9507499975646925  1.0000
  H   H15       1.0  0.10752814368280054  0.6085727047005907  0.9417892413368499  1.0000
  H   H16       1.0  0.08208646903954732  0.5566130352066951  0.9261170925318093  1.0000
  C   C25       1.0  0.966012980725585  0.5829189882377034  0.3234745081477626  1.0000
  C   C26       1.0  0.9565237250268771  0.5687683437294438  0.29622117480864624  1.0000
  C   C27       1.0  0.9585037140547604  0.5849717564432005  0.27101580423225813  1.0000
  C   C28       1.0  0.9702767042198531  0.6154805170444074  0.2729289450821199  1.0000
  C   C29       1.0  0.9804340072747316  0.6296468715169575  0.3000608979210975  1.0000
  C   C30       1.0  0.9782557553622727  0.6134530785654028  0.3252447064381927  1.0000
  H   H17       1.0  0.9472650145026394  0.5451715913029623  0.2946093887981111  1.0000
  H   H18       1.0  0.9507031551775246  0.5738609407956811  0.25020155591376  1.0000
  H   H19       1.0  0.9901448488964771  0.6533178297295196  0.3015858190352074  1.0000
  H   H20       1.0  0.9863042650357876  0.6246446161585355  0.3459822571739329  1.0000
  C   C31       1.0  0.95466092761941  0.3880392364260558  0.3116995123466554  1.0000
  C   C32       1.0  0.9699186933439402  0.37253776273340916  0.31250974641009227  1.0000
  C   C33       1.0  0.9795018030368026  0.36582068376816007  0.2863175461511312  1.0000
  C   C34       1.0  0.9733441981654192  0.37401727579981947  0.2592169062966729  1.0000
  C   C35       1.0  0.9575360594340186  0.3889251636873779  0.2584137551347028  1.0000
  C   C36       1.0  0.9485335192973865  0.3961799772602603  0.28457492709829163  1.0000
  H   H21       1.0  0.9749083181502176  0.3663401343634056  0.33331677094081014  1.0000
  H   H22       1.0  0.9917194672647592  0.3542649951105862  0.28709429923638946  1.0000
  H   H23       1.0  0.9526608527822974  0.39535541821459763  0.23766287182548018  1.0000
  H   H24       1.0  0.9367893607656571  0.40821634859329853  0.28375912415733084  1.0000
  C   C37       1.0  0.8893782629514787  0.4249594384676956  0.47391508676139465  1.0000
  C   C38       1.0  0.9114763261933534  0.44869081183054293  0.458139382103328  1.0000
  C   C39       1.0  0.9143038779569257  0.4768998560309212  0.4603787411116877  1.0000
  C   C40       1.0  0.895099506109866  0.4811620067346057  0.47845462255157395  1.0000
  C   C41       1.0  0.8732074443692204  0.45738827423576933  0.4940160279752318  1.0000
  C   C42       1.0  0.8703315264298153  0.42949981207408466  0.49170315716281676  1.0000
  H   H25       1.0  0.9263763033143958  0.44530307428751  0.4445461852760471  1.0000
  H   H26       1.0  0.9314117125148977  0.49532929090334593  0.4485466493233852  1.0000
  H   H27       1.0  0.8584906225627864  0.4605381446993227  0.5081854791371013  1.0000
  H   H28       1.0  0.8533558794448247  0.4113181063061172  0.5040031752159037  1.0000
  C   C43       1.0  0.1409576124012708  0.7206617107012255  0.7631170068432953  1.0000
  C   C44       1.0  0.11499355906754445  0.693327011463867  0.761778446904823  1.0000
  C   C45       1.0  0.10215619235263892  0.6776505619056897  0.7875802884567816  1.0000
  C   C46       1.0  0.11536599735512112  0.6890176369400752  0.8147987635741363  1.0000
  C   C47       1.0  0.14200295621895198  0.7157111619229088  0.8160759606164538  1.0000
  C   C48       1.0  0.15455049275920107  0.7316880366485496  0.7903088475876117  1.0000
  H   H29       1.0  0.10426358653213903  0.6847529297413163  0.7409685775770397  1.0000
  H   H30       1.0  0.08162039526542021  0.6568978176405136  0.7864491585613901  1.0000
  H   H31       1.0  0.15269518374169894  0.7241054696864072  0.8369044365450342  1.0000
  H   H32       1.0  0.1748939122916228  0.7525997359332328  0.7912721024886028  1.0000
  C   C49       1.0  0.04240131142761435  0.644092878324842  0.5159340253820007  1.0000
  C   C50       1.0  0.02089444568082095  0.6400892034885953  0.5364029954604351  1.0000
  C   C51       1.0  0.02862038061400425  0.6474481071579237  0.5660192180429706  1.0000
  C   C52       1.0  0.05779404778915503  0.6585699594408325  0.5755377037584211  1.0000
  C   C53       1.0  0.07916076766422869  0.661808261728413  0.5552543551632491  1.0000
  C   C54       1.0  0.07154474514942039  0.6549201825346209  0.5255596747810375  1.0000
  H   H33       1.0  0.9984282292196449  0.6318717054114804  0.529300288225017  1.0000
  H   H34       1.0  0.01190918302992391  0.6448207687559386  0.5815460285005618  1.0000
  H   H35       1.0  0.10156369828474975  0.669872429685062  0.5623620029162755  1.0000
  H   H36       1.0  0.08826959307584374  0.6579092225525722  0.5098828854061569  1.0000
  C   C55       1.0  0.12350400969130061  0.461859520557633  0.7563926251980825  1.0000
  C   C56       1.0  0.12254495539660201  0.4347116953983766  0.7564658077729126  1.0000
  C   C57       1.0  0.1247626045906277  0.4224817937225379  0.7830679378367699  1.0000
  C   C58       1.0  0.12755600292063482  0.4370775575246152  0.8097873893337516  1.0000
  C   C59       1.0  0.12843424116905192  0.46415373154447737  0.8096567253913516  1.0000
  C   C60       1.0  0.1264896487127019  0.47647624303173486  0.7830861877690669  1.0000
  H   H37       1.0  0.11978710809163942  0.4230506682765019  0.7360901197152903  1.0000
  H   H38       1.0  0.12376753972574712  0.40137636176059943  0.7830012934275232  1.0000
  H   H39       1.0  0.13054708974632656  0.47560283135409204  0.8300368576447898  1.0000
  H   H40       1.0  0.1272320827981557  0.4974652486033065  0.7832190165348203  1.0000
  C   C61       1.0  0.033490600875729505  0.3981700444962581  0.5647279831199399  1.0000
  C   C62       1.0  0.005403945562083877  0.3910871509978184  0.5545549386348653  1.0000
  C   C63       1.0  0.9986031445739071  0.3868275312968454  0.5245079203486185  1.0000
  C   C64       1.0  0.019717594928639087  0.3890335428763892  0.5044108899008153  1.0000
  C   C65       1.0  0.047645152341665074  0.39566849605588345  0.5146245506279167  1.0000
  C   C66       1.0  0.054644336100188845  0.4005630242264178  0.5445942866009227  1.0000
  H   H41       1.0  0.9888909224577845  0.38914657871725195  0.5700067991039386  1.0000
  H   H42       1.0  0.9770598725322497  0.38188887874895194  0.5169506798475216  1.0000
  H   H43       1.0  0.06407398834796038  0.39729610952066974  0.49923845180916354  1.0000
  H   H44       1.0  0.0762301736088759  0.40567847005723184  0.552168111346743  1.0000
  C   C67       1.0  0.15304877374470566  0.5598986572266333  0.6136179336045701  1.0000
  C   C68       1.0  0.14936299227325492  0.555296734294356  0.6437281654384367  1.0000
  C   C69       1.0  0.1498504759820385  0.5769935956224167  0.6620457499119621  1.0000
  C   C70       1.0  0.15391930987157795  0.6034047838146468  0.6504239527247357  1.0000
  C   C71       1.0  0.15741675617068118  0.608084650805118  0.6202446576428241  1.0000
  C   C72       1.0  0.15700008223536926  0.5862925090294995  0.6018272674994883  1.0000
  H   H45       1.0  0.14655518280485302  0.5351680511301841  0.6530832671494364  1.0000
  H   H46       1.0  0.14722388947591186  0.5733055526263134  0.6853844823635538  1.0000
  H   H47       1.0  0.16083889703140297  0.6285681502397668  0.6111922078830214  1.0000
  H   H48       1.0  0.16007957120342878  0.5900147192944143  0.5785412190866387  1.0000
  C   C73       1.0  0.8162635133588008  0.6020069375997148  0.4618259638347951  1.0000
  C   C74       1.0  0.8390929732136942  0.6032402036284943  0.47883589914334845  1.0000
  C   C75       1.0  0.8668207807176824  0.6119417181647465  0.4663979032561189  1.0000
  C   C76       1.0  0.8720881523902191  0.6202536393405346  0.43701973684189244  1.0000
  C   C77       1.0  0.8494406764593732  0.6197128177073177  0.4202375647414415  1.0000
  C   C78       1.0  0.8215164435279478  0.6102806488372378  0.4324743504442149  1.0000
  H   H49       1.0  0.8353111882952464  0.5974360947403221  0.5017053957982777  1.0000
  H   H50       1.0  0.884342827802512  0.6128736301073711  0.47964816108733316  1.0000
  H   H51       1.0  0.8533635735145461  0.6264301402352939  0.39761868162650393  1.0000
  H   H52       1.0  0.8041315084896594  0.6095846776635133  0.41916732787555216  1.0000
  C   C79       1.0  0.6204077296338141  0.4819085485161134  0.425121274861795  1.0000
  C   C80       1.0  0.592761982708177  0.46280099895004556  0.41284882160040776  1.0000
  C   C81       1.0  0.5694444239203127  0.44278514871793334  0.4304100270853039  1.0000
  C   C82       1.0  0.5737984039081543  0.4413208782619304  0.4603124574686305  1.0000
  C   C83       1.0  0.6014753963797617  0.46038485183779365  0.47271499825095403  1.0000
  C   C84       1.0  0.6247721604891834  0.4808144562912389  0.45514092762924024  1.0000
  H   H53       1.0  0.5893303146619266  0.46348583312708486  0.3896036051089454  1.0000
  H   H54       1.0  0.5482026869358895  0.4282597036128259  0.420621353595733  1.0000
  H   H55       1.0  0.6049447546748689  0.45920397006150393  0.4958517779463126  1.0000
  H   H56       1.0  0.646235441677969  0.4951712508187238  0.4646234505946064  1.0000
  C   C85       1.0  0.6628058897640771  0.6410090577757096  0.5596115232313301  1.0000
  C   C86       1.0  0.6747641223349009  0.6233533369705955  0.5510762773297008  1.0000
  C   C87       1.0  0.6800844067865705  0.6203900090131305  0.5213769859225822  1.0000
  C   C88       1.0  0.6741148725503988  0.6356260035271267  0.49998300803734635  1.0000
  C   C89       1.0  0.6618602024437934  0.6529606746340787  0.5084540356193019  1.0000
  C   C90       1.0  0.6560949198151962  0.6555477648567709  0.5380760744166962  1.0000
  H   H57       1.0  0.6798017389706704  0.6118562962623126  0.5675951539541183  1.0000
  H   H58       1.0  0.6889184642925041  0.6064911382463503  0.5150658036717081  1.0000
  H   H59       1.0  0.657053337076402  0.6647589236080595  0.49206292238747956  1.0000
  H   H60       1.0  0.6469651757151611  0.6692497991153207  0.5442922587938009  1.0000
  C   C91       1.0  0.27850781019777304  0.4722153396660483  0.6299359737026803  1.0000
  C   C92       1.0  0.26379405004588813  0.4437972372258074  0.6415957548025977  1.0000
  C   C93       1.0  0.23285569860881442  0.427784346466442  0.6424968649211559  1.0000
  C   C94       1.0  0.2163559515409126  0.4403115948864727  0.6324462717182288  1.0000
  C   C95       1.0  0.2309925066944442  0.46895034038795685  0.6213123009669418  1.0000
  C   C96       1.0  0.26198383858856633  0.4847573156082262  0.6198947386320165  1.0000
  H   H61       1.0  0.27618515031055607  0.4341487499597443  0.6500229302447728  1.0000
  H   H62       1.0  0.22164604742318453  0.4057206591408778  0.651373772122883  1.0000
  H   H63       1.0  0.21845289839328097  0.47877707461453656  0.6134405771853352  1.0000
  H   H64       1.0  0.2731999520446975  0.5067621401503376  0.6108687246266242  1.0000
  C   C97       1.0  0.37221214774788786  0.394854212411553  0.5640308738414332  1.0000
  C   C98       1.0  0.37855041155507574  0.3737237740046776  0.552621727119977  1.0000
  C   C99       1.0  0.39249364160411854  0.3779255274580308  0.5252892751106591  1.0000
  C   C100      1.0  0.3992837946098715  0.4028614294364485  0.5087058130155234  1.0000
  C   C101      1.0  0.39243173450229724  0.42370774997685323  0.519905169713743  1.0000
  C   C102      1.0  0.3791997036457411  0.4198855955007398  0.5475305937255787  1.0000
  H   H65       1.0  0.3729154793598175  0.35411428081362173  0.5650969017524125  1.0000
  H   H66       1.0  0.39731735237018695  0.361525396383783  0.5167479455663968  1.0000
  H   H67       1.0  0.3974245782516583  0.4429548029395846  0.5071113718496562  1.0000
  H   H68       1.0  0.3741941890113265  0.43619876196709917  0.5558680700296049  1.0000
  C   C103      1.0  0.47317978156105595  0.5430307578033078  0.6303426631105147  1.0000
  C   C104      1.0  0.5030113722022213  0.5550664169398956  0.6234066826591058  1.0000
  C   C105      1.0  0.5182780497846461  0.5823581357386463  0.6093597650491378  1.0000
  C   C106      1.0  0.5039582456599025  0.598054440310471  0.6029588254976707  1.0000
  C   C107      1.0  0.47351730498817235  0.5848619807912637  0.6076586733031761  1.0000
  C   C108      1.0  0.4580200332609565  0.5571642736613373  0.6211873167104541  1.0000
  H   H69       1.0  0.5147673195228081  0.5440619742613519  0.6301910890188097  1.0000
  H   H70       1.0  0.5414476350779726  0.5918597345874134  0.6046370677441758  1.0000
  H   H71       1.0  0.46226909871385774  0.5967814120758107  0.6023143885224882  1.0000
  H   H72       1.0  0.43486837804418704  0.5477721118362072  0.6262311453530802  1.0000
  C   C109      1.0  0.44856477101582487  0.35838867771562505  0.2696976652756949  1.0000
  C   C110      1.0  0.46809647070005095  0.3887812438830369  0.2687282728756544  1.0000
  C   C111      1.0  0.47898790927992846  0.4049864043393314  0.2948282558918841  1.0000
  C   C112      1.0  0.4708133108123128  0.39089705078508924  0.32203475143562404  1.0000
  C   C113      1.0  0.4516540246412325  0.3604001814282047  0.32301280991216863  1.0000
  C   C114      1.0  0.44037617634042775  0.3442582473591764  0.29691335012732656  1.0000
  H   H73       1.0  0.4745543905362077  0.39987943964674505  0.24787079060026776  1.0000
  H   H74       1.0  0.4938164813402679  0.4285595121938403  0.2938889315759516  1.0000
  H   H75       1.0  0.4452797732801095  0.3492849491918499  0.34385938737459476  1.0000
  H   H76       1.0  0.4252228781215906  0.3207574299771794  0.29784129858160735  1.0000
  C   C115      1.0  0.8190257456489728  0.6266025958394887  0.1373528265228671  1.0000
  C   C116      1.0  0.8492149650157069  0.6406883029416228  0.14408318239921608  1.0000
  C   C117      1.0  0.8641809447383281  0.6247208623169188  0.14478760327603732  1.0000
  C   C118      1.0  0.8492401601739685  0.5946678756461  0.13785936235783344  1.0000
  C   C119      1.0  0.8189904990979715  0.5804912080201835  0.1313950019256279  1.0000
  C   C120      1.0  0.8038421262522336  0.5963247693950426  0.13141901295689173  1.0000
  H   H77       1.0  0.8610155361536247  0.6640735499830851  0.14886028728496464  1.0000
  H   H78       1.0  0.8873614487085086  0.6358267880242361  0.15014979876223464  1.0000
  H   H79       1.0  0.8072279444265587  0.5572335498070458  0.12609788404875402  1.0000
  H   H80       1.0  0.7806198361635095  0.5853091158877277  0.1260986529676491  1.0000
  C   C121      1.0  0.7094469370324579  0.6210630762862854  0.2613601117491377  1.0000
  C   C122      1.0  0.6954659582035986  0.6158604775305947  0.28864544678057463  1.0000
  C   C123      1.0  0.7100773386615398  0.6155857786139841  0.3142848108849754  1.0000
  C   C124      1.0  0.73900034951955  0.6210029906282493  0.31287059323981753  1.0000
  C   C125      1.0  0.7529506011542311  0.6261201745645664  0.2855458229058104  1.0000
  C   C126      1.0  0.738144919877572  0.6258797966456938  0.2598139139976269  1.0000
  H   H81       1.0  0.6732625236012107  0.6121195014849466  0.28998456587219296  1.0000
  H   H82       1.0  0.6992028171986384  0.6118328420818242  0.3351926901801147  1.0000
  H   H83       1.0  0.7753596267589435  0.6304322074478226  0.2842971720559147  1.0000
  H   H84       1.0  0.7491144575602308  0.6299163528240087  0.23889325836502365  1.0000
  C   C127      1.0  0.6251405297312953  0.5091813839205653  0.1339510332490506  1.0000
  C   C128      1.0  0.6067113360410079  0.4792732093678445  0.12696907726683992  1.0000
  C   C129      1.0  0.5774864719872148  0.46389162683018204  0.13727700698227385  1.0000
  C   C130      1.0  0.5666868748252354  0.4785427838239711  0.15444175909092156  1.0000
  C   C131      1.0  0.5850940600715898  0.5083598897116902  0.1612621829266851  1.0000
  C   C132      1.0  0.6141653881154235  0.5235315801221839  0.151187675543792  1.0000
  H   H85       1.0  0.6150449420911681  0.46792395915993046  0.11369484856041051  1.0000
  H   H86       1.0  0.5633533599046555  0.44079826275423983  0.13198000786040073  1.0000
  H   H87       1.0  0.5767943755839043  0.5197655496369841  0.1745197557981063  1.0000
  H   H88       1.0  0.6279829681583895  0.5462572661007636  0.15708772847764219  1.0000
  C   C133      1.0  0.6342954770635016  0.7050695594863748  0.8037181463802401  1.0000
  C   C134      1.0  0.6041689024467158  0.6843850753198019  0.8036443200936403  1.0000
  C   C135      1.0  0.5899771076746714  0.6704082246293852  0.7774143208452116  1.0000
  C   C136      1.0  0.6057773721518586  0.6767818866649807  0.7510977333059125  1.0000
  C   C137      1.0  0.6360518336717473  0.696939498240924  0.7512684797518191  1.0000
  C   C138      1.0  0.6501678265212019  0.7113337352258768  0.777435339934343  1.0000
  H   H89       1.0  0.5917705662641528  0.6793623131027633  0.8237821759846823  1.0000
  H   H90       1.0  0.5666123116068479  0.6546612554434958  0.7775611493985563  1.0000
  H   H91       1.0  0.6486623189590196  0.7011703992782967  0.7313701661508308  1.0000
  H   H92       1.0  0.6735755727567679  0.7270067060306369  0.7774605593103453  1.0000
  C   C139      1.0  0.6624960559748947  0.6599832788924401  0.9981593560818474  1.0000
  C   C140      1.0  0.6462313852578752  0.6658756968542286  0.01854241167210713  1.0000
  C   C141      1.0  0.6519103436414068  0.6659789670072561  0.04864130534405946  1.0000
  C   C142      1.0  0.6734974469013616  0.6596928253246503  0.058636396624651456  1.0000
  C   C143      1.0  0.6894326069754738  0.6533554688990346  0.038259622502330816  1.0000
  C   C144      1.0  0.6839044779273403  0.6534714768101533  0.008161390234825872  1.0000
  H   H93       1.0  0.6292821268490216  0.6702721179166933  0.011083487033395789  1.0000
  H   H94       1.0  0.6394054570423593  0.6707574136034844  0.0643375792978465  1.0000
  H   H95       1.0  0.7064902572218008  0.649056793438301  0.04566104910092999  1.0000
  H   H96       1.0  0.6966334295908986  0.6489548810180329  0.9924967587550277  1.0000
  C   C145      1.0  0.2722932042813427  0.4494914468185921  0.9503993274844326  1.0000
  C   C146      1.0  0.28724011811871447  0.48001938557327833  0.9463116702131977  1.0000
  C   C147      1.0  0.27154968673585284  0.4952959833904552  0.9460272225817874  1.0000
  C   C148      1.0  0.24082137178274365  0.48018141934040265  0.9495700275428675  1.0000
  C   C149      1.0  0.22593125334320144  0.44972959123015377  0.954103905363438  1.0000
  C   C150      1.0  0.24162891905872583  0.434470943340798  0.9545923267152273  1.0000
  H   H97       1.0  0.31083216093226307  0.49183079315911477  0.9431179501159849  1.0000
  H   H98       1.0  0.28323720096503563  0.5188848223993914  0.9426730911476366  1.0000
  H   H99       1.0  0.20235548137500303  0.43796450062137665  0.9574472011108198  1.0000
  H   H100      1.0  0.22995420314914897  0.41088346654785607  0.9579707081463712  1.0000
  C   C151      1.0  0.38923581727481094  0.4697752859697563  0.8219792902955206  1.0000
  C   C152      1.0  0.36145318463305115  0.4443650639015167  0.8231446881535673  1.0000
  C   C153      1.0  0.34650544925061216  0.43054539285558374  0.7970948183336257  1.0000
  C   C154      1.0  0.3590913930883141  0.44209379236905927  0.7697307152911494  1.0000
  C   C155      1.0  0.38679129225698333  0.4676552733683082  0.7685801709135668  1.0000
  C   C156      1.0  0.4018259635845528  0.48136305542542257  0.7946203757106811  1.0000
  H   H101      1.0  0.3516043870457951  0.4351820961698264  0.8440764051245118  1.0000
  H   H102      1.0  0.3251462095796596  0.4107221069239224  0.798140711595465  1.0000
  H   H103      1.0  0.39668494107223495  0.47667998307569476  0.7476322374272498  1.0000
  H   H104      1.0  0.4232983722988556  0.500990497197058  0.793542444685078  1.0000
  C   C157      1.0  0.41224916567028463  0.4053870510284705  0.009943074726109558  1.0000
  C   C158      1.0  0.38623203270139467  0.3957479943549093  0.025811982035146785  1.0000
  C   C159      1.0  0.38382301341865127  0.38472449759890437  0.054293431928141844  1.0000
  C   C160      1.0  0.4076347963805532  0.38404312073775926  0.06749696982517711  1.0000
  C   C161      1.0  0.433913309446403  0.3943484141105601  0.05189562776652743  1.0000
  C   C162      1.0  0.436038698533729  0.4046061396492693  0.023105060696493984  1.0000
  H   H105      1.0  0.3676854838824846  0.39603852494486286  0.015837033177332316  1.0000
  H   H106      1.0  0.36333046815601455  0.3765950181284479  0.06612524378926266  1.0000
  H   H107      1.0  0.4524219598984147  0.3939650888510992  0.0617678885598769  1.0000
  H   H108      1.0  0.45623945897204876  0.4120329873095448  0.010951291641048355  1.0000
  C   C163      1.0  0.4567810572559104  0.5699730113511451  0.9614828835300897  1.0000
  C   C164      1.0  0.48565737936082337  0.589437173369352  0.9709057246811817  1.0000
  C   C165      1.0  0.5068409340626814  0.6090920536114919  0.9510673408628131  1.0000
  C   C166      1.0  0.49884895979669575  0.6097794172963593  0.922053209129678  1.0000
  C   C167      1.0  0.4696862008561869  0.5912638609314095  0.9131192602220503  1.0000
  C   C168      1.0  0.448871304556548  0.5709712479688805  0.9325739923874569  1.0000
  H   H109      1.0  0.49183881066042184  0.5886625434783833  0.9932813921941885  1.0000
  H   H110      1.0  0.5293438688341648  0.6232266956685757  0.9581028717803769  1.0000
  H   H111      1.0  0.4632019119289349  0.5921058047250178  0.8908753732548711  1.0000
  H   H112      1.0  0.4265628937331925  0.5562069226660746  0.9252384857610586  1.0000
  C   C169      1.0  0.6367427120545572  0.8499621888705229  0.9341310504300733  1.0000
  C   C170      1.0  0.614499693850469  0.8370054440754987  0.955142214203974  1.0000
  C   C171      1.0  0.6042215868502235  0.8077437459930555  0.9639674548547348  1.0000
  C   C172      1.0  0.6155410158634446  0.7910217410732632  0.9513178180470327  1.0000
  C   C173      1.0  0.637152121024918  0.8036760665803384  0.9297015782234339  1.0000
  C   C174      1.0  0.647968917863434  0.8331585246933283  0.9214443070029622  1.0000
  H   H113      1.0  0.6058592597211834  0.8498201123138305  0.9651987826374416  1.0000
  H   H114      1.0  0.5876191305500562  0.7981838848461252  0.980834632251907  1.0000
  H   H115      1.0  0.6460584978686982  0.7910288231189639  0.9198118003771103  1.0000
  H   H116      1.0  0.665236113393479  0.8430420822862482  0.9052485148967282  1.0000
  C   C175      1.0  0.2828836168100051  0.8374004687346285  0.9476114052459491  1.0000
  C   C176      1.0  0.26696038616824  0.8064296865117944  0.9483854229953855  1.0000
  C   C177      1.0  0.2363312027207013  0.7907217986960686  0.9432883670821599  1.0000
  C   C178      1.0  0.22135293040814039  0.8059298896901708  0.9375231699801465  1.0000
  C   C179      1.0  0.23725723546048022  0.8368731275212988  0.9367274897606354  1.0000
  C   C180      1.0  0.2678600036501297  0.8525488426564221  0.9418188728642943  1.0000
  H   H117      1.0  0.27839206558583984  0.7945301803276866  0.9529670830801  1.0000
  H   H118      1.0  0.22433302270824373  0.7668923586944069  0.9440377995927306  1.0000
  H   H119      1.0  0.22583007104909003  0.8488463444351328  0.9325465615058398  1.0000
  H   H120      1.0  0.27974557342552475  0.8763629309178881  0.9415392091163907  1.0000
  C   C181      1.0  0.4780069357207553  0.9464985891566989  0.9286197734959435  1.0000
  C   C182      1.0  0.5052952353222917  0.9546129323191768  0.9158493662246293  1.0000
  C   C183      1.0  0.5190933203218234  0.9380476763257167  0.920868582893537  1.0000
  C   C184      1.0  0.50630018312956  0.9138635623692783  0.9396328180021275  1.0000
  C   C185      1.0  0.4785989772430058  0.905245479154115  0.9519020322277967  1.0000
  C   C186      1.0  0.4643615531077749  0.9214381284603981  0.9462821466839316  1.0000
  H   H121      1.0  0.5157901047354384  0.9737525815779241  0.9018748936681609  1.0000
  H   H122      1.0  0.5397582765422371  0.9442082048533987  0.9103198988025438  1.0000
  H   H123      1.0  0.468360540378433  0.8863324275442135  0.9661768521255365  1.0000
  H   H124      1.0  0.4432308430455254  0.914966193359137  0.9561527506788059  1.0000
  C   C187      1.0  0.7933651862845907  0.22576050890115468  0.1252789824893926  1.0000
  C   C188      1.0  0.8078702950832317  0.21294828507336078  0.1391784008354977  1.0000
  C   C189      1.0  0.8384930486976927  0.22948609658386443  0.14372869436556435  1.0000
  C   C190      1.0  0.8546673913531629  0.2591758394250192  0.13528469333276177  1.0000
  C   C191      1.0  0.8400173781367917  0.2722714044755916  0.1222719236311367  1.0000
  C   C192      1.0  0.8095095631253644  0.255470383576139  0.11693515672485526  1.0000
  H   H125      1.0  0.7956336157177677  0.19016371107134694  0.1459023406395965  1.0000
  H   H126      1.0  0.8497209201131103  0.21922136936161715  0.15376930733933397  1.0000
  H   H127      1.0  0.8523114189429157  0.29510853902108836  0.11562889205835646  1.0000
  H   H128      1.0  0.7984384224247538  0.2655417276375674  0.10619243645214106  1.0000
  C   C193      1.0  0.6896954597285221  0.04319387634545075  0.07723649708333448  1.0000
  C   C194      1.0  0.6730026012754172  0.05403695887647458  0.06418731346418259  1.0000
  C   C195      1.0  0.6595422462666362  0.04309705190843265  0.03691906095663183  1.0000
  C   C196      1.0  0.6619101298162569  0.020640086038730597  0.02259689478173299  1.0000
  C   C197      1.0  0.6779492018344638  0.009124199762393677  0.03588934254862153  1.0000
  C   C198      1.0  0.692032292105924  0.0205988268413972  0.06301349361055474  1.0000
  H   H129      1.0  0.6705411067718032  0.07100571762404984  0.0749508425526284  1.0000
  H   H130      1.0  0.6472329158470321  0.0521826062212265  0.026810563975960378  1.0000
  H   H131      1.0  0.6800335224227637  0.9918927632544448  0.02502919175455709  1.0000
  H   H132      1.0  0.7048536540792415  0.011999265555065523  0.07294597758297822  1.0000
  C   C199      1.0  0.4493511558847077  0.2209537144375265  0.1411119503348391  1.0000
  C   C200      1.0  0.47977121863086203  0.2358039407351771  0.13631788874831205  1.0000
  C   C201      1.0  0.4951411112534322  0.26645956315193403  0.13159550068573814  1.0000
  C   C202      1.0  0.48035514890777614  0.28254937074480463  0.13225805266676413  1.0000
  C   C203      1.0  0.4499803871931973  0.2677024043396909  0.13730887825605095  1.0000
  C   C204      1.0  0.43450548830685204  0.23699658108168267  0.14132445931037999  1.0000
  H   H133      1.0  0.49140046616232813  0.2236275502174669  0.136036286306167  1.0000
  H   H134      1.0  0.5186293794949143  0.27775551393176434  0.12759004736562776  1.0000
  H   H135      1.0  0.438342345529033  0.27975434889164474  0.13785571426805623  1.0000
  H   H136      1.0  0.4109617494351737  0.22558864867492145  0.14501495697249245  1.0000
  C   C205      1.0  0.42351769809267525  0.04636924581986839  0.07075255225471642  1.0000
  C   C206      1.0  0.419109577041088  0.019129946870414326  0.06041699499805192  1.0000
  C   C207      1.0  0.4028497134542162  0.006191447798738967  0.03470795520424318  1.0000
  C   C208      1.0  0.39125802404348686  0.020642642014462444  0.018661334183267098  1.0000
  C   C209      1.0  0.3951815541114502  0.04763096858299488  0.02925687902552343  1.0000
  C   C210      1.0  0.41123402717444857  0.060468470005859  0.0551649540895357  1.0000
  H   H137      1.0  0.42825391409690844  0.007903287605946906  0.07249420656775313  1.0000
  H   H138      1.0  0.39940426935231005  0.9850896700877216  0.027244188804080194  1.0000
  H   H139      1.0  0.38611322717991353  0.0589000945109068  0.017127039667093058  1.0000
  H   H140      1.0  0.4143778258936876  0.0813881661015211  0.06288334771571241  1.0000
  C   C211      1.0  0.574314167336036  0.15980504695203704  0.15111047726448767  1.0000
  C   C212      1.0  0.5594703611992989  0.13583324617615647  0.13211154974656003  1.0000
  C   C213      1.0  0.5724238288351016  0.11912097181542818  0.12390697170959095  1.0000
  C   C214      1.0  0.5998969013866143  0.12583276778538974  0.135220105951761  1.0000
  C   C215      1.0  0.6142483828530313  0.14914201661410695  0.1551141598402796  1.0000
  C   C216      1.0  0.6017695437078295  0.1665222386083323  0.16254852152811922  1.0000
  H   H141      1.0  0.5382073333222057  0.13046033132006052  0.12326871749843142  1.0000
  H   H142      1.0  0.5611214078149014  0.10099683224222238  0.10863592040564542  1.0000
  H   H143      1.0  0.6351136186565581  0.15404517905989698  0.16446140850247493  1.0000
  H   H144      1.0  0.6132423327755655  0.18498827650837318  0.1773762656280329  1.0000
  C   C217      1.0  0.5959641614064982  0.8190177753823636  0.6197496223245189  1.0000
  C   C218      1.0  0.625148404801451  0.8328638273477933  0.6294926832483572  1.0000
  C   C219      1.0  0.6405028032058857  0.8173368535737567  0.630159371651441  1.0000
  C   C220      1.0  0.6265474632677207  0.7875230228890445  0.6219982984464613  1.0000
  C   C221      1.0  0.5970770098006856  0.7733068399060633  0.6130479057444788  1.0000
  C   C222      1.0  0.581960746140256  0.7891402107298473  0.6116039175432836  1.0000
  H   H145      1.0  0.6360873196984944  0.8556406013175235  0.6361714772521619  1.0000
  H   H146      1.0  0.6632747363900032  0.8284485643176154  0.6371845239127353  1.0000
  H   H147      1.0  0.5861206498358936  0.7503165568015566  0.6066284145385783  1.0000
  H   H148      1.0  0.5593618324355814  0.778213473875338  0.6040318792694513  1.0000
  C   C223      1.0  0.6292611798838668  0.9320363178645532  0.7631553993436639  1.0000
  C   C224      1.0  0.6368565187496559  0.9616814293713467  0.7630443506259432  1.0000
  C   C225      1.0  0.635583436456171  0.975368470413224  0.7891080296709992  1.0000
  C   C226      1.0  0.6263383376517149  0.9594238298858392  0.8152842931200172  1.0000
  C   C227      1.0  0.6171564978033744  0.9293806011437402  0.8149952117568906  1.0000
  C   C228      1.0  0.6190123558101464  0.9158482997326518  0.789087223195314  1.0000
  H   H149      1.0  0.6450113573390225  0.9743952945954745  0.7432164709864827  1.0000
  H   H150      1.0  0.6426252547149299  0.9986123185591187  0.7891768189465412  1.0000
  H   H151      1.0  0.6093791041157866  0.91678676768841  0.8348894006446366  1.0000
  H   H152      1.0  0.6127932733876437  0.8928198836445428  0.7891651906464026  1.0000
  C   C229      1.0  0.273287113673397  0.8543131022161518  0.6372651755981441  1.0000
  C   C230      1.0  0.2508506573908793  0.8321094325008933  0.6541385268304716  1.0000
  C   C231      1.0  0.2322424705172153  0.8039511092583194  0.6422554812780257  1.0000
  C   C232      1.0  0.23566678423495477  0.7978963856782724  0.6132043952230315  1.0000
  C   C233      1.0  0.2576807395979446  0.8202449975831294  0.5960488347096558  1.0000
  C   C234      1.0  0.2764119963132405  0.8484116055670875  0.6080216201254207  1.0000
  H   H153      1.0  0.24792706183272317  0.8366737717391052  0.6766079828707771  1.0000
  H   H154      1.0  0.2152245660846024  0.7869791647308637  0.6556414436710682  1.0000
  H   H155      1.0  0.26020749781205804  0.8158017266582731  0.5734437145976399  1.0000
  H   H156      1.0  0.29296578995022393  0.8657213358889666  0.5945697514028504  1.0000
  C   C235      1.0  0.3962648770062536  0.9606254838973157  0.7645991415700714  1.0000
  C   C236      1.0  0.36615910279376235  0.9510687421725861  0.7633491425590092  1.0000
  C   C237      1.0  0.35010988954325073  0.9467009349808604  0.7893467170441265  1.0000
  C   C238      1.0  0.3639227091499607  0.9514495600748317  0.8167220902212413  1.0000
  C   C239      1.0  0.3938548349789125  0.9603081726559075  0.8179779198822583  1.0000
  C   C240      1.0  0.4099996108835406  0.9651178484981253  0.7919977678401434  1.0000
  H   H157      1.0  0.35538893602204397  0.947674708889138  0.7423709322161585  1.0000
  H   H158      1.0  0.32697090165882653  0.9399266602948876  0.7882035590062574  1.0000
  H   H159      1.0  0.40470557553263947  0.9640441968785719  0.838950651938934  1.0000
  H   H160      1.0  0.4333020269576571  0.9726832591550729  0.7932005485398432  1.0000
  C   C241      1.0  0.46197126866015703  0.912051503040345  0.6263617479537943  1.0000
  C   C242      1.0  0.4786844156352204  0.9427803000463991  0.6254180412426551  1.0000
  C   C243      1.0  0.5091332689053882  0.9572146194250528  0.6303769351501566  1.0000
  C   C244      1.0  0.523138132678185  0.9410204744683203  0.6360587454128349  1.0000
  C   C245      1.0  0.5067149959624738  0.9102126106083014  0.6359980999982089  1.0000
  C   C246      1.0  0.47610583228308256  0.8957372536372676  0.631128549965751  1.0000
  H   H161      1.0  0.46817771920687085  0.9554756279153013  0.6207765828846009  1.0000
  H   H162      1.0  0.5217756937283702  0.9810423852942446  0.63022185579126  1.0000
  H   H163      1.0  0.5174243792964208  0.8975778181356237  0.6404241621069559  1.0000
  H   H164      1.0  0.4633094170861557  0.8719209794493099  0.631739108835798  1.0000
  C   C247      1.0  0.7986095176330595  0.20882549362908148  0.4557261118857545  1.0000
  C   C248      1.0  0.8105982998191557  0.19968769708566542  0.433523515628105  1.0000
  C   C249      1.0  0.8385925701824788  0.21947278656101088  0.4221255078705699  1.0000
  C   C250      1.0  0.8544568208431205  0.2487121557207274  0.4322614398312104  1.0000
  C   C251      1.0  0.8421715947540022  0.25806968541204534  0.4540034764061908  1.0000
  C   C252      1.0  0.8144667482881688  0.23807368553002659  0.46590410043326935  1.0000
  H   H165      1.0  0.7985976005592917  0.1772042822364184  0.4255366823889759  1.0000
  H   H166      1.0  0.8479838410821551  0.21205490456308843  0.40536271430247  1.0000
  H   H167      1.0  0.8542392679432821  0.2805292869212135  0.46203245852568026  1.0000
  H   H168      1.0  0.805356401461211  0.24528542150589572  0.48312818758609893  1.0000
  C   C253      1.0  0.7311395887009864  0.1036930640405459  0.32098035887384785  1.0000
  C   C254      1.0  0.7317644089337799  0.09143102112098833  0.2937487687415772  1.0000
  C   C255      1.0  0.7229694239351695  0.09978344326381496  0.268067865731947  1.0000
  C   C256      1.0  0.7138243932824969  0.1206535322032977  0.2696389139310895  1.0000
  C   C257      1.0  0.7147690654450826  0.13392000401603446  0.29657074170886905  1.0000
  C   C258      1.0  0.7231484673599332  0.12536307667761037  0.32206348059939177  1.0000
  H   H169      1.0  0.7380251057105165  0.07468776006324229  0.2926839829490371  1.0000
  H   H170      1.0  0.7222879793230317  0.08937404421337176  0.24738500749459086  1.0000
  H   H171      1.0  0.7080889425346204  0.15034122442890238  0.2978978743301378  1.0000
  H   H172      1.0  0.7230336630886866  0.13535322111811385  0.3425858426317245  1.0000
  C   C259      1.0  0.6694965850998226  0.019064991282302116  0.5121273523566431  1.0000
  C   C260      1.0  0.6970846741851874  0.033038684663648975  0.5258275321373133  1.0000
  C   C261      1.0  0.7015858276845395  0.021003789629784483  0.5515059762058739  1.0000
  C   C262      1.0  0.6784458476243785  0.9952795139068821  0.5639077639592943  1.0000
  C   C263      1.0  0.6510642481521421  0.9811748930923921  0.5499371442703578  1.0000
  C   C264      1.0  0.6466851284984408  0.99294683296642  0.5241631671709456  1.0000
  H   H173      1.0  0.7148989256467222  0.05306087041197639  0.5166518454586101  1.0000
  H   H174      1.0  0.722940582114612  0.03198927950580854  0.5620588949265193  1.0000
  H   H175      1.0  0.6331832041194589  0.9611954393630713  0.5589127962782054  1.0000
  H   H176      1.0  0.6253616595259016  0.9818618075272143  0.5135445022637384  1.0000
  C   C265      1.0  0.46816963012290336  0.23552062966839385  0.4735813571278457  1.0000
  C   C266      1.0  0.46693784674434047  0.2583373287877939  0.4885173007086926  1.0000
  C   C267      1.0  0.456113877744468  0.2748561949695885  0.4745611918918174  1.0000
  C   C268      1.0  0.44609151864080365  0.2683384325872791  0.44569735680894157  1.0000
  C   C269      1.0  0.44689882801137637  0.24523035214289474  0.4309331283778222  1.0000
  C   C270      1.0  0.4581766908113971  0.2290536832871323  0.44470432815756006  1.0000
  H   H177      1.0  0.47426995466286653  0.2631310674555363  0.5109949646319272  1.0000
  H   H178      1.0  0.45487891275000436  0.2921548501514261  0.48630352923637993  1.0000
  H   H179      1.0  0.43893162295429644  0.23992793722833594  0.40867760025959243  1.0000
  H   H180      1.0  0.45904875426614217  0.21153740630657064  0.4329997053319162  1.0000
  C   C271      1.0  0.47357688363596656  0.14531740275319924  0.3280799873184667  1.0000
  C   C272      1.0  0.4729191021303243  0.15877387825408715  0.3018792588693066  1.0000
  C   C273      1.0  0.46510787214368443  0.14294134782125698  0.27540948378635544  1.0000
  C   C274      1.0  0.45772186569867257  0.11338597823923488  0.27492626319828406  1.0000
  C   C275      1.0  0.45821081308217204  0.09980054469237198  0.301184241047337  1.0000
  C   C276      1.0  0.4664375315205578  0.11580377492023963  0.3276647255785563  1.0000
  H   H181      1.0  0.4783836533687155  0.181600965730888  0.30208177286033416  1.0000
  H   H182      1.0  0.4645838368676745  0.15355813887334488  0.25540923595601805  1.0000
  H   H183      1.0  0.4526697650339882  0.07695550934903793  0.30088809922647997  1.0000
  H   H184      1.0  0.46741217645361743  0.10545745839715628  0.3476562933387669  1.0000
  C   C277      1.0  0.4189078107632394  0.0526399762387251  0.507003266536956  1.0000
  C   C278      1.0  0.4308150911738361  0.07259244984167189  0.5302714707869727  1.0000
  C   C279      1.0  0.4294868562100859  0.062374030385775624  0.5589339296969125  1.0000
  C   C280      1.0  0.4162055474774523  0.03207396879658742  0.5648319334501403  1.0000
  C   C281      1.0  0.4038421043441199  0.011977234087072519  0.5416320324088224  1.0000
  C   C282      1.0  0.405128085356635  0.02225414822482223  0.5128548442799218  1.0000
  H   H185      1.0  0.44086657385428457  0.09597345578124665  0.5262847550497953  1.0000
  H   H186      1.0  0.4388842967519525  0.07809271137620881  0.5767280253676712  1.0000
  H   H187      1.0  0.39354910913191343  0.9885944904626777  0.545838276836937  1.0000
  H   H188      1.0  0.39569106493334794  0.006579423346228916  0.49505767850008114  1.0000
  C   C283      1.0  0.5852477170382647  0.14528705101410638  0.4525977530426928  1.0000
  C   C284      1.0  0.6090428359309111  0.1437699093049335  0.4645168586628358  1.0000
  C   C285      1.0  0.6257716646977445  0.13563089965193037  0.44697673963371876  1.0000
  C   C286      1.0  0.6189569187056607  0.12928788119231985  0.4173660969909348  1.0000
  C   C287      1.0  0.5952656458864475  0.13097609594787765  0.4053852135489154  1.0000
  C   C288      1.0  0.5782919810982337  0.13880100100280263  0.42301673178983634  1.0000
  H   H189      1.0  0.6144817724118355  0.14881341015515004  0.4874066330615648  1.0000
  H   H190      1.0  0.643931740770338  0.13433371452980059  0.4563693717751839  1.0000
  H   H191      1.0  0.5899997022445892  0.12621455740181875  0.38244100095124955  1.0000
  H   H192      1.0  0.5600535392413634  0.140106586877973  0.41367896128256904  1.0000
  N   N1        1.0  0.4707768612928269  0.04464042068743379  0.9745149240850505  1.0000
  C   C289      1.0  0.501580001693073  0.053052061585749266  0.9810843198892611  1.0000
  C   C290      1.0  0.451107425215398  0.013807064939564295  0.983482973163323  1.0000
  C   C291      1.0  0.4674462674372256  0.04734750839762225  0.9427958502602153  1.0000
  C   C292      1.0  0.46284178209215304  0.06415381166503198  0.9906887329614904  1.0000
  H   H193      1.0  0.5171272689577466  0.07619622888506328  0.974567217228046  1.0000
  H   H194      1.0  0.5079983063590959  0.03853997130847797  0.96914857401141  1.0000
  H   H195      1.0  0.5046807987257268  0.05116022773716633  0.004888046544106794  1.0000
  H   H196      1.0  0.4277455568185208  0.006545966467054409  0.9783281938628924  1.0000
  H   H197      1.0  0.4565541356566308  0.9984196390715121  0.9720380483347454  1.0000
  H   H198      1.0  0.4526397563226095  0.010949974735841694  0.0073599386811595835  1.0000
  H   H199      1.0  0.44468539625202363  0.042327173167690635  0.9374042722833553  1.0000
  H   H200      1.0  0.4716825477001343  0.03170220345136898  0.9299664335406886  1.0000
  H   H201      1.0  0.48281584084246815  0.07001970736038587  0.9349194126355551  1.0000
  H   H202      1.0  0.43995598469035707  0.05882119065173175  0.9853916259637707  1.0000
  H   H203      1.0  0.47772776547532725  0.08772757471249637  0.9852072912215848  1.0000
  H   H204      1.0  0.4637724334732936  0.06175199558316402  0.014798746925935191  1.0000
  N   N2        1.0  0.40581692986769635  0.4120188586745252  0.36289287759927  1.0000
  C   C293      1.0  0.3987805593588921  0.38143573753838805  0.35692959857384315  1.0000
  C   C294      1.0  0.4227626664246889  0.4225660254456249  0.39043713275261355  1.0000
  C   C295      1.0  0.3781647763566363  0.4128131091691963  0.36568860789817714  1.0000
  C   C296      1.0  0.42352522805287396  0.43119719306021304  0.3385457973047526  1.0000
  H   H205      1.0  0.3849669422809304  0.3661700952163031  0.3745490346924652  1.0000
  H   H206      1.0  0.4191606070271594  0.3799836943333716  0.3554994648317932  1.0000
  H   H207      1.0  0.3868316408945233  0.3729857994267315  0.3358441183636302  1.0000
  H   H208      1.0  0.4282060893774732  0.4454346880022669  0.3959290349457568  1.0000
  H   H209      1.0  0.41029071285576346  0.4083177271698567  0.40923526350727074  1.0000
  H   H210      1.0  0.4439544623902387  0.4226113100710023  0.38899582874559774  1.0000
  H   H211      1.0  0.38266704738450724  0.4356087821555634  0.3700516552149251  1.0000
  H   H212      1.0  0.36448381500399624  0.39873019351660216  0.384079511675949  1.0000
  H   H213      1.0  0.3646846923719692  0.4047203453479055  0.34538805089729674  1.0000
  H   H214      1.0  0.4445066412288864  0.43097975049101966  0.3358103172131078  1.0000
  H   H215      1.0  0.4294760268355122  0.45450635521170707  0.3423404104437363  1.0000
  H   H216      1.0  0.41152333055504625  0.42379406500237016  0.31736565610073303  1.0000
  N   N3        1.0  0.2127539004019644  0.43264939409419617  0.8649994262628535  1.0000
  C   C297      1.0  0.24270280769705985  0.43856191163331815  0.8722523017331484  1.0000
  C   C298      1.0  0.21077290227475673  0.45931840601529156  0.8710458025007939  1.0000
  C   C299      1.0  0.1908401923491883  0.40798491317170527  0.882942880100313  1.0000
  C   C300      1.0  0.2066144864997945  0.4247154666235149  0.8337433283555259  1.0000
  H   H217      1.0  0.25978287700561303  0.45641495197623994  0.8585224508723549  1.0000
  H   H218      1.0  0.24477718515009464  0.4185935757274804  0.8693242583705563  1.0000
  H   H219      1.0  0.24841889562393374  0.4457761349407434  0.8953476008087863  1.0000
  H   H220      1.0  0.2275446848482457  0.47868050510056726  0.8586517835950206  1.0000
  H   H221      1.0  0.18871180879739763  0.45592762836226297  0.8652304204604746  1.0000
  H   H222      1.0  0.2143087579815082  0.4653503196765839  0.8946093722605614  1.0000
  H   H223      1.0  0.19470083553200726  0.41320397476453646  0.9066712989830085  1.0000
  H   H224      1.0  0.19173372450723214  0.3874914405978765  0.8790850168573053  1.0000
  H   H225      1.0  0.16798601457771692  0.4029924891177722  0.8779689385582348  1.0000
  H   H226      1.0  0.20798671115225534  0.40469363712426665  0.8284756664887356  1.0000
  H   H227      1.0  0.22256883753757997  0.4429124439264455  0.8195762235520333  1.0000
  H   H228      1.0  0.18404551655328621  0.41994221831348927  0.8277063916485448  1.0000
  N   N4        1.0  0.513409017503904  0.7044530005310596  0.9331677108415312  1.0000
  C   C301      1.0  0.5268502251173309  0.6916971853109957  0.9521530610811252  1.0000
  C   C302      1.0  0.5038194904383662  0.6875668217743354  0.9054620577218825  1.0000
  C   C303      1.0  0.5353248403108692  0.7355975474304738  0.9269911621302753  1.0000
  C   C304      1.0  0.48767656237283663  0.7028645562884241  0.9481340384571822  1.0000
  H   H229      1.0  0.5352435603275062  0.704369332845498  0.9729352362494018  1.0000
  H   H230      1.0  0.545847883147817  0.6920195615923916  0.9411377713497254  1.0000
  H   H231      1.0  0.5108857823499628  0.6683129815599865  0.957641401261661  1.0000
  H   H232      1.0  0.4931660455258145  0.696219171704558  0.8906496921957616  1.0000
  H   H233      1.0  0.5227750130001753  0.6885113508004616  0.8934903647669746  1.0000
  H   H234      1.0  0.48783170776237644  0.6637958686324144  0.9094020291170616  1.0000
  H   H235      1.0  0.5260731986370702  0.7460347764497433  0.9126493372999126  1.0000
  H   H236      1.0  0.5551989934128343  0.7376544810047794  0.9159576700857803  1.0000
  H   H237      1.0  0.5432081593204325  0.748939046551909  0.9474653971012518  1.0000
  H   H238      1.0  0.4770022810914355  0.7123877454625716  0.9344644694494159  1.0000
  H   H239      1.0  0.49418347820723296  0.7152728109259571  0.9692037011997463  1.0000
  H   H240      1.0  0.4707158917079837  0.6796319871376311  0.9530724368412402  1.0000
  N   N5        1.0  0.6755402688146294  0.7571671315370514  0.011409583488011021  1.0000
  C   C305      1.0  0.690728197181578  0.7417009499518944  0.0004081300624934059  1.0000
  C   C306      1.0  0.6779572047119441  0.7790638696551818  0.9896949208502897  1.0000
  C   C307      1.0  0.6893055386697332  0.7723362625426072  0.03918936657739813  1.0000
  C   C308      1.0  0.6441029805720007  0.7355598536021452  0.01646579478452037  1.0000
  H   H241      1.0  0.6800399538819101  0.7286370526507259  0.98028974356946  1.0000
  H   H242      1.0  0.6904895872744212  0.7260016065837429  0.01685336168897722  1.0000
  H   H243      1.0  0.714188260779484  0.757408173773665  0.9950383977753806  1.0000
  H   H244      1.0  0.6675922596896403  0.7683785899115765  0.9685545660689905  1.0000
  H   H245      1.0  0.6664787014529565  0.7909367637614705  0.9972147195700338  1.0000
  H   H246      1.0  0.7013326932588897  0.795795720215833  0.9852062200731193  1.0000
  H   H247      1.0  0.6783574885555977  0.7841883570938993  0.048164863382147205  1.0000
  H   H248      1.0  0.7130770435644906  0.7887905527781659  0.03619239585685108  1.0000
  H   H249      1.0  0.6878141278741731  0.7564138345410272  0.05609574621787439  1.0000
  H   H250      1.0  0.631749799070524  0.7465620513728208  0.023882011736935604  1.0000
  H   H251      1.0  0.6413507610752686  0.7191326242529632  0.033299238556007804  1.0000
  H   H252      1.0  0.6332305553805853  0.723288146712192  0.9960643682119932  1.0000
  N   N6        1.0  0.9520075800453535  0.4793765385734327  0.36211043738880666  1.0000
  C   C309      1.0  0.9766457979536977  0.4743017157549677  0.355212230276793  1.0000
  C   C310      1.0  0.9456442787270288  0.49211371618998895  0.3363146528433202  1.0000
  C   C311      1.0  0.9602725529668917  0.5000118672070791  0.38711705580250955  1.0000
  C   C312      1.0  0.9255016561957057  0.45112081322343967  0.3697079774541483  1.0000
  H   H253      1.0  0.9808897189069801  0.4628945717125275  0.37340686285161784  1.0000
  H   H254      1.0  0.9973645822741019  0.4953686005435982  0.35089499876291075  1.0000
  H   H255      1.0  0.9718029050988806  0.46019079064833335  0.335388280366856  1.0000
  H   H256      1.0  0.9387205120989079  0.4768308717494743  0.3172208003980046  1.0000
  H   H257      1.0  0.9277946871493268  0.4971601091685052  0.340931827086647  1.0000
  H   H258      1.0  0.9654066645970596  0.5131494617534195  0.32960027600834213  1.0000
  H   H259      1.0  0.9649823669488327  0.4909561204927011  0.40700897689671284  1.0000
  H   H260      1.0  0.9423776934772844  0.5047748162623985  0.3925802123436283  1.0000
  H   H261      1.0  0.9802087766997104  0.521610577262674  0.3821587364038278  1.0000
  H   H262      1.0  0.9298545627659729  0.4401484112853353  0.3882410348042549  1.0000
  H   H263      1.0  0.91805670528552  0.4353559303795999  0.35097705338940094  1.0000
  H   H264      1.0  0.9068357162251527  0.4543295637278954  0.37610933465224816  1.0000
  N   N7        1.0  0.6581656844827429  0.8894317134121349  0.5538931310575219  1.0000
  C   C313      1.0  0.6289671833433815  0.8824801787966245  0.5650741707059899  1.0000
  C   C314      1.0  0.679761441910534  0.9207174907221697  0.5600828025942846  1.0000
  C   C315      1.0  0.6562409227775967  0.8841060247588183  0.5220178979420478  1.0000
  C   C316      1.0  0.6675850107745209  0.8704214795133285  0.5684792314936635  1.0000
  H   H265      1.0  0.6295745358882796  0.8859323264560847  0.589089002845746  1.0000
  H   H266      1.0  0.6119648071677355  0.8590275368386397  0.5608731233157497  1.0000
  H   H267      1.0  0.6211797213288369  0.8965794029600759  0.5548982566217594  1.0000
  H   H268      1.0  0.7021464682611291  0.9269002153402307  0.5520640486796952  1.0000
  H   H269      1.0  0.6733112445597276  0.9357581655267787  0.5495614781235622  1.0000
  H   H270      1.0  0.6815978668721293  0.9255465461297243  0.5839819141543262  1.0000
  H   H271      1.0  0.6779356249590877  0.8892617225121688  0.512762779064124  1.0000
  H   H272      1.0  0.6490319814107574  0.8980530551824456  0.510441513124497  1.0000
  H   H273      1.0  0.6401195545239796  0.8606514840487073  0.516686235597623  1.0000
  H   H274      1.0  0.6704163758127555  0.874847745515945  0.5924160407660837  1.0000
  H   H275      1.0  0.6889870395328976  0.8741357855116821  0.559774212450011  1.0000
  H   H276      1.0  0.6510130709216835  0.8465869265716255  0.5655793506958308  1.0000
  N   N8        1.0  0.5564087281422939  0.965050851320914  0.016005812411174603  1.0000
  C   C317      1.0  0.5703178926727495  0.9465849071509723  0.017049322525036992  1.0000
  C   C318      1.0  0.5696041351615287  0.9882214837993969  0.03876242057291561  1.0000
  C   C319      1.0  0.5243836708065112  0.9463443338734004  0.02104287339451849  1.0000
  C   C320      1.0  0.5613839738275569  0.978960263880857  0.9869871878830176  1.0000
  H   H277      1.0  0.5607269267730017  0.9287586306018436  0.0002406991664649638  1.0000
  H   H278      1.0  0.5672413790492161  0.9358881914845786  0.038687420647343665  1.0000
  H   H279      1.0  0.5944385401595716  0.9598631499348779  0.012899203922477342  1.0000
  H   H280      1.0  0.593831945068373  0.0024507373060427273  0.03542502991518659  1.0000
  H   H281      1.0  0.5598302378205473  0.0027601422243055396  0.03848445750870786  1.0000
  H   H282      1.0  0.5663061133590601  0.9785604214205911  0.06099143190485784  1.0000
  H   H283      1.0  0.5197013597989805  0.9355632788974134  0.04280036709166955  1.0000
  H   H284      1.0  0.5140912605723822  0.9284986426900689  0.004248121255567172  1.0000
  H   H285      1.0  0.5129547406868613  0.9593416940296524  0.019861410592542317  1.0000
  H   H286      1.0  0.5501672083930391  0.9920631917011801  0.9848134513106341  1.0000
  H   H287      1.0  0.5528340246784033  0.9620841239151532  0.9693413860464976  1.0000
  H   H288      1.0  0.585256126580295  0.9939096634503243  0.9826556643592186  1.0000
  N   N9        1.0  0.49846833469808993  0.6036195788349472  0.7031310349380316  1.0000
  C   C321      1.0  0.5024678304098945  0.597428151466211  0.7337193042151369  1.0000
  C   C322      1.0  0.4674332755337735  0.5842394749116328  0.6942381887284669  1.0000
  C   C323      1.0  0.5178338286940736  0.598025139764381  0.6839939246680425  1.0000
  C   C324      1.0  0.5062149947230148  0.6347740686302299  0.7003819333481176  1.0000
  H   H289      1.0  0.4881910438348675  0.6013711603082361  0.7488676440165372  1.0000
  H   H290      1.0  0.525763584168817  0.6117585465837645  0.7409464718671671  1.0000
  H   H291      1.0  0.4969528768155226  0.5741027995070609  0.7362764042229538  1.0000
  H   H292      1.0  0.4520159844555421  0.5871624537541456  0.7086808325299314  1.0000
  H   H293      1.0  0.4636591937337322  0.588995194269255  0.6714893043167973  1.0000
  H   H294      1.0  0.46107470614218693  0.5605228413430097  0.6948954141626792  1.0000
  H   H295      1.0  0.5110326593423916  0.5742220372327739  0.6833439175201637  1.0000
  H   H296      1.0  0.5411423601477541  0.6103069154152158  0.6913625827219358  1.0000
  H   H297      1.0  0.5175531054033675  0.6052565065058393  0.6613414785813846  1.0000
  H   H298      1.0  0.503816151943394  0.6401673494120743  0.677365093445056  1.0000
  H   H299      1.0  0.5295011455239788  0.6499869844796676  0.7068572226456601  1.0000
  H   H300      1.0  0.4919398854724553  0.6398132196699367  0.7143653761927738  1.0000
  N   N10       1.0  0.027935484733141697  0.45135429257409176  0.9601442195336776  1.0000
  C   C325      1.0  0.02110863754664857  0.42060133850103615  0.9641089706715518  1.0000
  C   C326      1.0  0.02903732218522697  0.45776511197438713  0.9286000415150105  1.0000
  C   C327      1.0  0.056776580557678834  0.4717211836061943  0.9736243548577211  1.0000
  C   C328      1.0  0.0048484077041655105  0.4553754553340429  0.9742995855923965  1.0000
  H   H301      1.0  0.01902007001893049  0.41467926943276284  0.9876519639155179  1.0000
  H   H302      1.0  0.03873572607393431  0.4170371778115414  0.9548060432325135  1.0000
  H   H303      1.0  6.274910353563682e-05  0.40461663369987116  0.9532684930126509  1.0000
  H   H304      1.0  0.04632037158387063  0.45501072186825803  0.9173460428364819  1.0000
  H   H305      1.0  0.007695967152703877  0.44290264850713007  0.9175957321310737  1.0000
  H   H306      1.0  0.03460012850245729  0.48094974822185493  0.9247749653136549  1.0000
  H   H307      1.0  0.06339741426792554  0.4951828982563706  0.9697418026233668  1.0000
  H   H308      1.0  0.07452805407231002  0.468362253497944  0.9643872682177582  1.0000
  H   H309      1.0  0.05639005855736512  0.468533942775079  0.9976298957083839  1.0000
  H   H310      1.0  0.9827678177305997  0.4403341392319223  0.9646851657320807  1.0000
  H   H311      1.0  0.009421348778710783  0.4784004703050694  0.9718198623088458  1.0000
  H   H312      1.0  0.0034783172606913746  0.4506405185555108  0.9981624083832218  1.0000
  N   N11       1.0  0.6525914185895306  0.5282930225288358  0.23284192812679233  1.0000
  C   C329      1.0  0.6384693733435515  0.5458742351991669  0.22609136293027016  1.0000
  C   C330      1.0  0.6352096499136438  0.5062685644835372  0.2554017090453407  1.0000
  C   C331      1.0  0.6827956003312108  0.5479723209366703  0.2438592457880436  1.0000
  C   C332      1.0  0.6538501788289152  0.513096470058595  0.20603947306458859  1.0000
  H   H313      1.0  0.6152300807429888  0.5316680976668906  0.21886730690198186  1.0000
  H   H314      1.0  0.6503509345371624  0.5619345131931872  0.20831313890623565  1.0000
  H   H315      1.0  0.638572422326803  0.5589569636865585  0.24540654922779132  1.0000
  H   H316      1.0  0.6123023165485556  0.49095170716441044  0.24774415442639233  1.0000
  H   H317      1.0  0.6453576934975379  0.49275798582801283  0.2612392540452635  1.0000
  H   H318      1.0  0.6336858914668846  0.517109104427048  0.275815533442467  1.0000
  H   H319      1.0  0.6826057580253189  0.5590927236210428  0.26458671532092237  1.0000
  H   H320      1.0  0.6961567729699839  0.565700012153162  0.22791921228280954  1.0000
  H   H321      1.0  0.6946040193766164  0.5357498683204857  0.24825531410699872  1.0000
  H   H322      1.0  0.6646451547385046  0.4998434998951273  0.21014075174417568  1.0000
  H   H323      1.0  0.6665643778561328  0.52913298605497  0.18845247890945072  1.0000
  H   H324      1.0  0.6313957367559107  0.4978941964145125  0.19724234164871887  1.0000
  N   N12       1.0  0.20969965507599608  0.46918706645008323  0.7197188895632828  1.0000
  C   C333      1.0  0.22591002658283102  0.4634643208037333  0.7427190196478027  1.0000
  C   C334      1.0  0.2299221480242575  0.4850106270305947  0.6953058782204469  1.0000
  C   C335      1.0  0.197924799449189  0.4873712514078527  0.7319002038038419  1.0000
  C   C336      1.0  0.18508063138839442  0.4408299682997492  0.7090085818869718  1.0000
  H   H325      1.0  0.24474923640466184  0.4843856719256246  0.7511948100516342  1.0000
  H   H326      1.0  0.23499103559253764  0.44969807458413247  0.734181774929016  1.0000
  H   H327      1.0  0.21126470329261648  0.45155783585548637  0.7614714885461485  1.0000
  H   H328      1.0  0.21821179860041506  0.48867832365644454  0.6770134739967908  1.0000
  H   H329      1.0  0.24827845527220974  0.5069386810192218  0.7022793870621863  1.0000
  H   H330      1.0  0.23997824096916495  0.47234968412712475  0.6862658922994491  1.0000
  H   H331      1.0  0.18455574676433817  0.4911803437325067  0.7154710148183083  1.0000
  H   H332      1.0  0.21584271500275284  0.5093510033697835  0.7393022507592865  1.0000
  H   H333      1.0  0.1833220020686775  0.47652870920534957  0.7509592621140805  1.0000
  H   H334      1.0  0.17190190520964424  0.44423286853267785  0.6920691007428247  1.0000
  H   H335      1.0  0.1696918659321217  0.42798138101741423  0.7269357434206303  1.0000
  H   H336      1.0  0.19315154298465786  0.42686481405933474  0.6988062799891437  1.0000
  N   N13       1.0  0.43168289454630715  0.4890713182390399  0.05177649097636935  1.0000
  C   C337      1.0  0.43036909781423377  0.46773772755342563  0.07359494918831788  1.0000
  C   C338      1.0  0.43510182460810315  0.47959337860869566  0.022299262107360104  1.0000
  C   C339      1.0  0.4570347765861039  0.5186309210137796  0.05808401356564588  1.0000
  C   C340      1.0  0.4041363474349057  0.49027342518271533  0.052940376930152355  1.0000
  H   H337      1.0  0.41125116821305757  0.4453038962142884  0.06947079957125751  1.0000
  H   H338      1.0  0.4280601777197915  0.4742324920745009  0.09620007045884649  1.0000
  H   H339      1.0  0.45049903027064225  0.4657148646948633  0.07296324851189809  1.0000
  H   H340      1.0  0.4545604212492553  0.47652392633389107  0.020853667309068014  1.0000
  H   H341      1.0  0.4154897704262729  0.45829685935028686  0.016207826248873847  1.0000
  H   H342      1.0  0.43759169612022364  0.4957747206377574  0.005318208128894941  1.0000
  H   H343      1.0  0.45833229473960885  0.5351192197233114  0.04194060708691541  1.0000
  H   H344      1.0  0.47817534124390393  0.5185424974345008  0.057055675868569904  1.0000
  H   H345      1.0  0.4552718046949939  0.5265121688887276  0.0802096156504961  1.0000
  H   H346      1.0  0.40414630605686314  0.505743502982784  0.03631938039191275  1.0000
  H   H347      1.0  0.40096542320917056  0.49774819921639996  0.07473410220790447  1.0000
  H   H348      1.0  0.3845022127304218  0.4682446985729706  0.04846567199871854  1.0000
  N   N14       1.0  0.6317530364369256  0.06352082255761901  0.3223955509735527  1.0000
  C   C341      1.0  0.6562157785799496  0.05720850677980368  0.3226684527837246  1.0000
  C   C342      1.0  0.6125137702056628  0.04865636897948362  0.2969672415069826  1.0000
  C   C343      1.0  0.6438066261043708  0.0956738092868411  0.3202106607532428  1.0000
  C   C344      1.0  0.6145685934888775  0.05260346270931897  0.3496668801938765  1.0000
  H   H349      1.0  0.6481299950347115  0.03322076923243746  0.3246336134349199  1.0000
  H   H350      1.0  0.6714988470073256  0.06838590925106497  0.34133156924557695  1.0000
  H   H351      1.0  0.6695005662570919  0.06501043323819719  0.3023010850799642  1.0000
  H   H352      1.0  0.5939149240799749  0.05309787434013678  0.29593063818922793  1.0000
  H   H353      1.0  0.6250239904098891  0.056449799751531214  0.27607092274705863  1.0000
  H   H354      1.0  0.6030641088497305  0.024350228090993093  0.2978919527477023  1.0000
  H   H355      1.0  0.626247551319712  0.1015322633986663  0.32231753310351563  1.0000
  H   H356      1.0  0.6550147103070695  0.10429702845356402  0.2988746522095667  1.0000
  H   H357      1.0  0.6602157370743382  0.1077883714189705  0.33783082216661275  1.0000
  H   H358      1.0  0.6055945596560142  0.028523524954691026  0.35243015370965414  1.0000
  H   H359      1.0  0.5958595105924187  0.056909464013984085  0.3502425084427843  1.0000
  H   H360      1.0  0.6284495020456526  0.06386935480253902  0.3691252879933137  1.0000
  N   N15       1.0  0.9057784253008061  0.6330608270675142  0.32672837273269817  1.0000
  C   C345      1.0  0.9175235405289068  0.6172675218383548  0.34364355756381326  1.0000
  C   C346      1.0  0.9217554208917571  0.6430626742095884  0.2986845037957251  1.0000
  C   C347      1.0  0.9097232410545962  0.6588625931142746  0.3437074183789504  1.0000
  C   C348      1.0  0.8740774634424833  0.6130361904764392  0.3209356370695925  1.0000
  H   H361      1.0  0.9050687977256116  0.6081983374832026  0.3642985031659387  1.0000
  H   H362      1.0  0.940961187945599  0.6321808754911246  0.3498742108045896  1.0000
  H   H363      1.0  0.9163940555447742  0.5985405760076916  0.33096429391867077  1.0000
  H   H364      1.0  0.9197471685493567  0.6242384388809343  0.28544751901050763  1.0000
  H   H365      1.0  0.9132409794058889  0.654705740316967  0.2850979922160317  1.0000
  H   H366      1.0  0.9457069259862325  0.6584994971133433  0.3021797281465033  1.0000
  H   H367      1.0  0.9333785709303205  0.6742413205353361  0.34883613439217204  1.0000
  H   H368      1.0  0.8978835761394703  0.6520863317301612  0.3649700791097509  1.0000
  H   H369      1.0  0.9012331216029749  0.671427009735741  0.3316139768751201  1.0000
  H   H370      1.0  0.8644579189798317  0.6242213666031483  0.30819232439284455  1.0000
  H   H371      1.0  0.8613753428727432  0.6052011379699364  0.34168069458866857  1.0000
  H   H372      1.0  0.8703615783740489  0.5932923898166076  0.3082276820821801  1.0000
  N   N16       1.0  0.7741561446821543  0.6597547723265755  0.5179837224123853  1.0000
  C   C349      1.0  0.7569743775570472  0.6716459969017632  0.5038673879940696  1.0000
  C   C350      1.0  0.7989642580274638  0.6645816287454632  0.4989116382474338  1.0000
  C   C351      1.0  0.754906575941666  0.6278205057844541  0.5230161779981013  1.0000
  C   C352      1.0  0.7857681129232301  0.6749231458827343  0.5462760252174739  1.0000
  H   H373      1.0  0.7386321476861683  0.6691811896306733  0.5180904386828967  1.0000
  H   H374      1.0  0.7468350036249675  0.6600171191205305  0.48297161763817315  1.0000
  H   H375      1.0  0.770962179517625  0.6954897702208076  0.4988083716554048  1.0000
  H   H376      1.0  0.8123069320255613  0.6557583635515212  0.5088871215986629  1.0000
  H   H377      1.0  0.7910269360845913  0.6530785316466449  0.4775521288414537  1.0000
  H   H378      1.0  0.8139117004567787  0.6883882576004319  0.4943325161220594  1.0000
  H   H379      1.0  0.7674089335294639  0.6178399822482287  0.532493710308888  1.0000
  H   H380      1.0  0.7450604968249993  0.6158560778614927  0.5021930178387765  1.0000
  H   H381      1.0  0.7365582354233211  0.6233480492933653  0.5381983670572351  1.0000
  H   H382      1.0  0.7675845457061011  0.6717563733315677  0.5611764048939976  1.0000
  H   H383      1.0  0.800441855875199  0.6990822199640342  0.5432811636555501  1.0000
  H   H384      1.0  0.7987039111240477  0.6663840001749518  0.5576253108138559  1.0000
  N   N17       1.0  0.10552318342342068  0.6411154213259689  0.039752243235141684  1.0000
  C   C353      1.0  0.11010502325320697  0.6712833124367713  0.04162665707840422  1.0000
  C   C354      1.0  0.07360547867495645  0.6195551084981995  0.03830147755675675  1.0000
  C   C355      1.0  0.1182913755287905  0.6353140790041775  0.06589670163288193  1.0000
  C   C356      1.0  0.12007983301050534  0.6383524650502245  0.013193161403843856  1.0000
  H   H385      1.0  0.133905686862089  0.6881423838282379  0.04338843698350286  1.0000
  H   H386      1.0  0.09854536204551409  0.6739597584074752  0.0608203270583728  1.0000
  H   H387      1.0  0.10148056581275865  0.6766764035361326  0.021877990836447925  1.0000
  H   H388      1.0  0.06164348739655359  0.6217908162373917  0.05739753234389451  1.0000
  H   H389      1.0  0.06350512564478346  0.6227119052954587  0.018281290767484748  1.0000
  H   H390      1.0  0.0692502237509019  0.5965038557726613  0.037805095936263196  1.0000
  H   H391      1.0  0.11525291519735564  0.6127327512125739  0.06524417249949147  1.0000
  H   H392      1.0  0.10774009657372358  0.6372595545928798  0.08628862536290016  1.0000
  H   H393      1.0  0.14238198599533441  0.6512077539131691  0.0676150990127245  1.0000
  H   H394      1.0  0.14414535637665418  0.6546613556228293  0.013157105559361337  1.0000
  H   H395      1.0  0.11062133295061155  0.6421674939220854  0.9930353743389406  1.0000
  H   H396      1.0  0.11755694429946406  0.6160470645114794  0.01113943264057182  1.0000
  N   N18       1.0  0.6247736022381484  0.7632117420558876  0.714983422414895  1.0000
  C   C357      1.0  0.617453906177713  0.7559043559672478  0.7461667530426921  1.0000
  C   C358      1.0  0.6448822478294355  0.7952799368263563  0.7117886796656346  1.0000
  C   C359      1.0  0.5974767158966673  0.7542343963668686  0.6981978861981312  1.0000
  C   C360      1.0  0.6393171851316868  0.7473166899187274  0.7036326761262883  1.0000
  H   H397      1.0  0.6375392672555097  0.762138157540371  0.7594742895088621  1.0000
  H   H398      1.0  0.6024494243647357  0.7317753054907203  0.749194881810695  1.0000
  H   H399      1.0  0.6064270688091326  0.7674847678453816  0.7555502582252158  1.0000
  H   H400      1.0  0.665748718355795  0.8028010184946824  0.7241172574246955  1.0000
  H   H401      1.0  0.6508495434328402  0.8012503734457129  0.6884250492046484  1.0000
  H   H402      1.0  0.6345934947751967  0.8080882020363267  0.7198465077990057  1.0000
  H   H403      1.0  0.5864089971176085  0.7665759355038233  0.705362227321398  1.0000
  H   H404      1.0  0.5815010784489061  0.7302704548271555  0.7006765406469848  1.0000
  H   H405      1.0  0.6021749645513041  0.7584308119325373  0.6744334057185989  1.0000
  H   H406      1.0  0.6591319970925041  0.752230317929546  0.7167327344049115  1.0000
  H   H407      1.0  0.6467162156792748  0.7535124319618346  0.6807195574235765  1.0000
  H   H408      1.0  0.6240751194309441  0.7230758232280342  0.703789733755451  1.0000
  N   N19       1.0  0.4628434437322318  0.276164369948968  0.23052265609597475  1.0000
  C   C361      1.0  0.47040239403622636  0.3001290345268591  0.2093974023212916  1.0000
  C   C362      1.0  0.48982600904358653  0.2814882796186069  0.24593219289484505  1.0000
  C   C363      1.0  0.44982470354757104  0.24763842737342023  0.21482436005457617  1.0000
  C   C364      1.0  0.44139964481389504  0.2755314667664332  0.25192770054424846  1.0000
  H   H409      1.0  0.45057252677675985  0.2968152226133609  0.19730324728222698  1.0000
  H   H410      1.0  0.48674171481922035  0.30157902294262634  0.19294930723234294  1.0000
  H   H411      1.0  0.47992282371226835  0.321897461344333  0.22063848997870839  1.0000
  H   H412      1.0  0.48493939485089227  0.2638556771140244  0.26213312912652015  1.0000
  H   H413      1.0  0.5064353161951674  0.2821046239367179  0.2303172060304196  1.0000
  H   H414      1.0  0.5002512620172652  0.3029375391816422  0.25789541231146723  1.0000
  H   H415      1.0  0.46541271652478666  0.2474505367098131  0.19839021718940655  1.0000
  H   H416      1.0  0.4293986637970815  0.24289079125663912  0.20293653288163988  1.0000
  H   H417      1.0  0.4439218275336079  0.22897322140051962  0.22999001943324748  1.0000
  H   H418      1.0  0.4346437347648512  0.2573728949982533  0.2679365936249492  1.0000
  H   H419      1.0  0.4211410210362948  0.2725238505804236  0.2408961983825956  1.0000
  H   H420      1.0  0.4507484500187826  0.2966320679007771  0.26443750197488863  1.0000
  N   N20       1.0  0.13951054233657492  0.7557428119392224  0.5528938109236997  1.0000
  C   C365      1.0  0.13732245701031676  0.7668031812498973  0.523911084720604  1.0000
  C   C366      1.0  0.1099990684647944  0.7401420964176204  0.5665472391993494  1.0000
  C   C367      1.0  0.15991159658622014  0.7808057119131332  0.5716505335073758  1.0000
  C   C368      1.0  0.15084281788983203  0.7351846968767224  0.5493752370203794  1.0000
  H   H421      1.0  0.1592107863415812  0.7786696453512331  0.5129960349034821  1.0000
  H   H422      1.0  0.12875924251852786  0.7823363027131143  0.525726988890449  1.0000
  H   H423      1.0  0.12213852762753397  0.7483975354565895  0.50918950448008  1.0000
  H   H424      1.0  0.09381202882880146  0.7216892426199548  0.5525032502100667  1.0000
  H   H425      1.0  0.11049914023862677  0.7304207361427003  0.5879605881055912  1.0000
  H   H426      1.0  0.10113748062718296  0.7551749787157149  0.5705184600178351  1.0000
  H   H427      1.0  0.15231423365047667  0.7969879024708025  0.5747013137479973  1.0000
  H   H428      1.0  0.18256138689041773  0.7927020723798093  0.5623027445619805  1.0000
  H   H429      1.0  0.1620537842879783  0.7732740198828209  0.5937068763201143  1.0000
  H   H430      1.0  0.13629722562881108  0.716194735154623  0.5349922381679273  1.0000
  H   H431      1.0  0.15246907236598367  0.7262280788206569  0.5708108239600551  1.0000
  H   H432      1.0  0.17340553726323518  0.7463673186308263  0.5398249583627035  1.0000
  N   N21       1.0  0.1400856194877287  0.6187446796414725  0.8480904299106736  1.0000
  C   C369      1.0  0.15071979552022557  0.6469187260061943  0.832510350965387  1.0000
  C   C370      1.0  0.1370243387313455  0.5957385786737064  0.8272422428962735  1.0000
  C   C371      1.0  0.11114988550123407  0.6097552727841858  0.8614627964302252  1.0000
  C   C372      1.0  0.16137081927337085  0.622525098225388  0.8712146972955673  1.0000
  H   H433      1.0  0.17246447115610844  0.6544186388368912  0.8220118127084415  1.0000
  H   H434      1.0  0.15316005908646785  0.6647030448344096  0.8476622591979728  1.0000
  H   H435      1.0  0.13500230472336125  0.6449309468495432  0.8150805679103441  1.0000
  H   H436      1.0  0.12904257966724147  0.5741814787337242  0.8383658819845172  1.0000
  H   H437      1.0  0.12104292541636939  0.5922904938585457  0.8095373511626772  1.0000
  H   H438      1.0  0.15844786933964408  0.601780797223928  0.8166973675147308  1.0000
  H   H439      1.0  0.10221540580844057  0.5883691775992557  0.87308410121399  1.0000
  H   H440      1.0  0.0946843134393899  0.6074709863865256  0.8447760804725529  1.0000
  H   H441      1.0  0.11279023694005744  0.6264294814944075  0.8776073747448406  1.0000
  H   H442      1.0  0.15414944677814518  0.6015604548712328  0.8831745892565526  1.0000
  H   H443      1.0  0.16385218639267948  0.6393850737325926  0.8876623248186851  1.0000
  H   H444      1.0  0.18359639786330917  0.629668133189466  0.8620766657309553  1.0000
  N   N22       1.0  0.6023809605797235  0.5508462416498386  0.45783148005509317  1.0000
  C   C373      1.0  0.615358096663743  0.5593183926677779  0.4283254482698904  1.0000
  C   C374      1.0  0.5759482455267602  0.5211174628155761  0.4565830589544384  1.0000
  C   C375      1.0  0.5942358243458692  0.5724879916286091  0.46843473291917537  1.0000
  C   C376      1.0  0.6242054956995587  0.5505605937483584  0.47797050616785686  1.0000
  H   H445      1.0  0.5993570056333762  0.5591784583084509  0.4123189582672696  1.0000
  H   H446      1.0  0.6225604560346526  0.5439399252705824  0.4199054154273846  1.0000
  H   H447      1.0  0.6349571415887433  0.5819496393935125  0.4284127976791602  1.0000
  H   H448      1.0  0.5657689059383343  0.5137626735435353  0.47852651717972217  1.0000
  H   H449      1.0  0.5589228191041293  0.5204793073778742  0.4416404928443345  1.0000
  H   H450      1.0  0.5815008771145781  0.5044442617669518  0.44840826721797805  1.0000
  H   H451      1.0  0.5846082350776125  0.5669935947175374  0.4907753872844779  1.0000
  H   H452      1.0  0.5778800936838601  0.5734650900781457  0.45373574480333595  1.0000
  H   H453      1.0  0.6138753076501879  0.595136386633508  0.4695479324000664  1.0000
  H   H454      1.0  0.615258022024761  0.5442601890295593  0.5004854262219063  1.0000
  H   H455      1.0  0.6443871982286632  0.5726480768613712  0.47935514054894685  1.0000
  H   H456      1.0  0.6311065582929802  0.5347452871057338  0.47048380992955974  1.0000
  N   N23       1.0  0.5442335028819824  0.33590030697882206  0.46079357247426994  1.0000
  C   C377      1.0  0.5626806351502304  0.32547204940540236  0.4748208626814974  1.0000
  C   C378      1.0  0.5633396781559155  0.364809477542295  0.4469589203690547  1.0000
  C   C379      1.0  0.5256269631602658  0.33902885085144463  0.4831785584959278  1.0000
  C   C380      1.0  0.5253238533238388  0.31424923444960173  0.43834189799410234  1.0000
  H   H457      1.0  0.5488155690782772  0.3035982475063977  0.4853825222414504  1.0000
  H   H458      1.0  0.5771039605131395  0.34114955699446703  0.49202504343056025  1.0000
  H   H459      1.0  0.5770167907703624  0.32283707688904756  0.45858824813840776  1.0000
  H   H460      1.0  0.5500955925691332  0.3733262236351897  0.43627126452635023  1.0000
  H   H461      1.0  0.5776496635989155  0.3817683834782577  0.46334633817091847  1.0000
  H   H462      1.0  0.577834987858919  0.36349056957354386  0.4299934447580061  1.0000
  H   H463      1.0  0.51030374344043  0.34540554829880904  0.4732358268463532  1.0000
  H   H464      1.0  0.539160718516281  0.35637612185376344  0.4995668643545608  1.0000
  H   H465      1.0  0.512079557082643  0.3181071795199156  0.4952021532333695  1.0000
  H   H466      1.0  0.5095108873004996  0.3201101580419035  0.42862128488417933  1.0000
  H   H467      1.0  0.5120213277024414  0.29180352816053207  0.44771456780909585  1.0000
  H   H468      1.0  0.5385623478944033  0.3125707570772185  0.42022812354962974  1.0000
  N   N24       1.0  0.4113411061989275  0.2984174676026826  0.06558871141443481  1.0000
  C   C381      1.0  0.39094462952072373  0.2887257512370788  0.09075119655799044  1.0000
  C   C382      1.0  0.41532920101349896  0.273806169513684  0.05553826801624565  1.0000
  C   C383      1.0  0.4401618426478279  0.32348270510306437  0.07450321647447007  1.0000
  C   C384      1.0  0.39898321342409  0.3077803896194396  0.04166627557016128  1.0000
  H   H469      1.0  0.39937788671655233  0.28123914671817946  0.10913976776941058  1.0000
  H   H470      1.0  0.3688108876206007  0.2701274421742717  0.08469757075519056  1.0000
  H   H471      1.0  0.3878271900533751  0.3069553239638133  0.09920376073824393  1.0000
  H   H472      1.0  0.4305246435144733  0.28034017049211435  0.03649648410849134  1.0000
  H   H473      1.0  0.4249308619716886  0.2665208635594085  0.07312742075555238  1.0000
  H   H474      1.0  0.3939993114766594  0.25433426097406314  0.04886520696497985  1.0000
  H   H475      1.0  0.45609944652058304  0.3315838033678559  0.056051696078041634  1.0000
  H   H476      1.0  0.4503085034638689  0.31726365809636975  0.09241397634042499  1.0000
  H   H477      1.0  0.43785564835595786  0.34231554255810764  0.08237497386171921  1.0000
  H   H478      1.0  0.41404559451648737  0.31592135510793923  0.02250384834606267  1.0000
  H   H479      1.0  0.3953245688722332  0.3260378528369042  0.04888303245320015  1.0000
  H   H480      1.0  0.3773745951036496  0.28936034648276  0.034052681404443355  1.0000
  N   N25       1.0  0.0757778634550541  0.4913837800982127  0.5383824326303244  1.0000
  C   C385      1.0  0.06548777994052091  0.46806117641763545  0.5157835730922389  1.0000
  C   C386      1.0  0.10566882751222595  0.5154286169228617  0.5308946567356377  1.0000
  C   C387      1.0  0.07656546113232032  0.4789361324191462  0.5670476338576631  1.0000
  C   C388      1.0  0.0553644824616053  0.503048428767183  0.5398393452642258  1.0000
  H   H481      1.0  0.04302558938645795  0.4495549628820358  0.520856362868776  1.0000
  H   H482      1.0  0.0803721913066755  0.4587150614668514  0.5141501378922443  1.0000
  H   H483      1.0  0.06447428971143254  0.47648037081609906  0.4938077217643012  1.0000
  H   H484      1.0  0.11376691624508095  0.5338527869316374  0.5470288308394137  1.0000
  H   H485      1.0  0.12189487520910558  0.5076156276753174  0.5309958582850999  1.0000
  H   H486      1.0  0.10625637974769431  0.5246680996606885  0.5089247070321988  1.0000
  H   H487      1.0  0.08526661817287451  0.49613472976161677  0.5844951100593266  1.0000
  H   H488      1.0  0.09107496168104134  0.4691403870973227  0.5664843620669177  1.0000
  H   H489      1.0  0.05430331106892372  0.46113507655056835  0.5738640869503171  1.0000
  H   H490      1.0  0.06242883178570402  0.520569248039117  0.556839314360611  1.0000
  H   H491      1.0  0.03257999498691455  0.48531437262696014  0.545297370889552  1.0000
  H   H492      1.0  0.05430489420457296  0.5127022801623301  0.5185768654558282  1.0000
  N   N26       1.0  0.06176949195869708  0.5863928399140472  0.6424526492702587  1.0000
  C   C389      1.0  0.08525629295806095  0.6050771452388949  0.6216262673159337  1.0000
  C   C390      1.0  0.04403490290790833  0.6003696825573176  0.6494388736808958  1.0000
  C   C391      1.0  0.07523025008660794  0.5830913063027872  0.6694984404259448  1.0000
  C   C392      1.0  0.042643126244065736  0.5570844892807254  0.6291625939432532  1.0000
  H   H493      1.0  0.09835564869488335  0.594692483381275  0.6148884008979443  1.0000
  H   H494      1.0  0.10089170740474561  0.6266809314138589  0.6316650762058863  1.0000
  H   H495      1.0  0.07614881755233954  0.6095971202287858  0.6015998231071921  1.0000
  H   H496      1.0  0.057862196569235705  0.622682076986455  0.6592171617072858  1.0000
  H   H497      1.0  0.03373531056222811  0.6034164009978937  0.6294615583681602  1.0000
  H   H498      1.0  0.026141504382463533  0.5870387943572699  0.6652195775528076  1.0000
  H   H499      1.0  0.05825678259510384  0.5687606170200509  0.6856456650391866  1.0000
  H   H500      1.0  0.08961106304232086  0.6047993311549237  0.6802751825184303  1.0000
  H   H501      1.0  0.08942951631957728  0.5733314216004367  0.6649090271953506  1.0000
  H   H502      1.0  0.0244966280950361  0.5424700205426735  0.644209707903758  1.0000
  H   H503      1.0  0.055371510605572806  0.5458765285248494  0.6239328902530668  1.0000
  H   H504      1.0  0.032424975792456415  0.5588937549053263  0.608534255341767  1.0000
  N   N27       1.0  0.5119918730307682  0.07793850093626573  0.5198287373926144  1.0000
  C   C393      1.0  0.5003489365212472  0.07707067481680076  0.49022795267435637  1.0000
  C   C394      1.0  0.49223813079182943  0.05004759145707742  0.5350518333737635  1.0000
  C   C395      1.0  0.5135863100506803  0.10293847265994892  0.5364857876040916  1.0000
  C   C396      1.0  0.5418045484914916  0.08175581723617001  0.5174701364842733  1.0000
  H   H505      1.0  0.5150735677298759  0.0974283110125501  0.4778427998713831  1.0000
  H   H506      1.0  0.47832621620227994  0.07522847593288401  0.4911737850166373  1.0000
  H   H507      1.0  0.4979781092194857  0.05800148729820903  0.47727472773560803  1.0000
  H   H508      1.0  0.4995163931766095  0.050257412735894666  0.5579295496300654  1.0000
  H   H509      1.0  0.4693744568478604  0.04610022402948005  0.5362130950447455  1.0000
  H   H510      1.0  0.49105442721034037  0.03073691234993841  0.5235648658107149  1.0000
  H   H511      1.0  0.5221514839264468  0.10425036897724048  0.5589877386365552  1.0000
  H   H512      1.0  0.4915253871186924  0.10089770847620308  0.538583381292714  1.0000
  H   H513      1.0  0.5282569116225361  0.12435639199059868  0.5255681172455499  1.0000
  H   H514      1.0  0.5512256609214848  0.08237139422775118  0.5393872425549733  1.0000
  H   H515      1.0  0.5572070944654426  0.10277484178826422  0.506244756264243  1.0000
  H   H516      1.0  0.5415378427088741  0.06354485215616142  0.5046298210496837  1.0000
  N   N28       1.0  0.7806001601244934  0.13119755191605842  0.07258734261945438  1.0000
  C   C397      1.0  0.7517847639106066  0.1132519945577235  0.05798145683900839  1.0000
  C   C398      1.0  0.7840838334045257  0.15992276630906188  0.08149104053318365  1.0000
  C   C399      1.0  0.8044501644141493  0.1360226850822568  0.05218044949423363  1.0000
  C   C400      1.0  0.7820725165521759  0.11555051622476586  0.09873875965537368  1.0000
  H   H517      1.0  0.747886410171243  0.0909726541852609  0.05186550559402549  1.0000
  H   H518      1.0  0.7499853654341062  0.12397068462395966  0.03780644852509081  1.0000
  H   H519      1.0  0.7333528878972393  0.10965787345763678  0.07259616067562653  1.0000
  H   H520      1.0  0.8057317816508102  0.1742294841168215  0.09229802398152431  1.0000
  H   H521      1.0  0.7825858602655956  0.17226095677249975  0.06249452622488803  1.0000
  H   H522      1.0  0.7666701753150913  0.15706616437091991  0.09725903591642746  1.0000
  H   H523      1.0  0.8040146431205926  0.14783050900583805  0.03221098829454488  1.0000
  H   H524      1.0  0.8023753816662836  0.11471210876144622  0.04507536183427786  1.0000
  H   H525      1.0  0.8265246346720124  0.14947310673939973  0.06251384253366908  1.0000
  H   H526      1.0  0.7784179722133183  0.09327001261128132  0.09307313455511208  1.0000
  H   H527      1.0  0.7647379648242429  0.11206213552764921  0.11484211709552289  1.0000
  H   H528      1.0  0.803699417442565  0.128099283112997  0.11006192348333997  1.0000
  N   N29       1.0  0.9512470315887955  0.2844986396126366  0.4857288579436117  1.0000
  C   C401      1.0  0.9188628329268638  0.2701367972221725  0.48874992857291194  1.0000
  C   C402      1.0  0.9607929584949019  0.26306187719313473  0.4925518847707971  1.0000
  C   C403      1.0  0.965684213775345  0.30987423310667284  0.5060684127027723  1.0000
  C   C404      1.0  0.9597050204262125  0.2949287305013594  0.45542012110279606  1.0000
  H   H529      1.0  0.9108124940788583  0.2855839690423704  0.48350037406121155  1.0000
  H   H530      1.0  0.9115324388544086  0.2619666888817223  0.5113210087760622  1.0000
  H   H531      1.0  0.9072846092300528  0.25109733069069967  0.47342034177709674  1.0000
  H   H532      1.0  0.9851173071752788  0.2732149895864403  0.49039906407135914  1.0000
  H   H533      1.0  0.9547575135239436  0.25472380295808067  0.5152912785872161  1.0000
  H   H534      1.0  0.9503126953383458  0.24368881479291854  0.4775160767097512  1.0000
  H   H535      1.0  0.9901382970592109  0.32155832992745076  0.503976220816248  1.0000
  H   H536      1.0  0.9600399237905947  0.3029858791158487  0.5292317673627662  1.0000
  H   H537      1.0  0.9589491583341087  0.32646363033193504  0.5015491281354587  1.0000
  H   H538      1.0  0.9840067753794689  0.3062954286398135  0.4522567388719946  1.0000
  H   H539      1.0  0.952639257249231  0.31093920585730944  0.4496443578941551  1.0000
  H   H540      1.0  0.9490549759100747  0.27648961904520997  0.4393210183075589  1.0000
  N   N30       1.0  0.8655722905972801  0.4946641030222584  0.12395506573428788  1.0000
  C   C405      1.0  0.8651514326824964  0.4665487107036443  0.11917267037978131  1.0000
  C   C406      1.0  0.865052049150349  0.5000310360902733  0.15564564276699752  1.0000
  C   C407      1.0  0.8394697560624633  0.4931748180489439  0.10997965642090386  1.0000
  C   C408      1.0  0.8926185387565942  0.5190375666554242  0.11100821008200738  1.0000
  H   H541      1.0  0.8645019725230463  0.4613163948792123  0.09550245622754985  1.0000
  H   H542      1.0  0.8457984257313105  0.4477716402964875  0.12982274529862567  1.0000
  H   H543      1.0  0.8852114285798985  0.4674297617576395  0.1282898196419138  1.0000
  H   H544      1.0  0.8843110235723052  0.5011682358156728  0.1669805223322805  1.0000
  H   H545      1.0  0.8656855229870675  0.5212835095579089  0.15995112647091533  1.0000
  H   H546      1.0  0.8448478015172032  0.4822320942180524  0.16615912880198122  1.0000
  H   H547      1.0  0.8393324028526382  0.4896642738054248  0.08597178404927547  1.0000
  H   H548      1.0  0.8390410075547164  0.5140142678358983  0.11350586271489936  1.0000
  H   H549      1.0  0.8186494819032185  0.4749090718032121  0.11910412212039101  1.0000
  H   H550      1.0  0.912806816481891  0.5215232646213647  0.12166467496189425  1.0000
  H   H551      1.0  0.8931953356057751  0.5404041313708898  0.11355292780018333  1.0000
  H   H552      1.0  0.8942805530057288  0.5154425397487687  0.08728142344935573  1.0000
  N   N31       1.0  0.8999090508381694  0.2808545831042514  0.23574502189464572  1.0000
  C   C409      1.0  0.8737793375997348  0.27224657386407713  0.21712370930006306  1.0000
  C   C410      1.0  0.9058877310605966  0.30672871592956136  0.253844589589922  1.0000
  C   C411      1.0  0.9257208602071636  0.28830197818191206  0.2170602439408309  1.0000
  C   C412      1.0  0.8942702445982069  0.25603919587975704  0.25501874736551133  1.0000
  H   H553      1.0  0.8538004561530935  0.26633234587551025  0.23039034667812658  1.0000
  H   H554      1.0  0.8689060532613687  0.2530134280019161  0.2029223646149336  1.0000
  H   H555      1.0  0.8772027985470988  0.29038522698960634  0.20222767193495453  1.0000
  H   H556      1.0  0.9109131967935457  0.3261401401277249  0.2401315394378113  1.0000
  H   H557      1.0  0.886764995561389  0.30215921250296385  0.267928137914667  1.0000
  H   H558      1.0  0.9252423241548295  0.3135258941738594  0.26842199840941017  1.0000
  H   H559      1.0  0.9459930385307159  0.2953607903256838  0.2303092825182652  1.0000
  H   H560      1.0  0.9305140871557778  0.30678480642826955  0.20209046336614417  1.0000
  H   H561      1.0  0.9219985457068005  0.2693403671881904  0.2030052420342329  1.0000
  H   H562      1.0  0.9135973211767985  0.2617701051139943  0.26931663756221974  1.0000
  H   H563      1.0  0.8895892742558348  0.23609534461648854  0.24210311725477612  1.0000
  H   H564      1.0  0.8749969971218926  0.24991357016831794  0.2695248971415968  1.0000
  N   N32       1.0  0.6908289264533775  0.9316559499741861  0.8477525589090553  1.0000
  C   C413      1.0  0.6894774810551536  0.9579507839389553  0.8386143973293549  1.0000
  C   C414      1.0  0.7066405251660406  0.9377439931867093  0.8759268831702594  1.0000
  C   C415      1.0  0.7065022855438491  0.9244471402559634  0.8252640668359971  1.0000
  C   C416      1.0  0.6606365230648814  0.9064037795097512  0.8511938380406024  1.0000
  H   H565      1.0  0.6786970443616462  0.9545484079305043  0.8168775062944662  1.0000
  H   H566      1.0  0.711795663134436  0.9777517214105845  0.8369252375917084  1.0000
  H   H567      1.0  0.6766208689534671  0.9632992407494103  0.854408544237972  1.0000
  H   H568      1.0  0.6952768072647897  0.9432277629888498  0.8932938690668227  1.0000
  H   H569      1.0  0.707563573164646  0.9181586499081335  0.8837864798839126  1.0000
  H   H570      1.0  0.7295756205335462  0.9565517243498896  0.8742846433601527  1.0000
  H   H571      1.0  0.7293854076886448  0.9430098565602867  0.8220875631824778  1.0000
  H   H572      1.0  0.695045308431936  0.919811334902372  0.803723068766619  1.0000
  H   H573      1.0  0.707758455677292  0.9045996924997791  0.8314139418959252  1.0000
  H   H574      1.0  0.6476762974283903  0.9116017163607347  0.8669613327428292  1.0000
  H   H575      1.0  0.6607610276986745  0.8866115325001862  0.8596827629373294  1.0000
  H   H576      1.0  0.6485079432565642  0.9001270108836817  0.8301073571651348  1.0000
  N   N33       1.0  0.06502736603291413  0.41751665507098884  0.15474358760044687  1.0000
  C   C417      1.0  0.04764174752905859  0.4039190551216346  0.18143543662600672  1.0000
  C   C418      1.0  0.09643553601344179  0.4277396314794268  0.16039770027348615  1.0000
  C   C419      1.0  0.06173064639603667  0.44289767668340646  0.14634732964593392  1.0000
  C   C420      1.0  0.05427335442268389  0.3955127606029267  0.13078218902759953  1.0000
  H   H577      1.0  0.054930825326024335  0.41978699333907527  0.20006062034556843  1.0000
  H   H578      1.0  0.04921248541766838  0.38447161433562294  0.188449700683442  1.0000
  H   H579      1.0  0.023874390751164484  0.3961168054697225  0.17784697335072677  1.0000
  H   H580      1.0  0.11008336811171658  0.438144924047112  0.1406153368949551  1.0000
  H   H581      1.0  0.10527318361071662  0.44432179456705523  0.178415295211477  1.0000
  H   H582      1.0  0.0997057946988972  0.4091187508437365  0.16676057889609094  1.0000
  H   H583      1.0  0.0731001557297839  0.45273518792582057  0.12534597376758339  1.0000
  H   H584      1.0  0.07065974816070938  0.4604710578905275  0.16339487983411902  1.0000
  H   H585      1.0  0.03816470290808512  0.43619634118389167  0.1432021298390401  1.0000
  H   H586      1.0  0.05689524089391081  0.376282421535742  0.13608073388263392  1.0000
  H   H587      1.0  0.0661717509485326  0.4052086182038686  0.10995348381135844  1.0000
  H   H588      1.0  0.030500208357838503  0.3868746107178396  0.12634946234179875  1.0000
  N   N34       1.0  0.6279369743012299  0.03222170148899869  0.6037328470954271  1.0000
  C   C421      1.0  0.6200023974924436  0.03150232299189978  0.6348456738517673  1.0000
  C   C422      1.0  0.659073086088174  0.03985323916946252  0.6014751865728067  1.0000
  C   C423      1.0  0.6238376446187228  0.05453126038240346  0.5881899846838073  1.0000
  C   C424      1.0  0.60883584760728  0.0029534919087372824  0.5903365890493711  1.0000
  H   H589      1.0  0.5965510474992798  0.025577134384980774  0.6373944800706144  1.0000
  H   H590      1.0  0.6340276247990045  0.0531306453377214  0.6457994166447577  1.0000
  H   H591      1.0  0.6226211996654654  0.014641152868424438  0.6470414599770872  1.0000
  H   H592      1.0  0.6741764014514233  0.06155265704533549  0.611803064700582  1.0000
  H   H593      1.0  0.6628663895027525  0.023098950027224684  0.6124056207981645  1.0000
  H   H594      1.0  0.6658955615492086  0.04108584370501996  0.5782447710085121  1.0000
  H   H595      1.0  0.6297586060510018  0.05557081696881013  0.5646307855698566  1.0000
  H   H596      1.0  0.6379523232380208  0.07691600721791962  0.5976987226425587  1.0000
  H   H597      1.0  0.6005173812294721  0.04931217177931626  0.5893569347252726  1.0000
  H   H598      1.0  0.6120716513153304  0.9857261954713242  0.600928297837589  1.0000
  H   H599      1.0  0.6134971925574885  0.002914323248186746  0.5666382512513725  1.0000
  H   H600      1.0  0.5850708448487929  0.9959157901347763  0.5926065638539689  1.0000
  N   N35       1.0  0.2806335554074464  0.3968469891917028  0.5745655388555768  1.0000
  C   C425      1.0  0.2553457503260532  0.4006159334328522  0.566935785174986  1.0000
  C   C426      1.0  0.27386539877194777  0.37920270811901996  0.6015288712714881  1.0000
  C   C427      1.0  0.30699066598645  0.42609361240129495  0.5793573263451347  1.0000
  C   C428      1.0  0.28649258456712984  0.38154047202568564  0.5505282001761447  1.0000
  H   H601      1.0  0.25963526449408747  0.4137448881837794  0.5466349088694605  1.0000
  H   H602      1.0  0.2507115946053382  0.4124581685539474  0.5846051311859243  1.0000
  H   H603      1.0  0.23490247547981893  0.37899871780201805  0.5635090155771053  1.0000
  H   H604      1.0  0.2543227012252411  0.3568270467687197  0.5985978590576151  1.0000
  H   H605      1.0  0.29269921256470577  0.3762972314289632  0.6081641119451341  1.0000
  H   H606      1.0  0.26906610471111225  0.3899332249159209  0.6201041165652703  1.0000
  H   H607      1.0  0.31267875332294526  0.4401873270262409  0.5596033366790234  1.0000
  H   H608      1.0  0.3264760897039691  0.4240290279212192  0.5849871619540342  1.0000
  H   H609      1.0  0.30354762940748353  0.43821861658818306  0.5975179796944314  1.0000
  H   H610      1.0  0.3054189186403644  0.3782988791840568  0.55590970221968  1.0000
  H   H611      1.0  0.2920856821399541  0.39437060726432405  0.5298952374402401  1.0000
  H   H612      1.0  0.26707598108907876  0.3593793269589897  0.5461757696760126  1.0000
  N   N36       1.0  0.3883380206992556  0.07494049302665445  0.38558551203523694  1.0000
  C   C429      1.0  0.3753521018287942  0.07671122465425623  0.41370647223463286  1.0000
  C   C430      1.0  0.4124826413522856  0.06884741252003673  0.3912757632503756  1.0000
  C   C431      1.0  0.40004571260162025  0.10317001252840505  0.3697780520728309  1.0000
  C   C432      1.0  0.3654490735207429  0.05088960776048045  0.36756009303335935  1.0000
  H   H613      1.0  0.3570560517236226  0.08133766700567813  0.41043923927953796  1.0000
  H   H614      1.0  0.3920154230083707  0.0944307185362915  0.42800714259406125  1.0000
  H   H615      1.0  0.36660573259804563  0.055845442224366916  0.42629786966554595  1.0000
  H   H616      1.0  0.43032002715120504  0.08685238808758841  0.40436871651508466  1.0000
  H   H617      1.0  0.40466327794041207  0.04818127690264699  0.40399410569343486  1.0000
  H   H618      1.0  0.42241374021108535  0.06666857676089241  0.370600754908033  1.0000
  H   H619      1.0  0.4093151209868214  0.10230230231004035  0.34813012249201414  1.0000
  H   H620      1.0  0.4181321234582622  0.12177654481210519  0.3821442965108832  1.0000
  H   H621      1.0  0.38265968648517423  0.10898370235237428  0.36586561576597965  1.0000
  H   H622      1.0  0.37451796366664386  0.04893973836116799  0.3461609924821456  1.0000
  H   H623      1.0  0.34685366472555634  0.05476581115422355  0.36286829245348917  1.0000
  H   H624      1.0  0.3562103983638188  0.029245621669384606  0.37877564475677206  1.0000
  N   N37       1.0  0.1429320264972345  0.7895367087389819  0.8535751275643542  1.0000
  C   C433      1.0  0.1354059400163163  0.7967093163480771  0.8824611798704486  1.0000
  C   C434      1.0  0.11738601202135783  0.7624088366592662  0.8418359926437866  1.0000
  C   C435      1.0  0.16834370710827493  0.7849038714702707  0.8567251320939865  1.0000
  C   C436      1.0  0.15069921513144835  0.814199494011286  0.8332733382366702  1.0000
  H   H625      1.0  0.11647014539848366  0.8005993880281471  0.8810720068052285  1.0000
  H   H626      1.0  0.15441015274185133  0.8167462720567215  0.8922215152596029  1.0000
  H   H627      1.0  0.1294588249751455  0.7785836413554496  0.8983219512844904  1.0000
  H   H628      1.0  0.12194289588339516  0.7569718330967028  0.819571672932058  1.0000
  H   H629      1.0  0.11161696729510281  0.7429998573675556  0.8559440454489059  1.0000
  H   H630      1.0  0.09747701959576556  0.7646950364241656  0.8401823390603227  1.0000
  H   H631      1.0  0.17531973890199493  0.7804312196371977  0.8352787278885547  1.0000
  H   H632      1.0  0.16294650890158663  0.7659045437746694  0.8712868450133898  1.0000
  H   H633      1.0  0.187637714880537  0.8044980474941935  0.8666932782744223  1.0000
  H   H634      1.0  0.1699222484200243  0.8350079645143701  0.8414661786981212  1.0000
  H   H635      1.0  0.13200964970202317  0.8183165959655946  0.8303653666542596  1.0000
  H   H636      1.0  0.15653170567020533  0.8095070128090279  0.8112364983304795  1.0000
  N   N38       1.0  0.30274333320086694  0.8555162782861875  0.8531366692745443  1.0000
  C   C437      1.0  0.3105593355627452  0.8393467801140732  0.8743140624085729  1.0000
  C   C438      1.0  0.2937670361515919  0.8742933862685323  0.8691177346540508  1.0000
  C   C439      1.0  0.27805715313515156  0.8342679558497773  0.8346011162083609  1.0000
  C   C440      1.0  0.32848503653802136  0.8741583702402455  0.8345204266641364  1.0000
  H   H637      1.0  0.3288674226384478  0.8547305766403479  0.888945151316906  1.0000
  H   H638      1.0  0.3177236038244315  0.8251067898800345  0.8631950493515542  1.0000
  H   H639      1.0  0.29163008041256655  0.8250951054616656  0.8887359220542466  1.0000
  H   H640      1.0  0.28913099908258943  0.8880187967328431  0.8539593110745878  1.0000
  H   H641      1.0  0.2737098077089282  0.8609430431209718  0.8824551035107483  1.0000
  H   H642      1.0  0.31143701257469714  0.8897757524016539  0.8842528673415109  1.0000
  H   H643      1.0  0.2841312444262933  0.8198521854554919  0.8220733253528146  1.0000
  H   H644      1.0  0.27155562402291006  0.8458701597089628  0.8185356999205805  1.0000
  H   H645      1.0  0.25833939922679255  0.8197683815528137  0.8480346960712924  1.0000
  H   H646      1.0  0.3473389166569454  0.8908845463240126  0.8477142962380302  1.0000
  H   H647      1.0  0.32329423040292554  0.8866365079417089  0.8182562934077577  1.0000
  H   H648      1.0  0.3362082590765984  0.8609015727872498  0.8223709190086187  1.0000
  N   N39       1.0  0.49720003981860783  0.537870978478832  0.8718824713860878  1.0000
  C   C441      1.0  0.4811043719163306  0.5053291834437609  0.8699019576129482  1.0000
  C   C442      1.0  0.505711897315287  0.5470877920342884  0.9025940313371761  1.0000
  C   C443      1.0  0.4780455425412277  0.5491145405835068  0.8615025249929401  1.0000
  C   C444      1.0  0.5239246607190852  0.5500519024510033  0.8535122785798923  1.0000
  H   H649      1.0  0.4949856887586112  0.4959655837171676  0.8768988152481418  1.0000
  H   H650      1.0  0.47325105432846803  0.49751159116315197  0.8472261612618663  1.0000
  H   H651      1.0  0.46113667165356476  0.49548687365472954  0.8839652622408066  1.0000
  H   H652      1.0  0.5192414072744777  0.5380726753248092  0.9115662958130915  1.0000
  H   H653      1.0  0.5188420962609251  0.5715273557968987  0.9046402456738819  1.0000
  H   H654      1.0  0.4859607424558879  0.5394012806390582  0.9168411780513273  1.0000
  H   H655      1.0  0.48990430726346246  0.5736421716973716  0.8614949622057012  1.0000
  H   H656      1.0  0.4582287087193999  0.5413392104614824  0.8756468292105286  1.0000
  H   H657      1.0  0.46979783624622184  0.541265816885448  0.8389546120473985  1.0000
  H   H658      1.0  0.5365069012872391  0.5746222037766124  0.854527346774949  1.0000
  H   H659      1.0  0.5182026999000803  0.5435096587696973  0.8302003772876203  1.0000
  H   H660      1.0  0.5389892772049002  0.5421457326058817  0.86076791898936  1.0000
  N   N40       1.0  0.33656780681503995  0.8233960929784119  0.6306000267044948  1.0000
  C   C445      1.0  0.35138063543288534  0.8110188475980152  0.6128523863034562  1.0000
  C   C446      1.0  0.3396781085806073  0.8498691825982516  0.6160295047396593  1.0000
  C   C447      1.0  0.35035132248221373  0.8316078856533102  0.6598526335128647  1.0000
  C   C448      1.0  0.3049503471232776  0.8012663563628439  0.633669543166643  1.0000
  H   H661      1.0  0.34939803764465427  0.7908926337654549  0.6230456386098131  1.0000
  H   H662      1.0  0.37534814004136535  0.8272972566460858  0.6103651476119075  1.0000
  H   H663      1.0  0.3417244247253014  0.8049574589917019  0.590509818801355  1.0000
  H   H664      1.0  0.3305114155563357  0.8609615353494615  0.629699715660945  1.0000
  H   H665      1.0  0.3631463952795622  0.8663724038014248  0.6118782574452949  1.0000
  H   H666      1.0  0.32816281925376756  0.8443426728294511  0.5945613939485099  1.0000
  H   H667      1.0  0.3394507972612287  0.8407947836237435  0.6738543510848669  1.0000
  H   H668      1.0  0.3741158638422424  0.8487159978499628  0.6583273468025042  1.0000
  H   H669      1.0  0.3488338179593069  0.8122729215401581  0.6713551928341575  1.0000
  H   H670      1.0  0.2937260688891576  0.7945269335384224  0.612037801491411  1.0000
  H   H671      1.0  0.29318678391732605  0.8101364503384189  0.6467814262822529  1.0000
  H   H672      1.0  0.3016486878937484  0.7809932140207727  0.6447196357305638  1.0000
  N   N41       1.0  0.8201830692024914  0.5163287816525817  0.47134011279449184  1.0000
  C   C449      1.0  0.8402972022298114  0.5316138864527391  0.4467169620364288  1.0000
  C   C450      1.0  0.7929754616534974  0.5178649730829658  0.4678332592977165  1.0000
  C   C451      1.0  0.834780541096717  0.5306741176326359  0.499151290899992  1.0000
  C   C452      1.0  0.812805330462571  0.48517001597152865  0.4716438032450434  1.0000
  H   H673      1.0  0.8611144617897663  0.531069245682094  0.44893291961669585  1.0000
  H   H674      1.0  0.8463517474507941  0.5551698782071938  0.44564551733505825  1.0000
  H   H675      1.0  0.8302204402784525  0.5212472689559504  0.42537150421780595  1.0000
  H   H676      1.0  0.7978358574171862  0.5411089462267087  0.4675750626428114  1.0000
  H   H677      1.0  0.7814964156510544  0.5074667310151852  0.44696312686221545  1.0000
  H   H678      1.0  0.7772414331341945  0.506606932546183  0.48602963497288765  1.0000
  H   H679      1.0  0.8201090510423472  0.5200532566747342  0.5182089271130774  1.0000
  H   H680      1.0  0.8414550138741701  0.5543841024890559  0.4994042167548728  1.0000
  H   H681      1.0  0.8551699983797918  0.529544837987186  0.5027032013996386  1.0000
  H   H682      1.0  0.79796687254148  0.4729783521077691  0.4901624842987707  1.0000
  H   H683      1.0  0.8330153507324353  0.48339716151843265  0.47401041896332563  1.0000
  H   H684      1.0  0.801739842972311  0.4735885885370445  0.4510248135707886  1.0000
  N   N42       1.0  0.4591530759968121  0.44906206305027707  0.5977498841369958  1.0000
  C   C453      1.0  0.4889921632854681  0.47233481929699916  0.5890814356870991  1.0000
  C   C454      1.0  0.45872606713461744  0.4433405748150262  0.629401185941866  1.0000
  C   C455      1.0  0.4508540112526286  0.4216697363084845  0.5812358506614523  1.0000
  C   C456      1.0  0.4378895721256171  0.45890926679297  0.591292921161009  1.0000
  H   H685      1.0  0.48995956539983443  0.477185286455309  0.5653155049527568  1.0000
  H   H686      1.0  0.5057162765941051  0.46576289462380827  0.5936804748004509  1.0000
  H   H687      1.0  0.4956981315018629  0.49328373568510486  0.6011910391224959  1.0000
  H   H688      1.0  0.4364280472721564  0.42594801391847703  0.6366500929589903  1.0000
  H   H689      1.0  0.47453531166719165  0.43589148514427056  0.6351355190436087  1.0000
  H   H690      1.0  0.4646450674194658  0.4634809096377501  0.6425727646761862  1.0000
  H   H691      1.0  0.42874389752987124  0.4035377745392438  0.5880009033239101  1.0000
  H   H692      1.0  0.466840653261166  0.41394806973073917  0.5848627000854534  1.0000
  H   H693      1.0  0.44981578532834515  0.4247809838643852  0.5572768559168995  1.0000
  H   H694      1.0  0.41541594211201255  0.4425455994119321  0.5989375462617614  1.0000
  H   H695      1.0  0.43665503508035786  0.462228180766914  0.5674573238706396  1.0000
  H   H696      1.0  0.44409561797734065  0.4801771850926805  0.6022936069924804  1.0000
  N   N43       1.0  0.9297079363192555  0.6693648670040183  0.07175792455142767  1.0000
  C   C457      1.0  0.9444652192647183  0.6865284368460326  0.09837776037357379  1.0000
  C   C458      1.0  0.9490190535911491  0.660252186773292  0.057107958046083936  1.0000
  C   C459      1.0  0.923777927117346  0.6878169229800264  0.051761590933714095  1.0000
  C   C460      1.0  0.9016149860047333  0.6429096262072812  0.07985048661774745  1.0000
  H   H697      1.0  0.9303794342764418  0.693341434755149  0.11042065490183517  1.0000
  H   H698      1.0  0.9657845479210055  0.7066959653001805  0.09315831326281888  1.0000
  H   H699      1.0  0.9498235806563261  0.6734872492858539  0.11362952531040575  1.0000
  H   H700      1.0  0.93901120537324  0.647771593015991  0.036581071518433685  1.0000
  H   H701      1.0  0.9708406761804631  0.6796304483925378  0.051551097282981184  1.0000
  H   H702      1.0  0.953492577966419  0.6459067992033443  0.07150658481965216  1.0000
  H   H703      1.0  0.912478877903383  0.6755168270836037  0.031496287367667755  1.0000
  H   H704      1.0  0.9445882302415243  0.7079018345541798  0.04517472612280342  1.0000
  H   H705      1.0  0.9093996487630701  0.6952080239925579  0.06228572842873708  1.0000
  H   H706      1.0  0.8902303706995253  0.6288967599984222  0.06047621256639712  1.0000
  H   H707      1.0  0.8861430758639126  0.648982580497014  0.0901715819947268  1.0000
  H   H708      1.0  0.9051770432709682  0.628958243990113  0.09574350584598887  1.0000
  N   N44       1.0  0.5443507868493617  0.13813405209092097  0.24486416428789426  1.0000
  C   C461      1.0  0.5335885289222766  0.12266473666431178  0.27300050240466844  1.0000
  C   C462      1.0  0.5368616960741501  0.11618527367423677  0.2212082832933939  1.0000
  C   C463      1.0  0.5766277102292806  0.15785672967736733  0.24607527338256358  1.0000
  C   C464      1.0  0.5301619476301809  0.15581607753011306  0.23905818293603245  1.0000
  H   H709      1.0  0.5378037162443529  0.13838973475727037  0.29130089069894405  1.0000
  H   H710      1.0  0.5442631549204612  0.10957243800623077  0.2784335259182267  1.0000
  H   H711      1.0  0.5093597900118682  0.10712846984149677  0.2722042520257425  1.0000
  H   H712      1.0  0.5434414484748115  0.12696981226742945  0.1994735158924597  1.0000
  H   H713      1.0  0.5480571138713966  0.10314264844578726  0.2241410213981959  1.0000
  H   H714      1.0  0.5126745036020303  0.10035406073140712  0.22033830525714823  1.0000
  H   H715      1.0  0.5850950453376919  0.16982967693317014  0.2250459086071912  1.0000
  H   H716      1.0  0.5882102887960051  0.14532912474961962  0.2501084694547005  1.0000
  H   H717      1.0  0.5829851917461042  0.17470278599346656  0.2636835867135773  1.0000
  H   H718      1.0  0.5390721128554722  0.16930826303700766  0.21901693992802035  1.0000
  H   H719      1.0  0.5332817320478532  0.1710659340770354  0.2574619539099696  1.0000
  H   H720      1.0  0.5061366033853714  0.14146407499043998  0.23556160023099046  1.0000
  N   N45       1.0  0.6297378917317191  0.5620838496046118  0.056233473974829  1.0000
  C   C465      1.0  0.660362435817915  0.5698465369676158  0.04954229555265522  1.0000
  C   C466      1.0  0.6192664794700273  0.5750838747965554  0.03402000531971933  1.0000
  C   C467      1.0  0.6287578365318482  0.5737965910342122  0.08537472937178675  1.0000
  C   C468      1.0  0.6106759952870471  0.5296501686466374  0.05616453818320761  1.0000
  H   H721      1.0  0.6688532031970811  0.5601618457504077  0.06580193208210744  1.0000
  H   H722      1.0  0.6754559388110759  0.5941326366000174  0.049974112895967565  1.0000
  H   H723      1.0  0.6621038626887519  0.5616818809202141  0.027575012628149098  1.0000
  H   H724      1.0  0.633009450114717  0.5995735054759811  0.03395080286740662  1.0000
  H   H725      1.0  0.6202510152191437  0.5672472559025707  0.011624907687709962  1.0000
  H   H726      1.0  0.5961559432399184  0.569476845497413  0.03828417827123386  1.0000
  H   H727      1.0  0.6431689363601104  0.5981908277756994  0.08644043138350531  1.0000
  H   H728      1.0  0.6364304968093094  0.5643213241865147  0.10254567612313743  1.0000
  H   H729      1.0  0.6060656107436853  0.5684903645662385  0.09132362071732894  1.0000
  H   H730      1.0  0.6184508939981098  0.5192899125426444  0.07242930298968234  1.0000
  H   H731      1.0  0.6105633270419866  0.5200143531824607  0.034419989664464315  1.0000
  H   H732      1.0  0.5875341880416359  0.5228917606576057  0.061955409633476226  1.0000
  N   N46       1.0  0.7144064016709439  0.21642340031971138  0.4322111811324332  1.0000
  C   C469      1.0  0.7446681228649881  0.2249272873035591  0.4229591401685974  1.0000
  C   C470      1.0  0.7130996112141009  0.24318942673266686  0.4396572837694587  1.0000
  C   C471      1.0  0.7063444775535886  0.1972489747110818  0.4581361126544047  1.0000
  C   C472      1.0  0.6934857099910358  0.20029828343501935  0.4082189461116332  1.0000
  H   H733      1.0  0.7609781797353032  0.2369324816417219  0.4406734031425547  1.0000
  H   H734      1.0  0.7516159476058242  0.23933822298644927  0.40338166255301505  1.0000
  H   H735      1.0  0.7466163505760954  0.20527334423400223  0.4175026459811047  1.0000
  H   H736      1.0  0.69055007565848  0.23755121272926316  0.44673296260896295  1.0000
  H   H737      1.0  0.728576455308276  0.2557328887651006  0.45780377543541284  1.0000
  H   H738      1.0  0.7191783854754709  0.2582451090193419  0.420609333318393  1.0000
  H   H739      1.0  0.7068663315746959  0.17677601428180828  0.4531050404549716  1.0000
  H   H740      1.0  0.6837900221267169  0.19060675755101913  0.4660137546838536  1.0000
  H   H741      1.0  0.7220899226972574  0.2083342929075701  0.47650570271571907  1.0000
  H   H742      1.0  0.6938602026093008  0.17991595589983006  0.40213449346322205  1.0000
  H   H743      1.0  0.6988177270649965  0.2139889164717342  0.38821470536603214  1.0000
  H   H744      1.0  0.6703837347555103  0.19328352156306897  0.4145676178914631  1.0000
  N   N47       1.0  0.4826276433560605  0.9479509691812303  0.7219784956659441  1.0000
  C   C473      1.0  0.4549010846105286  0.9239406791912973  0.7094529687629004  1.0000
  C   C474      1.0  0.4907124018905437  0.9758444487762126  0.7068669777467125  1.0000
  C   C475      1.0  0.5063765567092471  0.9408631804770514  0.718084575873751  1.0000
  C   C476      1.0  0.47851793450720176  0.9511732598989323  0.7534832914475648  1.0000
  H   H745      1.0  0.436538090321908  0.9286335828276961  0.7119160561535446  1.0000
  H   H746      1.0  0.448060156811412  0.9025416836823351  0.7202859068961462  1.0000
  H   H747      1.0  0.45717300596811117  0.9210103575571986  0.6856932241365293  1.0000
  H   H748      1.0  0.5116052586545317  0.9944468387564573  0.7155885941182017  1.0000
  H   H749      1.0  0.49357438296587586  0.9740661789784429  0.6830127883172462  1.0000
  H   H750      1.0  0.4733376927719179  0.9819483678633111  0.7095003149067324  1.0000
  H   H751      1.0  0.5277349862871465  0.9586270134065834  0.7269963287971838  1.0000
  H   H752      1.0  0.5099475321924468  0.938127996496775  0.6945920915794296  1.0000
  H   H753      1.0  0.5010991694898898  0.9199894636089492  0.729261592028304  1.0000
  H   H754      1.0  0.4989534044699003  0.9692065535697338  0.7636284718559082  1.0000
  H   H755      1.0  0.4722934796125727  0.9305290166645721  0.765602953758533  1.0000
  H   H756      1.0  0.4607376387033668  0.95652795661069  0.7571813124029807  1.0000
  N   N48       1.0  0.669101532267294  0.19572395579609791  0.08452574266631818  1.0000
  C   C477      1.0  0.6368958851338592  0.17992027216937143  0.07947745042101628  1.0000
  C   C478      1.0  0.6750743241263896  0.19174864851371565  0.11515123494781454  1.0000
  C   C479      1.0  0.6815686183198126  0.22747714902865113  0.07872892040325352  1.0000
  C   C480      1.0  0.6829477294570296  0.18362125498948215  0.06497961768128158  1.0000
  H   H757      1.0  0.6314017157213913  0.18319121530585586  0.05686096387093453  1.0000
  H   H758      1.0  0.6254971784440395  0.18741201982837669  0.09492254345048479  1.0000
  H   H759      1.0  0.6270373134751932  0.15573851750885773  0.0827406558124637  1.0000
  H   H760      1.0  0.6648603758026268  0.20036616389886616  0.13072945223985166  1.0000
  H   H761      1.0  0.6660390356313374  0.16800743935209292  0.11996563739212429  1.0000
  H   H762      1.0  0.699150285647632  0.20328512173831403  0.11989013683187788  1.0000
  H   H763      1.0  0.7058166987240877  0.23994179691462267  0.08266039767488098  1.0000
  H   H764      1.0  0.6714891138367945  0.23715086002302166  0.09321296314053562  1.0000
  H   H765      1.0  0.6776594780134197  0.23138689313000999  0.0557180682033549  1.0000
  H   H766      1.0  0.673681850781434  0.15957909673126877  0.06875743950674074  1.0000
  H   H767      1.0  0.7071795273432818  0.19456140751065523  0.06886515622335287  1.0000
  H   H768      1.0  0.6793275091778334  0.18652944539326455  0.04158618258674052  1.0000
