data_image0
_chemical_formula_structural       FeS2FeS2FeSFeS3FeS2FeS2FeSFeS3FeS2FeS2FeSFeS3FeS2FeS2FeSFeS3FeS2FeS2FeSFeS3FeS2FeS2FeSFeS3FeS2FeS2FeSFeS3FeS2FeS2FeSFeS3FeS2FeS2FeSFeS3FeS2FeS2FeSFeS3FeS2FeS2FeSFeS3FeS2FeS2FeSFeS3FeS2FeS2FeSFeS3FeS2FeS2FeSFeS3FeS2FeS2FeSFeS3FeS2FeS2FeSFeS3C6H4C6H4C6H4C6H4C6H4C6H4C6H4C6H4C6H4C6H4C6H4C6H4C6H4C6H4C6H4C6H4C6H4C6H4C6H4C6H4C6H4C6H4C6H4C6H4C6H4C6H4C6H4C6H4C6H4C6H4C6H4C6H4NC4H12NC4H12NC4H12NC4H12NC4H12NC4H12NC4H12NC4H12NC4H12NC4H12NC4H12NC4H12NC4H12NC4H12NC4H12NC4H12NC4H12NC4H12NC4H12NC4H12NC4H12NC4H12NC4H12NC4H12NC4H12NC4H12NC4H12NC4H12NC4H12NC4H12NC4H12NC4H12
_chemical_formula_sum              "Fe64 S128 C320 H512 N32"
_cell_length_a       33.19906000416696
_cell_length_b       31.480175142719297
_cell_length_c       32.94781818733461
_cell_angle_alpha    90.45210924557072
_cell_angle_beta     92.356714021975
_cell_angle_gamma    92.13464956765003

_space_group_name_H-M_alt    "P 1"
_space_group_IT_number       1

loop_
  _space_group_symop_operation_xyz
  'x, y, z'

loop_
  _atom_site_type_symbol
  _atom_site_label
  _atom_site_symmetry_multiplicity
  _atom_site_fract_x
  _atom_site_fract_y
  _atom_site_fract_z
  _atom_site_occupancy
  Fe  Fe1       1.0  0.005450869529529001  0.18409502241215786  0.8016379442093688  1.0000
  S   S1        1.0  0.03491162682205773  0.245088403666844  0.8255748678351663  1.0000
  S   S2        1.0  0.011421707895123978  0.12469431297761198  0.8386960052770356  1.0000
  Fe  Fe2       1.0  0.9754531630879674  0.22432289832918367  0.7230675289359583  1.0000
  S   S3        1.0  0.002470896758553387  0.28860345794774217  0.7396605018367307  1.0000
  S   S4        1.0  0.9413286094945561  0.20801597314859  0.6642024916211018  1.0000
  Fe  Fe3       1.0  0.05632058098758663  0.253484553381781  0.7624610464627073  1.0000
  S   S5        1.0  0.1216287666801652  0.2708073128617514  0.7526803927681599  1.0000
  Fe  Fe4       1.0  0.9787932137982107  0.2747533302578786  0.8011682158448243  1.0000
  S   S6        1.0  0.947160633146511  0.32578405642286057  0.833278409241464  1.0000
  S   S7        1.0  0.03153222608035966  0.1898458970230634  0.7402294504018344  1.0000
  S   S8        1.0  0.9470365307810588  0.21319813709164342  0.7827959040879381  1.0000
  Fe  Fe5       1.0  0.7244603792766955  0.3135618005510535  0.48066066502417354  1.0000
  S   S9        1.0  0.7695380211380791  0.3680021128211845  0.4816483477101839  1.0000
  S   S10       1.0  0.662954339769892  0.3278317308426493  0.5015871091644218  1.0000
  Fe  Fe6       1.0  0.7858658060497083  0.2504189889270508  0.4559021376132779  1.0000
  S   S11       1.0  0.8366793480013146  0.29970801818642434  0.45631762394083064  1.0000
  S   S12       1.0  0.7948870888227457  0.18144401444890973  0.4415604520858514  1.0000
  Fe  Fe7       1.0  0.8105410449062632  0.32316599685008734  0.5137724346955044  1.0000
  S   S13       1.0  0.8432280490585184  0.3481284495062129  0.5708226368551659  1.0000
  Fe  Fe8       1.0  0.7907156200674454  0.33970124032954135  0.42418332588767216  1.0000
  S   S14       1.0  0.7992341516278741  0.3835202072822567  0.3712041243928128  1.0000
  S   S15       1.0  0.7638935308444166  0.27024136244772495  0.5166077683902375  1.0000
  S   S16       1.0  0.7415338145092698  0.2887711869814946  0.4200070582710617  1.0000
  Fe  Fe9       1.0  0.4386333554224202  0.48800564851736206  0.3602974039909204  1.0000
  S   S17       1.0  0.4144289916864059  0.5153444316184356  0.41682222630904936  1.0000
  S   S18       1.0  0.3959530720308126  0.4801490827040543  0.3057101697980429  1.0000
  Fe  Fe10      1.0  0.5223743389051814  0.48052285839530146  0.39887817417866267  1.0000
  S   S19       1.0  0.5057249901806316  0.5067653782492192  0.45928378176687495  1.0000
  S   S20       1.0  0.5843687783891873  0.4611769207032416  0.383562346967876  1.0000
  Fe  Fe11      1.0  0.4493991708326874  0.46563297554177474  0.4494142614868088  1.0000
  S   S21       1.0  0.4196633113333515  0.4270203101950164  0.4976858248026418  1.0000
  Fe  Fe12      1.0  0.4723181269853746  0.5541104083121187  0.4217120486941814  1.0000
  S   S22       1.0  0.4707376587781524  0.6229612421059733  0.4396471214216733  1.0000
  S   S23       1.0  0.46911874373166046  0.43474872073974996  0.3924039017989429  1.0000
  S   S24       1.0  0.4934441861124735  0.5315348898707973  0.36176511107932785  1.0000
  Fe  Fe13      1.0  0.2212340028434739  0.48373945632740006  0.6957320969334749  1.0000
  S   S25       1.0  0.23337658959178148  0.505893485190361  0.7602431297085029  1.0000
  S   S26       1.0  0.1615097416900764  0.4508906349636039  0.6785983240323247  1.0000
  Fe  Fe14      1.0  0.2982961843561505  0.5259212637202147  0.6656435749334475  1.0000
  S   S27       1.0  0.3167485913849883  0.5504616748253391  0.7276758050033768  1.0000
  S   S28       1.0  0.33702725389372407  0.55249876091164  0.6167294469641651  1.0000
  Fe  Fe15      1.0  0.2963805137851847  0.48633809284948104  0.74931895269404  1.0000
  S   S29       1.0  0.3348917722609326  0.45647800272296457  0.7982102203075427  1.0000
  Fe  Fe16      1.0  0.25256475913354226  0.5677769707616362  0.7325023217790473  1.0000
  S   S30       1.0  0.24200756986054214  0.6354640812589456  0.749650157061694  1.0000
  S   S31       1.0  0.2832712890705719  0.4594841402445872  0.6864845276952244  1.0000
  S   S32       1.0  0.23510758589893127  0.5476787262364305  0.6688523189697496  1.0000
  Fe  Fe17      1.0  0.18192299474717005  0.8300796029090428  0.960909994584079  1.0000
  S   S33       1.0  0.21906829413728385  0.7875093089923023  0.0006054978446754511  1.0000
  S   S34       1.0  0.12050183952432666  0.8481031657228146  0.9805578289942677  1.0000
  Fe  Fe18      1.0  0.24628132309572193  0.838670400289375  0.8984133274323033  1.0000
  S   S35       1.0  0.28888632626066985  0.7965025694927942  0.9319745456782231  1.0000
  S   S36       1.0  0.2596112434761613  0.8736385941188204  0.8413094167784935  1.0000
  Fe  Fe19      1.0  0.23328297980962673  0.7555771543506057  0.9419459774693993  1.0000
  S   S37       1.0  0.22731293139684672  0.6843672196548513  0.9342658245347907  1.0000
  Fe  Fe20      1.0  0.2711258602804914  0.832200293508675  0.9873699475454637  1.0000
  S   S38       1.0  0.3186494705410151  0.8622343688729297  0.03045036527596423  1.0000
  S   S39       1.0  0.19228488683563605  0.7948609730342895  0.9032429293284315  1.0000
  S   S40       1.0  0.23261647157351795  0.8777316255347756  0.9528319489644851  1.0000
  Fe  Fe21      1.0  0.4979654567806608  0.7747954859516637  0.27492724594208806  1.0000
  S   S41       1.0  0.505644130116007  0.8426622214754846  0.2948275493421288  1.0000
  S   S42       1.0  0.5422976406476608  0.7267792349461895  0.2955604555790795  1.0000
  Fe  Fe22      1.0  0.42365592333660346  0.7902988861897168  0.22110983247764474  1.0000
  S   S43       1.0  0.42489875883123446  0.8600963885066429  0.23553700821411622  1.0000
  S   S44       1.0  0.374579016507619  0.7560039925459715  0.18351360882855608  1.0000
  Fe  Fe23      1.0  0.49190456286491163  0.8570440067947921  0.22926842775447445  1.0000
  S   S45       1.0  0.5294133174676777  0.9026699798803824  0.19309772173139828  1.0000
  Fe  Fe24      1.0  0.4384291980482494  0.8392890159204388  0.2994134013495072  1.0000
  S   S46       1.0  0.40745840525958177  0.8660055594265371  0.3523650608238525  1.0000
  S   S47       1.0  0.4893990989041122  0.7887954963262307  0.2087786975560548  1.0000
  S   S48       1.0  0.431911270836231  0.7696720349219992  0.28570757626511767  1.0000
  Fe  Fe25      1.0  0.7951672507283579  0.06887771090955397  0.23810728924941169  1.0000
  S   S49       1.0  0.7926146113156478  0.01544836218318646  0.2824303136873417  1.0000
  S   S50       1.0  0.8106351064392565  0.13717290832176077  0.25552567258142367  1.0000
  Fe  Fe26      1.0  0.767949129469394  0.011368246865952614  0.16661369168353923  1.0000
  S   S51       1.0  0.7616272920905802  0.9533594458854039  0.2052307165591395  1.0000
  S   S52       1.0  0.7538740870040223  0.005120190048865103  0.09943230792831953  1.0000
  Fe  Fe27      1.0  0.7341062815561632  0.9969471262599472  0.24968849165329654  1.0000
  S   S53       1.0  0.6826805934423328  0.981291074360857  0.28975527892042885  1.0000
  Fe  Fe28      1.0  0.8204240985201733  0.9772318663140974  0.2342426456926814  1.0000
  S   S54       1.0  0.8723357589558394  0.935606932392824  0.24859452232156057  1.0000
  S   S55       1.0  0.7344312332257038  0.05301241399872736  0.20829454008384324  1.0000
  S   S56       1.0  0.828980384662895  0.03250130895640502  0.19253843685126854  1.0000
  Fe  Fe29      1.0  0.8647893067186846  0.9384243975595538  0.8680751613809053  1.0000
  S   S57       1.0  0.9159693192166225  0.9205987930693115  0.9100691289315338  1.0000
  S   S58       1.0  0.8554675235924851  0.0039243849328924885  0.8433279606143325  1.0000
  Fe  Fe30      1.0  0.8271460582391925  0.8488908377298466  0.8655635662334156  1.0000
  S   S59       1.0  0.8751939063047475  0.8231934692979872  0.9076905291075633  1.0000
  S   S60       1.0  0.7732617796052325  0.809613915058718  0.8405463894946545  1.0000
  Fe  Fe31      1.0  0.8687457943956152  0.8836480765938867  0.9432487251687073  1.0000
  S   S61       1.0  0.8736143015610555  0.8868601171957529  0.01161724620927429  1.0000
  Fe  Fe32      1.0  0.9180546456607993  0.8623085577237116  0.8710244901809261  1.0000
  S   S62       1.0  0.9767631036298279  0.8401915931655438  0.8482251048788022  1.0000
  S   S63       1.0  0.8170512073961717  0.9063175612392365  0.9043739427650727  1.0000
  S   S64       1.0  0.8705801902708393  0.8831953313667303  0.8257632552644302  1.0000
  Fe  Fe33      1.0  0.3312934952989558  0.2673999717239546  0.20676274413458615  1.0000
  S   S65       1.0  0.2902840922963559  0.30712613749761414  0.16846557808875318  1.0000
  S   S66       1.0  0.39057513919441816  0.2928996934407411  0.2343801902450157  1.0000
  Fe  Fe34      1.0  0.2775671960842879  0.1873719349335605  0.19515027580496763  1.0000
  S   S67       1.0  0.2325941991886528  0.22050444459282198  0.15527544704966742  1.0000
  S   S68       1.0  0.2678922625818394  0.11710251893369365  0.2055390243759604  1.0000
  Fe  Fe35      1.0  0.2863519812287571  0.25065526348243683  0.12624265238488105  1.0000
  S   S69       1.0  0.2861548293485447  0.2617370552848384  0.058668729898714515  1.0000
  Fe  Fe36      1.0  0.2408048843005522  0.2733583379317998  0.201062066801  1.0000
  S   S70       1.0  0.1883962112612671  0.3041572415536418  0.22860784044889917  1.0000
  S   S71       1.0  0.33095891592497845  0.21293354003187756  0.16225693627681176  1.0000
  S   S72       1.0  0.2822194869733967  0.23825830285671482  0.2433059435495979  1.0000
  Fe  Fe37      1.0  0.418246469210211  0.19568122495623788  0.8933019529201217  1.0000
  S   S73       1.0  0.4206836051042094  0.25043920321373403  0.8504814739364983  1.0000
  S   S74       1.0  0.4345583496494994  0.20443115424979633  0.9597996495766564  1.0000
  Fe  Fe38      1.0  0.39767960420265375  0.13037277063908037  0.8263600534150306  1.0000
  S   S75       1.0  0.39803020129160716  0.1795647811114205  0.7773826545688794  1.0000
  S   S76       1.0  0.3884575680215361  0.05907473306771238  0.8192992361716319  1.0000
  Fe  Fe39      1.0  0.4534858864324436  0.20687387727292114  0.8104330386451426  1.0000
  S   S77       1.0  0.5087405014512396  0.22674031478701592  0.7770742652885515  1.0000
  Fe  Fe40      1.0  0.36501481718860035  0.2192842251528065  0.821154426619104  1.0000
  S   S78       1.0  0.31259313440776454  0.2561733385542007  0.7968109874011947  1.0000
  S   S79       1.0  0.45627684792730583  0.15456362272518143  0.8559537187606188  1.0000
  S   S80       1.0  0.35942377737714365  0.1676883386424472  0.8675755555260339  1.0000
  Fe  Fe41      1.0  0.9454397038586376  0.36936647031629993  0.19954494015186972  1.0000
  S   S81       1.0  0.9908218850807224  0.41923628420062586  0.18083953695500984  1.0000
  S   S82       1.0  0.9441855444405889  0.341119043824911  0.26191318928424034  1.0000
  Fe  Fe42      1.0  0.9078499907919062  0.35749544586097604  0.1148148519964807  1.0000
  S   S83       1.0  0.9490938132157014  0.40653594488866884  0.08783333840876707  1.0000
  S   S84       1.0  0.8624887854324107  0.3163670454633592  0.07871168291319752  1.0000
  Fe  Fe43      1.0  0.997604477809222  0.37692323637835756  0.12648080654207075  1.0000
  S   S85       1.0  0.05573867735194149  0.3602860140772244  0.09892420236986532  1.0000
  Fe  Fe44      1.0  0.9388273580663975  0.4448562598763243  0.14404228463047392  1.0000
  S   S86       1.0  0.9212723893668825  0.5130347245557244  0.1421647019642164  1.0000
  S   S87       1.0  0.9571179064921547  0.3245823483134564  0.14866516604860056  1.0000
  S   S88       1.0  0.8926982725650162  0.39844562735463374  0.16736551905895594  1.0000
  Fe  Fe45      1.0  0.9365307244746592  0.6496089883786329  0.32822868120557336  1.0000
  S   S89       1.0  0.9348914568780196  0.6404720055029435  0.39545929884456804  1.0000
  S   S90       1.0  0.9862747469076065  0.6178127879264897  0.29693336926480396  1.0000
  Fe  Fe46      1.0  0.8667566059515507  0.7089467818062927  0.32668116630849664  1.0000
  S   S91       1.0  0.859362513083265  0.7048726999521628  0.39391290305085186  1.0000
  S   S92       1.0  0.8218787156024018  0.7468330321796959  0.2906762785412616  1.0000
  Fe  Fe47      1.0  0.9266058190711696  0.7105726011405843  0.3981945939981908  1.0000
  S   S93       1.0  0.959901404785167  0.7507376100659895  0.446020458279908  1.0000
  Fe  Fe48      1.0  0.8679179249568925  0.6351947674890562  0.38470739222409017  1.0000
  S   S94       1.0  0.8322775431091624  0.5841298350131892  0.4161082148908867  1.0000
  S   S95       1.0  0.9339833231183685  0.7204172402113649  0.33149753912316954  1.0000
  S   S96       1.0  0.8697630571352235  0.6383740923071084  0.31706536115730277  1.0000
  Fe  Fe49      1.0  0.7005869267586223  0.5905358723511926  0.6326714291224865  1.0000
  S   S97       1.0  0.750819623475161  0.6263092307453897  0.6030498834001816  1.0000
  S   S98       1.0  0.6964627227396885  0.5198985688233563  0.6396102149507429  1.0000
  Fe  Fe50      1.0  0.6551948928419453  0.6695026826479649  0.6497056154526555  1.0000
  S   S99       1.0  0.7009351980789036  0.7129195186367033  0.621473235077983  1.0000
  S   S100      1.0  0.5997193844328853  0.6909770424289179  0.6790730949187718  1.0000
  Fe  Fe51      1.0  0.701034895477518  0.6624198527472019  0.573006160626323  1.0000
  S   S101      1.0  0.6997280952941298  0.6802588351903994  0.5073246085309787  1.0000
  Fe  Fe52      1.0  0.7463290620410509  0.6731687185366753  0.6539638601932528  1.0000
  S   S102      1.0  0.8034049296420529  0.7021648519942126  0.6825895895858768  1.0000
  S   S103      1.0  0.6509747006014677  0.62262602833005  0.5982540786475546  1.0000
  S   S104      1.0  0.7006088218979569  0.6339307255282793  0.686865096672  1.0000
  Fe  Fe53      1.0  0.45104025602643594  0.848459503319404  0.6120789491857674  1.0000
  S   S105      1.0  0.4078463792764534  0.8876934430910568  0.5761264811484362  1.0000
  S   S106      1.0  0.511838118677455  0.8383103838882201  0.5870305011395188  1.0000
  Fe  Fe54      1.0  0.3885579501244475  0.8226673882284179  0.6720245312611246  1.0000
  S   S107      1.0  0.33959932379489227  0.8589565584211206  0.6405182810262983  1.0000
  S   S108      1.0  0.3756589523032465  0.7809582961657068  0.7251672297814385  1.0000
  Fe  Fe55      1.0  0.3639947968902971  0.8330845369636498  0.5834382012082924  1.0000
  S   S109      1.0  0.3301157361868582  0.8077276638538259  0.5276494478214574  1.0000
  Fe  Fe56      1.0  0.3879457589233764  0.9103329419672068  0.6365280590071574  1.0000
  S   S110      1.0  0.37360960160737877  0.9795527510768263  0.6413774023425666  1.0000
  S   S111      1.0  0.4085126683144523  0.7919982421420259  0.6150568637161358  1.0000
  S   S112      1.0  0.43560224303036377  0.8759437053445868  0.6723993504481983  1.0000
  Fe  Fe57      1.0  0.1850390541128846  0.9048930605430324  0.34730432210326684  1.0000
  S   S113      1.0  0.20961795550120355  0.9550898433996189  0.3915428806613721  1.0000
  S   S114      1.0  0.22093868327692776  0.862839321650573  0.3079608184971445  1.0000
  Fe  Fe58      1.0  0.09821167215384537  0.9202241835473844  0.3659334763528227  1.0000
  S   S115      1.0  0.1148822475481645  0.9711484194849005  0.4119113731660768  1.0000
  S   S116      1.0  0.0338350173150348  0.902836715300734  0.3477400507546858  1.0000
  Fe  Fe59      1.0  0.15931978470798788  0.9941024674753031  0.3667621225666602  1.0000
  S   S117      1.0  0.16695600171985478  0.06449116557512324  0.3568596857000551  1.0000
  Fe  Fe60      1.0  0.1633126606953149  0.92747847930955  0.43240145238095296  1.0000
  S   S118      1.0  0.17728869131841007  0.9172630796746684  0.49863917031131  1.0000
  S   S119      1.0  0.13856367511584974  0.9465691902296189  0.3186635117677964  1.0000
  S   S120      1.0  0.14257149045768905  0.8740273048570495  0.3903113745805121  1.0000
  Fe  Fe61      1.0  0.7352154416687313  0.3384750068153445  0.8676214903414036  1.0000
  S   S121      1.0  0.773844782202762  0.39314601621240025  0.8928883602963864  1.0000
  S   S122      1.0  0.7645041913568917  0.27608279574693034  0.8585000867407611  1.0000
  Fe  Fe62      1.0  0.6613068091922959  0.3912473532943142  0.8589445107213645  1.0000
  S   S123      1.0  0.6940785568650919  0.4506361868434319  0.8824245180921747  1.0000
  S   S124      1.0  0.5948543707773285  0.3957438320132836  0.8450142474777405  1.0000
  Fe  Fe63      1.0  0.7437572309734599  0.43044353561231047  0.8435522000554952  1.0000
  S   S125      1.0  0.78196589642795  0.47544626674784285  0.8074657463021478  1.0000
  Fe  Fe64      1.0  0.7207557693638428  0.4075691523630869  0.9292222284723306  1.0000
  S   S126      1.0  0.731134514072874  0.428935855159659  0.9938364044914437  1.0000
  S   S127      1.0  0.7087072952989645  0.37466289316991763  0.8153197416665129  1.0000
  S   S128      1.0  0.6843177889307978  0.3492895316439869  0.9089117846197823  1.0000
  C   C1        1.0  0.28479935127392036  0.8336897436780775  0.5194393202240518  1.0000
  C   C2        1.0  0.26440470845200725  0.8492261502225431  0.5523769306240809  1.0000
  C   C3        1.0  0.22986329602828878  0.8728104820807487  0.5457458295045351  1.0000
  C   C4        1.0  0.21600874741375833  0.8815255524709517  0.5061535471900916  1.0000
  C   C5        1.0  0.23559627169704866  0.8648185470380042  0.473094545266287  1.0000
  C   C6        1.0  0.26989968885397914  0.8406594197759104  0.4797632591597489  1.0000
  H   H1        1.0  0.275056320319653  0.8429560755434612  0.5830164261931553  1.0000
  H   H2        1.0  0.2144446074986573  0.8852503900409353  0.5713367181552987  1.0000
  H   H3        1.0  0.2249793345992532  0.8713838805946561  0.4423948109420251  1.0000
  H   H4        1.0  0.28551403914873436  0.8285553137721188  0.45414285470825705  1.0000
  C   C7        1.0  0.7203370867625376  0.5071240342932261  0.6860211540493562  1.0000
  C   C8        1.0  0.6991400859492973  0.48384487778796537  0.714772003021695  1.0000
  C   C9        1.0  0.7180431218031259  0.473889829969212  0.7521285162535886  1.0000
  C   C10       1.0  0.7583927843175099  0.48647874063267393  0.7604190438914933  1.0000
  C   C11       1.0  0.7797711309430416  0.5092256349886873  0.7313997557137645  1.0000
  C   C12       1.0  0.7606095932783475  0.5200098002685586  0.6943678449586781  1.0000
  H   H5        1.0  0.6678074916359137  0.4743358297569066  0.7086039321441251  1.0000
  H   H6        1.0  0.7011368314077263  0.4570574095602838  0.7747249806311497  1.0000
  H   H7        1.0  0.8110721013261242  0.5187554517380081  0.7376998943939252  1.0000
  H   H8        1.0  0.7770900120708123  0.537903403717417  0.6721045217140404  1.0000
  C   C13       1.0  0.5743070763059522  0.7301070968093575  0.6518982125121952  1.0000
  C   C14       1.0  0.5396960349327725  0.7468600758772729  0.6676482044795516  1.0000
  C   C15       1.0  0.520058615510616  0.7797097730431517  0.6474163011393801  1.0000
  C   C16       1.0  0.5351692138481654  0.7960174709056446  0.6115007991966059  1.0000
  C   C17       1.0  0.5694842248879265  0.7788526717252982  0.5954060284522082  1.0000
  C   C18       1.0  0.5889149658735313  0.7456828931923986  0.6154565363929345  1.0000
  H   H9        1.0  0.5282173170299149  0.734745570011509  0.6957593746870433  1.0000
  H   H10       1.0  0.49360894113320625  0.7929055549575855  0.6600462859256474  1.0000
  H   H11       1.0  0.5811212167164392  0.7913302995027152  0.5675151220168756  1.0000
  H   H12       1.0  0.6153745753249166  0.7325655120277489  0.6028880306112061  1.0000
  C   C19       1.0  0.977508080944656  0.7973653142345125  0.4228846584694485  1.0000
  C   C20       1.0  0.013520933239677957  0.8180047886939373  0.4370716704286627  1.0000
  C   C21       1.0  0.03066167066860115  0.8514263140042369  0.4147417426640786  1.0000
  C   C22       1.0  0.011415056945189848  0.8644028780244772  0.3786025978671234  1.0000
  C   C23       1.0  0.97447636221326  0.8450667377587169  0.3656066976591472  1.0000
  C   C24       1.0  0.9575010596196941  0.8117165277579262  0.3877672962618144  1.0000
  H   H13       1.0  0.028982776635444685  0.8071039644872705  0.4643924668618265  1.0000
  H   H14       1.0  0.058975851983250165  0.8666755424660095  0.42522188727663357  1.0000
  H   H15       1.0  0.9594441276700091  0.8550384456863281  0.3377553573944947  1.0000
  H   H16       1.0  0.9289787204864424  0.7968951546562555  0.37744833252842597  1.0000
  C   C25       1.0  0.7918817934832667  0.6077009537609925  0.43892685989520974  1.0000
  C   C26       1.0  0.7769875239773721  0.5910420245007585  0.47482605638164266  1.0000
  C   C27       1.0  0.7470003519591352  0.6120813295240022  0.4949268551119344  1.0000
  C   C28       1.0  0.7321387769267178  0.649889492548667  0.4793202978904791  1.0000
  C   C29       1.0  0.7454379498639757  0.6651570231676066  0.44226376172335924  1.0000
  C   C30       1.0  0.7752503804319514  0.6440258101250073  0.42205016953312186  1.0000
  H   H17       1.0  0.789589402075411  0.5628161211471236  0.48794188088880097  1.0000
  H   H18       1.0  0.735614349499017  0.5991958352245432  0.522633824719379  1.0000
  H   H19       1.0  0.7335171884580205  0.6940254576966548  0.4297400197994296  1.0000
  H   H20       1.0  0.7853714729089314  0.6559833537361084  0.3933953799384914  1.0000
  C   C31       1.0  0.8235223529709449  0.3462660161176195  0.0575797042023538  1.0000
  C   C32       1.0  0.8173607997650935  0.3872878977470266  0.07207445510269728  1.0000
  C   C33       1.0  0.7880289621611039  0.41214136594658585  0.053120645594821214  1.0000
  C   C34       1.0  0.7655951711524737  0.39645954479776035  0.01899558043077687  1.0000
  C   C35       1.0  0.7717668285712517  0.3554244306984664  0.0044504133252671885  1.0000
  C   C36       1.0  0.8002492991406887  0.33007525122772113  0.024178804341044025  1.0000
  H   H21       1.0  0.8354253365698836  0.40019687759568373  0.09757458587010068  1.0000
  H   H22       1.0  0.7834378207204953  0.44396709933726464  0.06425489252882066  1.0000
  H   H23       1.0  0.7544493126142439  0.34317958251551195  0.9781016838350526  1.0000
  H   H24       1.0  0.804989206513501  0.2983866862370402  0.01281952465048719  1.0000
  C   C37       1.0  0.9407831430243958  0.5436837192099604  0.18361896712583858  1.0000
  C   C38       1.0  0.97842108420129  0.5355270459713738  0.2019651593810626  1.0000
  C   C39       1.0  0.9930010354073419  0.5595899113316968  0.23584940688038314  1.0000
  C   C40       1.0  0.9695665783670676  0.591184718620523  0.25200695179933286  1.0000
  C   C41       1.0  0.9322607414713736  0.5998276490307473  0.23327296495887778  1.0000
  C   C42       1.0  0.918066363086343  0.5763629828577937  0.19889276404183806  1.0000
  H   H25       1.0  0.9965945629242705  0.5111720786072199  0.1896253136129498  1.0000
  H   H26       1.0  0.02215068162902689  0.5531629209799928  0.24989642807553977  1.0000
  H   H27       1.0  0.9144677077165348  0.6248500019917834  0.24491896486041623  1.0000
  H   H28       1.0  0.8891390082291478  0.5830398445512323  0.18447158937510583  1.0000
  C   C43       1.0  0.5323692320959922  0.2748236526582635  0.793592929875362  1.0000
  C   C44       1.0  0.5742170735221077  0.2806957184610438  0.7911631656059233  1.0000
  C   C45       1.0  0.5938274183865003  0.31789994695111284  0.8068783336492408  1.0000
  C   C46       1.0  0.571326661315231  0.3497563211739727  0.8237713781247131  1.0000
  C   C47       1.0  0.529343546819392  0.34458712966023064  0.8246572034735322  1.0000
  C   C48       1.0  0.5099572164094383  0.30694370971588675  0.8100606538354908  1.0000
  H   H29       1.0  0.5916174426446836  0.25597193043852867  0.7781615527438761  1.0000
  H   H30       1.0  0.6262740697558378  0.3219555478011011  0.8059321308310075  1.0000
  H   H31       1.0  0.5119464931481374  0.3693590462069669  0.8375979607024147  1.0000
  H   H32       1.0  0.47772138128436226  0.30293112333579686  0.8115753247880486  1.0000
  C   C49       1.0  0.3784010664709501  0.0015140197808392042  0.690808706441663  1.0000
  C   C50       1.0  0.3867106978323112  0.9759526752972474  0.7244117729647346  1.0000
  C   C51       1.0  0.39020273179333226  0.9940234682250189  0.7635844388091805  1.0000
  C   C52       1.0  0.38536719589141843  0.03771421968892729  0.7694829900167666  1.0000
  C   C53       1.0  0.37717820031038574  0.06328849039348095  0.7358234288142169  1.0000
  C   C54       1.0  0.37362168971640036  0.04520567419184762  0.6966042841012919  1.0000
  H   H33       1.0  0.39030907193480424  0.9422265439344214  0.7202951347706977  1.0000
  H   H34       1.0  0.39708463702717667  0.9740592768671976  0.7892379779469114  1.0000
  H   H35       1.0  0.37302370833560167  0.09685854685692427  0.7400104567231993  1.0000
  H   H36       1.0  0.3671470173901119  0.06513215942190986  0.6707436549034195  1.0000
  C   C55       1.0  0.1521157821371009  0.3204771304702717  0.19239062992952807  1.0000
  C   C56       1.0  0.11499139249480539  0.3341295669425263  0.2051923182143736  1.0000
  C   C57       1.0  0.0851051105622076  0.34596110386466244  0.17657036286360284  1.0000
  C   C58       1.0  0.09249260751429533  0.3446959054481595  0.13508807373912432  1.0000
  C   C59       1.0  0.129576155768359  0.33080562505910904  0.12230476322739532  1.0000
  C   C60       1.0  0.15931717006223944  0.3184975087762722  0.1509101366139538  1.0000
  H   H37       1.0  0.10927567308467534  0.3355248210275871  0.2372560216737598  1.0000
  H   H38       1.0  0.056496682808955034  0.35639421664098103  0.18663168227214885  1.0000
  H   H39       1.0  0.13534451949731974  0.3297320611705226  0.0902332155488211  1.0000
  H   H40       1.0  0.18791158917311027  0.307932356999038  0.14081732188951418  1.0000
  C   C61       1.0  0.3269685722224706  0.24402165110665017  0.031539137566503506  1.0000
  C   C62       1.0  0.36049671961486135  0.2268021514175457  0.05150167057979149  1.0000
  C   C63       1.0  0.3936233483303805  0.21496961814428747  0.02938713799049908  1.0000
  C   C64       1.0  0.3929435777316956  0.21943410331943622  0.9871023845342014  1.0000
  C   C65       1.0  0.35928751961560484  0.23629307723986107  0.9670258340781869  1.0000
  C   C66       1.0  0.32651280786118636  0.2488742221756996  0.9892742617471589  1.0000
  H   H41       1.0  0.3609815503347541  0.22260389968649577  0.08391715571944273  1.0000
  H   H42       1.0  0.41945506794859205  0.20156938266292493  0.04494966421244939  1.0000
  H   H43       1.0  0.35868469793833785  0.24010396188887936  0.9344169454031629  1.0000
  H   H44       1.0  0.300736494009596  0.2623852381195142  0.9737214911947834  1.0000
  C   C67       1.0  0.24214145899924586  0.10238495663840945  0.24909342477850416  1.0000
  C   C68       1.0  0.23075838483612549  0.05958979554103183  0.2547756893461831  1.0000
  C   C69       1.0  0.2083744075497299  0.047464053970510456  0.28832244342147434  1.0000
  C   C70       1.0  0.19715244746088892  0.07820435309524765  0.3161387680292559  1.0000
  C   C71       1.0  0.20914190482812414  0.12083435314408497  0.3108505777346782  1.0000
  C   C72       1.0  0.231630866627861  0.13290939500489443  0.277424077085043  1.0000
  H   H45       1.0  0.23891931305870662  0.035849388366847146  0.23298830072786075  1.0000
  H   H46       1.0  0.19946505117725108  0.01444888466853822  0.29239684253489284  1.0000
  H   H47       1.0  0.20105335545720499  0.14452594801585783  0.33273012269449564  1.0000
  H   H48       1.0  0.24064704919600383  0.1658019223706107  0.2735601702773735  1.0000
  C   C73       1.0  0.7823162610928139  0.7795556075281651  0.7970010429367853  1.0000
  C   C74       1.0  0.7500247778004344  0.7573654193447302  0.7766867111659916  1.0000
  C   C75       1.0  0.7562190688295077  0.7342508580939598  0.7410397512614189  1.0000
  C   C76       1.0  0.7950059534227671  0.7322762294667418  0.7262663182575891  1.0000
  C   C77       1.0  0.8274552475109748  0.7536666847841976  0.7470520331678242  1.0000
  C   C78       1.0  0.8211008246492715  0.7774757722427083  0.7822836401904426  1.0000
  H   H49       1.0  0.7201906999061596  0.7583053219283665  0.7885210542252218  1.0000
  H   H50       1.0  0.7310867908816732  0.7177421370243416  0.7251488293058556  1.0000
  H   H51       1.0  0.8575564535398998  0.7520090856413152  0.735845980408127  1.0000
  H   H52       1.0  0.8462732262288929  0.7940213362450153  0.798122797684049  1.0000
  C   C79       1.0  0.8580646234505168  0.8847341943821406  0.26535943133751627  1.0000
  C   C80       1.0  0.8173638936901015  0.8719806831653192  0.26667237564628016  1.0000
  C   C81       1.0  0.8064820011350131  0.8296609149574271  0.2752483346045568  1.0000
  C   C82       1.0  0.8362393289341241  0.8004212231280797  0.28425653873662365  1.0000
  C   C83       1.0  0.87694052189809  0.8137993596549004  0.2852452592770218  1.0000
  C   C84       1.0  0.8878477809339743  0.8558177047383047  0.2752808288469487  1.0000
  H   H53       1.0  0.7942227781849169  0.8943802905488913  0.2602267263832285  1.0000
  H   H54       1.0  0.7749791110978619  0.8195085747685534  0.27487968254547374  1.0000
  H   H55       1.0  0.9000769612690439  0.7914032029550587  0.2917647451148113  1.0000
  H   H56       1.0  0.9193820758746262  0.8655750051381998  0.2742269030044648  1.0000
  C   C85       1.0  0.7863757888633434  0.9709721812466012  0.075650830308023  1.0000
  C   C86       1.0  0.7752410390046817  0.9531059119929068  0.03756003973134092  1.0000
  C   C87       1.0  0.8017909981345336  0.9270944033426197  0.017579109737019705  1.0000
  C   C88       1.0  0.8396691719055572  0.9192928242075662  0.03551802866798859  1.0000
  C   C89       1.0  0.850731120205124  0.9371568006944966  0.07356804236023073  1.0000
  C   C90       1.0  0.8240843864397901  0.9627471978124655  0.0936942565741834  1.0000
  H   H57       1.0  0.7459219684959367  0.9591572722305223  0.023666647371242577  1.0000
  H   H58       1.0  0.792689917397353  0.9126404506265338  0.9886318695372331  1.0000
  H   H59       1.0  0.880195144932395  0.931607441887815  0.08735002700517591  1.0000
  H   H60       1.0  0.8330483795419603  0.9766411313270209  0.1228828821331199  1.0000
  C   C91       1.0  0.3551905828815122  0.8616066946282702  0.34253615666417786  1.0000
  C   C92       1.0  0.33940184402950696  0.8387762782029846  0.30853920183918415  1.0000
  C   C93       1.0  0.29778460368262816  0.8374347477108297  0.2994014560936094  1.0000
  C   C94       1.0  0.27192827747763637  0.8596612793757225  0.32366879834942325  1.0000
  C   C95       1.0  0.2875448010933918  0.8808683129239065  0.3586646501274229  1.0000
  C   C96       1.0  0.3291541168585027  0.8818201586924672  0.36814862933613335  1.0000
  H   H61       1.0  0.3591790342010967  0.822460354292333  0.28896581819196177  1.0000
  H   H62       1.0  0.285731335799889  0.81990246179871  0.27301362591188827  1.0000
  H   H63       1.0  0.2677411479243761  0.8968485827883831  0.37825863231149265  1.0000
  H   H64       1.0  0.3411616383780535  0.8990795363809404  0.39473809632505524  1.0000
  C   C97       1.0  0.5705220097610189  0.9278580005788523  0.21991712561451393  1.0000
  C   C98       1.0  0.5708553775749524  0.9321613997703823  0.262199760699753  1.0000
  C   C99       1.0  0.6050975073056822  0.9496566164453071  0.28343713306331986  1.0000
  C   C100      1.0  0.6390573308472659  0.9629245672455731  0.26241170150351056  1.0000
  C   C101      1.0  0.6384593490445487  0.9596306028353878  0.22004641482890797  1.0000
  C   C102      1.0  0.6041382575662363  0.9421935248407403  0.19883018944501357  1.0000
  H   H65       1.0  0.544560870087097  0.9224794111803923  0.27849678612272954  1.0000
  H   H66       1.0  0.6053736574447752  0.9525080922767295  0.31619359159655  1.0000
  H   H67       1.0  0.6645474535634973  0.9700149181032884  0.20360083190158537  1.0000
  H   H68       1.0  0.603876136063459  0.9391511968540807  0.1660665239726867  1.0000
  C   C103      1.0  0.2919379200428607  0.8473676688886201  0.8095240495253148  1.0000
  C   C104      1.0  0.3082964587072313  0.869244121370456  0.7768817722752149  1.0000
  C   C105      1.0  0.3346913719278826  0.8491226710254824  0.7515033375550265  1.0000
  C   C106      1.0  0.34413680565695726  0.8067534266993422  0.758114862008099  1.0000
  C   C107      1.0  0.32783051433115645  0.7847972339566948  0.7907824845599072  1.0000
  C   C108      1.0  0.30194363025828574  0.8052263711381623  0.8166539725507176  1.0000
  H   H69       1.0  0.30084199271549544  0.9019313838718265  0.7713377032160723  1.0000
  H   H70       1.0  0.34792194939715376  0.8666467193220407  0.7270511786201013  1.0000
  H   H71       1.0  0.3350851083829255  0.7520306519647737  0.7960386304176659  1.0000
  H   H72       1.0  0.28944319151934217  0.7882623960374571  0.8417955501556696  1.0000
  C   C109      1.0  0.3348956193433445  0.8310726002283461  0.07159536610212869  1.0000
  C   C110      1.0  0.3142387249938886  0.7931917952113949  0.08125946163245867  1.0000
  C   C111      1.0  0.32686163902612836  0.7698934950397313  0.11539770148394157  1.0000
  C   C112      1.0  0.36020375414892436  0.784349455314019  0.13984715520636315  1.0000
  C   C113      1.0  0.3811232852455421  0.8219553005136426  0.12988227142287712  1.0000
  C   C114      1.0  0.3684799934696387  0.8452324867771759  0.09583326738983144  1.0000
  H   H73       1.0  0.28836628221494426  0.7820068836690617  0.06267124988402406  1.0000
  H   H74       1.0  0.3106057479230723  0.7407987297743467  0.12298950672831532  1.0000
  H   H75       1.0  0.4072429595251427  0.8330058561319929  0.1482050575627935  1.0000
  H   H76       1.0  0.38483653714118465  0.8742656129440736  0.08820292555423492  1.0000
  C   C115      1.0  0.08081771827825167  0.8459535239482958  0.9434511182743441  1.0000
  C   C116      1.0  0.041372334324495164  0.8526494852513966  0.9549783320634677  1.0000
  C   C117      1.0  0.00914183004015201  0.8505572074023215  0.9259736596888855  1.0000
  C   C118      1.0  0.01625270034542492  0.8413471834996754  0.8853763888546371  1.0000
  C   C119      1.0  0.05559607278966405  0.8341096696110966  0.8739024182345316  1.0000
  C   C120      1.0  0.08785668932386503  0.8369711602798993  0.9027710755493152  1.0000
  H   H77       1.0  0.035734172750708115  0.859599638459009  0.9864239671536442  1.0000
  H   H78       1.0  0.9788188806681042  0.8558744631888007  0.935152952347855  1.0000
  H   H79       1.0  0.06126613027158068  0.8270471878655826  0.8424998499092917  1.0000
  H   H80       1.0  0.11815672628421628  0.8328620789096962  0.8933606724310539  1.0000
  C   C121      1.0  0.3270409539088112  0.4010603389551412  0.799455180820302  1.0000
  C   C122      1.0  0.2984216102707962  0.3805654171678359  0.7730189631782206  1.0000
  C   C123      1.0  0.2940922301074389  0.3360782393640029  0.7726186360621408  1.0000
  C   C124      1.0  0.31812260710549106  0.31190493726323637  0.7988463584917707  1.0000
  C   C125      1.0  0.3458925793522154  0.3324599237281234  0.8261339099327519  1.0000
  C   C126      1.0  0.35055647365955217  0.37696427409577005  0.8262416762469466  1.0000
  H   H81       1.0  0.2795777814092391  0.39892798085479686  0.7528277756520452  1.0000
  H   H82       1.0  0.2722022174652401  0.3204083092820201  0.7517437109453812  1.0000
  H   H83       1.0  0.36343396705015296  0.31424296779258754  0.8475288032863216  1.0000
  H   H84       1.0  0.37240383598386095  0.39272296030363346  0.8470919407227112  1.0000
  C   C127      1.0  0.23585214916949274  0.6480886469241961  0.8007846086984478  1.0000
  C   C128      1.0  0.24207228404014472  0.6904069161457551  0.8135124185708431  1.0000
  C   C129      1.0  0.23935585082000616  0.7014182769364273  0.854509793692455  1.0000
  C   C130      1.0  0.23016677367757135  0.6702732104642811  0.882938063043591  1.0000
  C   C131      1.0  0.2231515296740585  0.6279576209427525  0.8702103890914576  1.0000
  C   C132      1.0  0.2260593218285498  0.616806669077884  0.8290422078011885  1.0000
  H   H85       1.0  0.24964228488823265  0.7147386799348684  0.791748985131679  1.0000
  H   H86       1.0  0.24477488488726737  0.7340418995313903  0.8641480083675213  1.0000
  H   H87       1.0  0.21554895978100827  0.6038669372371764  0.8921501820648577  1.0000
  H   H88       1.0  0.22061928018207108  0.5841817525023424  0.8191358006235534  1.0000
  C   C133      1.0  0.39117608226328543  0.34474145295839864  0.2544864996800894  1.0000
  C   C134      1.0  0.42620916169936257  0.36106453794326504  0.27503379411955897  1.0000
  C   C135      1.0  0.42785721857527875  0.402686564536342  0.290665381639737  1.0000
  C   C136      1.0  0.394634614036515  0.4283683100226526  0.28533803567528415  1.0000
  C   C137      1.0  0.35964154287049693  0.4121907761440604  0.2645564007513889  1.0000
  C   C138      1.0  0.3577395893881493  0.3702590702538  0.24951783326284172  1.0000
  H   H89       1.0  0.4522281341339886  0.3415161567601801  0.27877006915396035  1.0000
  H   H90       1.0  0.4552280037142354  0.41517558150618333  0.3060092265245955  1.0000
  H   H91       1.0  0.33373793092537163  0.43186766217440936  0.26062068211097483  1.0000
  H   H92       1.0  0.33040741187776995  0.35781133261966463  0.2341247248287154  1.0000
  C   C139      1.0  0.49423382575137703  0.6541571517511826  0.4031627591406913  1.0000
  C   C140      1.0  0.4797581031851718  0.6942556023183721  0.3939600681006825  1.0000
  C   C141      1.0  0.49549547561071144  0.7174820601308856  0.361703496017682  1.0000
  C   C142      1.0  0.5258886607426331  0.700662921647065  0.33891711149199905  1.0000
  C   C143      1.0  0.5416346780675713  0.6614704074973046  0.34938880887035667  1.0000
  C   C144      1.0  0.5256964113687097  0.6381442437246079  0.38142308583898454  1.0000
  H   H93       1.0  0.45530078389816897  0.7064825160348343  0.4107259825901679  1.0000
  H   H94       1.0  0.4838543675069696  0.7481544825729926  0.35423069415854297  1.0000
  H   H95       1.0  0.5654227040598186  0.648570627889659  0.3320685215832569  1.0000
  H   H96       1.0  0.537767229163287  0.6077119867226309  0.3892172744560727  1.0000
  C   C145      1.0  0.39761214623337093  0.4612967537502466  0.5320209011269526  1.0000
  C   C146      1.0  0.37316561161746753  0.44489622841770016  0.5623320773529951  1.0000
  C   C147      1.0  0.354495598943384  0.47256760649548624  0.5888552775889527  1.0000
  C   C148      1.0  0.3603038130185656  0.5166012874512734  0.5849679417694674  1.0000
  C   C149      1.0  0.38512555078702776  0.5328245601510534  0.5549780026215189  1.0000
  C   C150      1.0  0.4038501810688227  0.5052743733369237  0.528685892881093  1.0000
  H   H97       1.0  0.3682848780515934  0.4108981140896285  0.5649986745225575  1.0000
  H   H98       1.0  0.335294194749607  0.4599193606254069  0.6119113177471627  1.0000
  H   H99       1.0  0.3894595545566752  0.566834933247158  0.5517679601270036  1.0000
  H   H100      1.0  0.4228871377613037  0.5181715572868467  0.5056645301898305  1.0000
  C   C151      1.0  0.8373379436962086  0.36875264391492607  0.339228189176847  1.0000
  C   C152      1.0  0.8651122307363125  0.33866197640093093  0.35148681028411516  1.0000
  C   C153      1.0  0.8975166098673998  0.3299539638046491  0.32720810165235464  1.0000
  C   C154      1.0  0.9020371867373311  0.350987716293347  0.2903663551583917  1.0000
  C   C155      1.0  0.8735511148604369  0.38012511399768206  0.27744583729069605  1.0000
  C   C156      1.0  0.8412672573882853  0.38907459465876737  0.30187650071863836  1.0000
  H   H101      1.0  0.8622959950210136  0.32272315969099635  0.38006156401010405  1.0000
  H   H102      1.0  0.91941115790688  0.3072602303111993  0.33730142375129035  1.0000
  H   H103      1.0  0.8768505121673514  0.39663914142243456  0.2492362126745119  1.0000
  H   H104      1.0  0.819739660758502  0.41228709255553636  0.29217262455130466  1.0000
  C   C157      1.0  0.8026596871820367  0.17044775173848253  0.3902025402983141  1.0000
  C   C158      1.0  0.7988863313489025  0.2019791389453614  0.3607511884860855  1.0000
  C   C159      1.0  0.8018473838064198  0.1915947230053967  0.3194784649193749  1.0000
  C   C160      1.0  0.8088918415289665  0.14978255912374427  0.3075312286180248  1.0000
  C   C161      1.0  0.8136344000045658  0.11854803255339696  0.3370870249385324  1.0000
  C   C162      1.0  0.8104175246249281  0.1288245690936205  0.3783032307996385  1.0000
  H   H105      1.0  0.7930847553852725  0.2342224502872294  0.36970507555067644  1.0000
  H   H106      1.0  0.7977959496008307  0.21586862646030716  0.2968429079098555  1.0000
  H   H107      1.0  0.8201654442418075  0.08657415811095559  0.3283564952792177  1.0000
  H   H108      1.0  0.8136237705421111  0.1044366173360578  0.4010547616875087  1.0000
  C   C163      1.0  0.6393004744497505  0.36297151999593164  0.46803216667490366  1.0000
  C   C164      1.0  0.6049286011458906  0.3838816521516538  0.47943125412203164  1.0000
  C   C165      1.0  0.5870654105380846  0.41344030682593813  0.45321440957282055  1.0000
  C   C166      1.0  0.6034422542372044  0.42173106066728777  0.4155004181059014  1.0000
  C   C167      1.0  0.6368751859275619  0.39969023878013504  0.40366597914811886  1.0000
  C   C168      1.0  0.6551980801470436  0.3708875624411424  0.43009053780595313  1.0000
  H   H109      1.0  0.5924017091398311  0.37762746628428734  0.5086818123096258  1.0000
  H   H110      1.0  0.5609931596923391  0.43010172848075834  0.46238563452299464  1.0000
  H   H111      1.0  0.6484751746250123  0.4048024746709379  0.3739039901420311  1.0000
  H   H112      1.0  0.681364220582505  0.3545095885118725  0.42086462504380356  1.0000
  C   C169      1.0  0.8965577471209227  0.3105708964205216  0.8387195434755189  1.0000
  C   C170      1.0  0.8668255414991299  0.3396890145876626  0.8296842770486353  1.0000
  C   C171      1.0  0.8261918599352638  0.3283017126922936  0.8343477699311017  1.0000
  C   C172      1.0  0.815204368358724  0.2883735906765689  0.84951702214321  1.0000
  C   C173      1.0  0.8448400490533107  0.2588045440939788  0.8577998684083294  1.0000
  C   C174      1.0  0.8855894315181201  0.26980364277127294  0.8520932915507544  1.0000
  H   H113      1.0  0.8751426219629289  0.3709468468470188  0.8185501619175296  1.0000
  H   H114      1.0  0.8033372659116714  0.3505177337185298  0.8259107813958871  1.0000
  H   H115      1.0  0.8363946684796858  0.22781197905399383  0.8693938091719254  1.0000
  H   H116      1.0  0.9086134179180703  0.2472843732275251  0.859291579037399  1.0000
  C   C175      1.0  0.13330873794169995  0.3227629421252696  0.7365935973515316  1.0000
  C   C176      1.0  0.1031626496706115  0.35222530102114635  0.7310449486980416  1.0000
  C   C177      1.0  0.11230565631025248  0.39195964607123207  0.7140547265223937  1.0000
  C   C178      1.0  0.15184386509291584  0.4028918485036201  0.703737177714128  1.0000
  C   C179      1.0  0.18244114496603833  0.3742336192471316  0.7111085450451458  1.0000
  C   C180      1.0  0.17306610367988942  0.3340025166873803  0.7271057797111727  1.0000
  H   H117      1.0  0.07272687367316899  0.34430264359017904  0.7393273975830829  1.0000
  H   H118      1.0  0.08874672414131506  0.41440318290419514  0.7089711384128733  1.0000
  H   H119      1.0  0.21299515048771267  0.3824863114888138  0.703048641470265  1.0000
  H   H120      1.0  0.19651470512459354  0.311293273274836  0.7313039701509392  1.0000
  C   C181      1.0  0.9156955727763403  0.24798618354064528  0.6379697051128671  1.0000
  C   C182      1.0  0.9164152041947863  0.2898793535572379  0.6525698658726279  1.0000
  C   C183      1.0  0.894238205424872  0.32062215756803186  0.6317005761510992  1.0000
  C   C184      1.0  0.8715507005450877  0.30963171456677746  0.5960757263963595  1.0000
  C   C185      1.0  0.87124544449087  0.26789970691550374  0.5812719096751346  1.0000
  C   C186      1.0  0.8932859816768375  0.2371754816812786  0.6021920999990357  1.0000
  H   H121      1.0  0.9336242706525251  0.2985851319572938  0.6801189233338059  1.0000
  H   H122      1.0  0.8945551905137066  0.3529470855186399  0.6431985933384594  1.0000
  H   H123      1.0  0.8539485091654825  0.25920485834776724  0.5536945652997523  1.0000
  H   H124      1.0  0.8927157969254487  0.2048372147428437  0.5906784922983438  1.0000
  C   C187      1.0  0.9671636585565113  0.09275283700216204  0.8408650733188753  1.0000
  C   C188      1.0  0.9653042963843331  0.06016766264864781  0.8694746959769756  1.0000
  C   C189      1.0  0.9312428099845056  0.032584490134172306  0.8702529102276164  1.0000
  C   C190      1.0  0.8986595796545501  0.037782694545219986  0.842708989652241  1.0000
  C   C191      1.0  0.9001167559053295  0.07096561433258429  0.8146991185894419  1.0000
  C   C192      1.0  0.9345229407352637  0.09812582560636861  0.813447969848173  1.0000
  H   H125      1.0  0.9903902022637315  0.05618899876842187  0.8909674614068217  1.0000
  H   H126      1.0  0.9303311943577209  0.007582811199317474  0.8923388070860447  1.0000
  H   H127      1.0  0.874966258312401  0.07510950160927841  0.7933328976526864  1.0000
  H   H128      1.0  0.9360726079074172  0.12259565935464997  0.7907473489016665  1.0000
  N   N1        1.0  0.30141127992381084  0.9068438728445892  0.19024047419773593  1.0000
  C   C193      1.0  0.3093756855932498  0.9209717811521614  0.23282381605371194  1.0000
  C   C194      1.0  0.3351845102131748  0.9214130226873459  0.16531406595918763  1.0000
  C   C195      1.0  0.26359304578961507  0.9250876207425329  0.17430521786347808  1.0000
  C   C196      1.0  0.29737184671265277  0.8599159264846774  0.1884409629899968  1.0000
  H   H129      1.0  0.2839945478796059  0.9112586320520148  0.2522547062051379  1.0000
  H   H130      1.0  0.31321977163863274  0.9561950641381527  0.235271343127901  1.0000
  H   H131      1.0  0.3372476153147435  0.9071102190023024  0.24622396527985657  1.0000
  H   H132      1.0  0.32945509424966496  0.9123763517517791  0.13275829423738594  1.0000
  H   H133      1.0  0.3398980686831217  0.9565972231824247  0.16681215293078555  1.0000
  H   H134      1.0  0.36397757742252046  0.90708332914483  0.17564567790600538  1.0000
  H   H135      1.0  0.25649958154666297  0.9148304814011315  0.1422711342513059  1.0000
  H   H136      1.0  0.26565636454569264  0.9604948833490851  0.17501614306683777  1.0000
  H   H137      1.0  0.2375235191307155  0.9148818978648952  0.19264010754105976  1.0000
  H   H138      1.0  0.29239119941703773  0.8481361768961139  0.15658083291542724  1.0000
  H   H139      1.0  0.27149318494927144  0.8478574582222553  0.20605233851345162  1.0000
  H   H140      1.0  0.32502277992369966  0.844936608038751  0.2011054433117485  1.0000
  N   N2        1.0  0.9270450174967418  0.49195448296581956  0.3276428348619939  1.0000
  C   C197      1.0  0.9086828244133249  0.5319564549327246  0.3397551384413995  1.0000
  C   C198      1.0  0.9154424006835349  0.4819727853434266  0.2847183576584294  1.0000
  C   C199      1.0  0.9127113058402471  0.45702190726160424  0.3537561895957748  1.0000
  C   C200      1.0  0.9714533231549638  0.4969156682069962  0.3322815315021462  1.0000
  H   H141      1.0  0.8751776705965751  0.5296505315306925  0.3361996677620639  1.0000
  H   H142      1.0  0.9193079393641161  0.5589686268472593  0.3208621659297871  1.0000
  H   H143      1.0  0.9165067938883168  0.5404264343725383  0.37206774090358014  1.0000
  H   H144      1.0  0.9301248221779793  0.4529128444309326  0.273969603759546  1.0000
  H   H145      1.0  0.8822446133867103  0.4766786643108882  0.28015993859722566  1.0000
  H   H146      1.0  0.924574051426614  0.5083182136622637  0.26437163894608373  1.0000
  H   H147      1.0  0.925085447520166  0.4260852848316962  0.3446650919377075  1.0000
  H   H148      1.0  0.8792215676687424  0.4531596413629975  0.3518967718935257  1.0000
  H   H149      1.0  0.9218246873144057  0.4629884614817514  0.38623485490195236  1.0000
  H   H150      1.0  0.9832192243161262  0.5232421407058494  0.3132104061429876  1.0000
  H   H151      1.0  0.9863121272739104  0.46743358408467334  0.32294243535326433  1.0000
  H   H152      1.0  0.9814037943136836  0.5044900241640607  0.3642592611008198  1.0000
  N   N3        1.0  0.3571977774531483  0.3635584083534787  0.39833655051782363  1.0000
  C   C201      1.0  0.33587221316070215  0.34371826008671424  0.3623017150665255  1.0000
  C   C202      1.0  0.335773651656748  0.3520996071654023  0.43537754041826626  1.0000
  C   C203      1.0  0.3585214705163009  0.4102638234223197  0.39397474569252666  1.0000
  C   C204      1.0  0.3987784604883009  0.3483143615118266  0.4017370991576236  1.0000
  H   H153      1.0  0.351574627927306  0.35177742204541945  0.33400166204248116  1.0000
  H   H154      1.0  0.3044857206056002  0.35474031250694127  0.35838830877560274  1.0000
  H   H155      1.0  0.3342847372659188  0.3084259602934486  0.36441817386164616  1.0000
  H   H156      1.0  0.3514196240859262  0.3667018501029507  0.4630101825661244  1.0000
  H   H157      1.0  0.3043997843727724  0.36346138686549906  0.43397546694512956  1.0000
  H   H158      1.0  0.33413989407607114  0.317077974083184  0.4397545075412184  1.0000
  H   H159      1.0  0.37348376433740205  0.42631750975805005  0.4210969331084182  1.0000
  H   H160      1.0  0.32776888778445534  0.42290589204965967  0.39005759675973706  1.0000
  H   H161      1.0  0.37560464419626993  0.42020251635500366  0.3671628685179119  1.0000
  H   H162      1.0  0.41593265010323655  0.36304308647310085  0.4284003932356256  1.0000
  H   H163      1.0  0.41572976236334913  0.356203540932559  0.37411144327008555  1.0000
  H   H164      1.0  0.3989735488823869  0.3132259387714614  0.40542034289343354  1.0000
  N   N4        1.0  0.8421816614968298  0.8271450224247978  0.14177127246738744  1.0000
  C   C205      1.0  0.8077829039304003  0.796047819471619  0.14303526480127257  1.0000
  C   C206      1.0  0.8745066628338809  0.814540335417643  0.1708977689858247  1.0000
  C   C207      1.0  0.8286948181735881  0.8697836731034665  0.15288265466584733  1.0000
  C   C208      1.0  0.8576809569041333  0.8281447346500235  0.10036060534438221  1.0000
  H   H165      1.0  0.7827092259939005  0.8047612862211749  0.12156321675367862  1.0000
  H   H166      1.0  0.795644585302774  0.7942658403011815  0.17406033075425834  1.0000
  H   H167      1.0  0.8168704474959892  0.7635229468217362  0.13468599073721407  1.0000
  H   H168      1.0  0.9002723719419832  0.8382760160269848  0.17218874915126353  1.0000
  H   H169      1.0  0.8632106985890214  0.8118151697546249  0.2020666567377255  1.0000
  H   H170      1.0  0.8863696205364686  0.7831182125191052  0.16275249773832143  1.0000
  H   H171      1.0  0.8051528346695621  0.8809524122398683  0.13081999338322936  1.0000
  H   H172      1.0  0.8541699449960186  0.8938706762438436  0.1538405538021791  1.0000
  H   H173      1.0  0.8157141329657459  0.8698980055108205  0.1834133644605603  1.0000
  H   H174      1.0  0.8835719866014006  0.8514401180828056  0.09818811620877425  1.0000
  H   H175      1.0  0.8340599320764993  0.8374906499924563  0.07749974294619588  1.0000
  H   H176      1.0  0.8682481614677567  0.79659803966774  0.09083541819064037  1.0000
  N   N5        1.0  0.12875243845689255  0.18278474226349306  0.2222307125362671  1.0000
  C   C209      1.0  0.12151401268949269  0.21268522513271768  0.18853933061858622  1.0000
  C   C210      1.0  0.08969554444890182  0.16788591642351608  0.23796551715936776  1.0000
  C   C211      1.0  0.15316052651838086  0.20467792332979293  0.25516641597303424  1.0000
  C   C212      1.0  0.15055491538762644  0.14593788017519854  0.20747251282114698  1.0000
  H   H177      1.0  0.15032740568689262  0.2258949983032577  0.17701130968811393  1.0000
  H   H178      1.0  0.10433355772476727  0.24039573902711112  0.1984602255755453  1.0000
  H   H179      1.0  0.10426498825191666  0.19715373905529363  0.16247674534521014  1.0000
  H   H180      1.0  0.09412702663075323  0.14510455649546775  0.26335041663115655  1.0000
  H   H181      1.0  0.07274137182147467  0.19494796550219531  0.24972887383536532  1.0000
  H   H182      1.0  0.0703781148084035  0.15148945718869114  0.21380461247736277  1.0000
  H   H183      1.0  0.1572514527876283  0.18398852880715985  0.28207534725401495  1.0000
  H   H184      1.0  0.13893766121542406  0.23423157725145213  0.2653195516067794  1.0000
  H   H185      1.0  0.1837514251072665  0.21422762355647038  0.2450222427629311  1.0000
  H   H186      1.0  0.15561750879241654  0.12229928627176567  0.23197208738617658  1.0000
  H   H187      1.0  0.18082252584895908  0.15575997792293622  0.19662591768635343  1.0000
  H   H188      1.0  0.13370142929284312  0.129268365939178  0.1817961402800845  1.0000
  N   N6        1.0  0.20060439904009944  0.24632454107748977  0.8490837257318765  1.0000
  C   C213      1.0  0.20704169693603175  0.29032758659819463  0.8347300803820256  1.0000
  C   C214      1.0  0.20436419768563902  0.21618073161373444  0.8149147922068484  1.0000
  C   C215      1.0  0.15975810242280858  0.24133975554198497  0.8651040258422203  1.0000
  C   C216      1.0  0.23127537878611132  0.23751408834334847  0.8814631337841855  1.0000
  H   H189      1.0  0.23724796066788187  0.29500141271916724  0.8218402737852836  1.0000
  H   H190      1.0  0.20490334770040008  0.31393884243300196  0.8597658798645971  1.0000
  H   H191      1.0  0.18432664187642092  0.29827140383037426  0.8105034185948786  1.0000
  H   H192      1.0  0.19966019979231617  0.18267604054663727  0.8246312968671052  1.0000
  H   H193      1.0  0.1819081668147572  0.2220375817254865  0.789796919904027  1.0000
  H   H194      1.0  0.23469691498742298  0.21914036856209615  0.8018793786928381  1.0000
  H   H195      1.0  0.15572576994128134  0.2636710864885327  0.8908565053101097  1.0000
  H   H196      1.0  0.1536721088695865  0.20847456384838456  0.8760924886243981  1.0000
  H   H197      1.0  0.1360736684022258  0.24787236369742358  0.8411963339145216  1.0000
  H   H198      1.0  0.2294205572043062  0.2596553984965358  0.9077856979153186  1.0000
  H   H199      1.0  0.26240443808038205  0.2411554443813444  0.8701175156302671  1.0000
  H   H200      1.0  0.22753473855443818  0.20452421022221853  0.8929799175200775  1.0000
  N   N7        1.0  0.6811379520583561  0.10548684493236316  0.3417859886163284  1.0000
  C   C217      1.0  0.7038902348422194  0.12698207291680208  0.37610033364150863  1.0000
  C   C218      1.0  0.6510948282172218  0.13443348516353382  0.3243241795042383  1.0000
  C   C219      1.0  0.6602972762320743  0.06651287448141607  0.356314511292675  1.0000
  C   C220      1.0  0.7092654486195615  0.09395852212492817  0.31023415047774106  1.0000
  H   H201      1.0  0.7200027280103254  0.15650604384332678  0.3661455414344288  1.0000
  H   H202      1.0  0.7270047851864224  0.10616999368972135  0.38996530968826465  1.0000
  H   H203      1.0  0.6837462518766807  0.13623214890308422  0.4005911144093727  1.0000
  H   H204      1.0  0.6335354844960687  0.11921171941019537  0.2981969014624272  1.0000
  H   H205      1.0  0.6292598862881393  0.1437150014355013  0.3472675314563222  1.0000
  H   H206      1.0  0.6659212095697085  0.16416066014353703  0.313088461262999  1.0000
  H   H207      1.0  0.6422114005061097  0.04998033127369528  0.3312369958195168  1.0000
  H   H208      1.0  0.6394835010325017  0.07368400810556808  0.3808605750417395  1.0000
  H   H209      1.0  0.6822534752150142  0.043312958429561954  0.368327444099127  1.0000
  H   H210      1.0  0.7325400665601367  0.07236150901107319  0.3224226818360591  1.0000
  H   H211      1.0  0.7253322802546678  0.12249686717982033  0.29807368372906395  1.0000
  H   H212      1.0  0.693077627777982  0.07707099424643937  0.2842191853066035  1.0000
  N   N8        1.0  0.7297531675165578  0.4902202487375219  0.39299905067692403  1.0000
  C   C221      1.0  0.7289586155029466  0.5325733611550686  0.3739887091228632  1.0000
  C   C222      1.0  0.7701779302071722  0.48372709561250343  0.4119086086306785  1.0000
  C   C223      1.0  0.7205879673818618  0.45706220024976585  0.36163589209895475  1.0000
  C   C224      1.0  0.6992471342577814  0.4874488016320813  0.42442124522631725  1.0000
  H   H213      1.0  0.7340906720763176  0.5583897371055051  0.3970316891775718  1.0000
  H   H214      1.0  0.6992645205073003  0.5377747079800654  0.3582010434822036  1.0000
  H   H215      1.0  0.7528266010669034  0.536604413374585  0.35141906866416917  1.0000
  H   H216      1.0  0.7782837891121354  0.5081412915529859  0.435647338805338  1.0000
  H   H217      1.0  0.7717730205935011  0.4519235719017773  0.4263234796691953  1.0000
  H   H218      1.0  0.7939688115920152  0.4855685744327555  0.38908038092941083  1.0000
  H   H219      1.0  0.69036992377224  0.46103436852363594  0.3464731750447592  1.0000
  H   H220      1.0  0.7207599073086014  0.42467838444927497  0.3750403482728063  1.0000
  H   H221      1.0  0.7434144159492564  0.457786436748807  0.3378055849139695  1.0000
  H   H222      1.0  0.6990626382188627  0.4559325300089785  0.43953014196544615  1.0000
  H   H223      1.0  0.6682786243783297  0.49178437610082737  0.4110792786881635  1.0000
  H   H224      1.0  0.705095839952896  0.5122771787746798  0.44840881133952465  1.0000
  N   N9        1.0  0.7657043416230057  0.621587608619679  0.8078970790265074  1.0000
  C   C225      1.0  0.7662064201777451  0.5819888589425147  0.8317277537502902  1.0000
  C   C226      1.0  0.7248214860945253  0.6386743141246927  0.8076439643249188  1.0000
  C   C227      1.0  0.7765021846610689  0.6123232347403815  0.765765015627195  1.0000
  C   C228      1.0  0.7951822946488263  0.6532295023671597  0.8263043267155753  1.0000
  H   H225      1.0  0.7962708806287607  0.5673829891816068  0.8317631045806255  1.0000
  H   H226      1.0  0.7438780192330374  0.557633913172246  0.8189022924127438  1.0000
  H   H227      1.0  0.7588242385449191  0.5876503301889089  0.8639105075981055  1.0000
  H   H228      1.0  0.7232224764853042  0.6683290456795544  0.789660751657714  1.0000
  H   H229      1.0  0.7018996316461255  0.6154517766453111  0.7939377469299678  1.0000
  H   H230      1.0  0.7157200150623863  0.6461927458901406  0.8389612203914822  1.0000
  H   H231      1.0  0.8066221729607779  0.5980421724370734  0.7647800640843492  1.0000
  H   H232      1.0  0.7775941547480869  0.641607983867414  0.7470897377659691  1.0000
  H   H233      1.0  0.7541386096782563  0.5895731352867322  0.7506215570152459  1.0000
  H   H234      1.0  0.7958271414617138  0.6833518841809921  0.8087757562297827  1.0000
  H   H235      1.0  0.82629854937614  0.6411580595945698  0.8270992734463655  1.0000
  H   H236      1.0  0.7877927927348229  0.6614253233677355  0.858006101199523  1.0000
  N   N10       1.0  0.440173798125186  0.8218642791779481  0.46691369425290014  1.0000
  C   C229      1.0  0.4734714281472156  0.8488135040728503  0.48555160011177834  1.0000
  C   C230      1.0  0.40468395062625273  0.8479599474838667  0.45857415437734755  1.0000
  C   C231      1.0  0.4292965352923233  0.7873545114677509  0.4950456889410977  1.0000
  C   C232      1.0  0.45330938916240726  0.8033467987707148  0.42850673098399933  1.0000
  H   H237      1.0  0.5004546108641224  0.8299777848549538  0.49317679932542463  1.0000
  H   H238      1.0  0.46453830585903455  0.8637801275033675  0.5143344275260645  1.0000
  H   H239      1.0  0.48282105079602106  0.8748819267654669  0.4649389637953111  1.0000
  H   H240      1.0  0.4120641793059092  0.8750979806424661  0.438425905021766  1.0000
  H   H241      1.0  0.3793383081937468  0.8289395697043003  0.4433022403792091  1.0000
  H   H242      1.0  0.39307790427994926  0.861161130496876  0.4870360526774104  1.0000
  H   H243      1.0  0.40350715772852436  0.7670621843017605  0.48235495533085065  1.0000
  H   H244      1.0  0.41994555713718723  0.8003863433154114  0.5245457091250054  1.0000
  H   H245      1.0  0.45514309151489546  0.7666560300529076  0.5017369674733998  1.0000
  H   H246      1.0  0.46317121733066113  0.8285680696581984  0.40720146279104247  1.0000
  H   H247      1.0  0.4283352078425888  0.7844215713590733  0.4125678955081862  1.0000
  H   H248      1.0  0.47914349501124853  0.7822899561593665  0.433853932171872  1.0000
  N   N11       1.0  0.1012927629567022  0.7037658506686472  0.9256931974216003  1.0000
  C   C233      1.0  0.11802229627872851  0.7144441982621097  0.8859831091560701  1.0000
  C   C234      1.0  0.0579932991129426  0.7133419660761872  0.9249319791539081  1.0000
  C   C235      1.0  0.12292693980982072  0.7292747383923817  0.9581258430439342  1.0000
  C   C236      1.0  0.1064012162745771  0.6581151119736554  0.9337755400786691  1.0000
  H   H249      1.0  0.11422907560792872  0.7485483032422662  0.8785860636579171  1.0000
  H   H250      1.0  0.10292321615432454  0.6951970513570328  0.8608842123364718  1.0000
  H   H251      1.0  0.1508657403100757  0.7083740726234291  0.8857588737780855  1.0000
  H   H252      1.0  0.05343869374265742  0.7478017032773604  0.9194509444505747  1.0000
  H   H253      1.0  0.040677749429965715  0.6951517867538602  0.9004650563307649  1.0000
  H   H254      1.0  0.044286442698969086  0.7054495666355951  0.9543361367669587  1.0000
  H   H255      1.0  0.15556732117273953  0.7224199911685616  0.9601980035015341  1.0000
  H   H256      1.0  0.11055971015461252  0.7228766353558864  0.9884408403326947  1.0000
  H   H257      1.0  0.12059097768582316  0.7638330216423012  0.9525200808284278  1.0000
  H   H258      1.0  0.09452036371986461  0.6489400918968682  0.9636966398771094  1.0000
  H   H259      1.0  0.1389325877815062  0.6502299846758068  0.9343253863775307  1.0000
  H   H260      1.0  0.09046285298576473  0.637754666662752  0.9099786467259534  1.0000
  N   N12       1.0  0.40588080550684774  0.33902910431317507  0.11441047172024824  1.0000
  C   C237      1.0  0.4427207720665287  0.3559237032510835  0.0955804688387253  1.0000
  C   C238      1.0  0.39600180286086717  0.36694169019155176  0.1486128576921626  1.0000
  C   C239      1.0  0.4128376104760353  0.29579913833721355  0.12968806923718237  1.0000
  C   C240      1.0  0.37196178354688425  0.3373197365915848  0.08383718514772844  1.0000
  H   H261      1.0  0.45097327918966096  0.3354031445524304  0.06972962471605437  1.0000
  H   H262      1.0  0.4688528336383517  0.3575799629190721  0.11792173236943553  1.0000
  H   H263      1.0  0.4385014772592843  0.3885082681617099  0.08364343907004929  1.0000
  H   H264      1.0  0.3682732005441133  0.3550237453943308  0.16332643370487349  1.0000
  H   H265      1.0  0.4205971400061026  0.36831930330682117  0.17269551510830267  1.0000
  H   H266      1.0  0.39069904466683936  0.39996035175352596  0.13850091518928317  1.0000
  H   H267      1.0  0.4374971681638821  0.2958772260899228  0.1536666721580509  1.0000
  H   H268      1.0  0.42077102129262217  0.27378518267051644  0.10491233625057654  1.0000
  H   H269      1.0  0.38544911816129546  0.28207369274993394  0.14366709370937422  1.0000
  H   H270      1.0  0.3438604173929232  0.3237408923783909  0.09676685984286133  1.0000
  H   H271      1.0  0.37852900105003334  0.31696771295385034  0.0572987949702386  1.0000
  H   H272      1.0  0.3650914927912909  0.36942648934719746  0.07220971912900676  1.0000
  N   N13       1.0  0.29612732546698556  0.6984445113986858  0.6557309534980597  1.0000
  C   C241      1.0  0.30039917562054413  0.7449808039021707  0.6505973419654019  1.0000
  C   C242      1.0  0.313795993044997  0.6766763325802964  0.621127008682972  1.0000
  C   C243      1.0  0.25291412257509016  0.6857782114540397  0.6573339864201198  1.0000
  C   C244      1.0  0.31742796160316294  0.6862946844657858  0.6939417424309504  1.0000
  H   H273      1.0  0.3326341742849039  0.7554302443572362  0.6490792399636032  1.0000
  H   H274      1.0  0.28813576353549397  0.7623706399565965  0.6766962251506022  1.0000
  H   H275      1.0  0.2845234297370916  0.7555392673075668  0.622217896533615  1.0000
  H   H276      1.0  0.3464935945675493  0.685237008428403  0.619263952583259  1.0000
  H   H277      1.0  0.3108668625848991  0.6414305348719873  0.624024487416044  1.0000
  H   H278      1.0  0.29864266478287776  0.6852839680543026  0.591726299858752  1.0000
  H   H279      1.0  0.23575920053727187  0.6948187785095906  0.6292094408932069  1.0000
  H   H280      1.0  0.23886190052585443  0.7010018390658541  0.683642735458842  1.0000
  H   H281      1.0  0.2486262671779926  0.6507565309839437  0.6609815269105774  1.0000
  H   H282      1.0  0.31458087109851873  0.6513878133378235  0.6989088099403635  1.0000
  H   H283      1.0  0.304953330277413  0.702297947645904  0.7207311261445078  1.0000
  H   H284      1.0  0.35013493317473277  0.6954468591372629  0.6938464452886948  1.0000
  N   N14       1.0  0.8261760949153549  0.23382042800292588  0.7276586940070324  1.0000
  C   C245      1.0  0.8340465457574497  0.19717509090204552  0.7542587514283016  1.0000
  C   C246      1.0  0.7878152231367387  0.2527045264492804  0.7382365447137025  1.0000
  C   C247      1.0  0.8235900861302927  0.21940932052222126  0.6847709142561519  1.0000
  C   C248      1.0  0.8594595279307227  0.26603229931241296  0.7334242671201419  1.0000
  H   H285      1.0  0.8628078379213436  0.1821772305780864  0.7469947433881673  1.0000
  H   H286      1.0  0.8094392405905545  0.17226425370438647  0.7509391191316513  1.0000
  H   H287      1.0  0.8365641017263096  0.2070184335137822  0.7868261137718096  1.0000
  H   H288      1.0  0.7619450485742097  0.22931268731516136  0.7344438836253384  1.0000
  H   H289      1.0  0.7888193152101088  0.2638201434630018  0.7704578030538394  1.0000
  H   H290      1.0  0.7811420442966959  0.28065694459771523  0.718968873502988  1.0000
  H   H291      1.0  0.8197891360714703  0.24654641883306774  0.6636152580102704  1.0000
  H   H292      1.0  0.7978594651766137  0.19624847293499634  0.6788162432095789  1.0000
  H   H293      1.0  0.8515238709487706  0.20341986450826974  0.6764487986768887  1.0000
  H   H294      1.0  0.8625829565235655  0.2773058106655633  0.7654561446547635  1.0000
  H   H295      1.0  0.8545658224742866  0.29436648437865015  0.7140991164368146  1.0000
  H   H296      1.0  0.8887994911306744  0.25288070301398746  0.725577490252653  1.0000
  N   N15       1.0  0.9494584606015524  0.9946211128567284  0.3335165067962011  1.0000
  C   C249      1.0  0.9309914387062198  0.9552479502737196  0.34992001637629305  1.0000
  C   C250      1.0  0.9176933067215524  0.025448486916578528  0.3250892112209191  1.0000
  C   C251      1.0  0.9694956932025445  0.9848504661443586  0.2954581980693523  1.0000
  C   C252      1.0  0.9797225143561162  0.01281201046876479  0.3636161893125205  1.0000
  H   H297      1.0  0.9541467146708152  0.9316361848046993  0.3572649038037205  1.0000
  H   H298      1.0  0.9087701545537671  0.9398606354014543  0.3277540002163843  1.0000
  H   H299      1.0  0.9150547804000826  0.9615341025851102  0.37825884611995914  1.0000
  H   H300      1.0  0.9018859208500295  0.033630045954816  0.353091971403173  1.0000
  H   H301      1.0  0.9304016870985067  0.05553501845208619  0.31249424198073666  1.0000
  H   H302      1.0  0.894450628658416  0.012298222454319996  0.30251175667011904  1.0000
  H   H303      1.0  0.9933443622716048  0.9613769462790797  0.30049585304394105  1.0000
  H   H304      1.0  0.9839815323039424  0.01378281133255177  0.2824315273560154  1.0000
  H   H305      1.0  0.9477688898218481  0.970962368954647  0.27199954042134483  1.0000
  H   H306      1.0  0.994456054065126  0.042530157077817154  0.3523710888114999  1.0000
  H   H307      1.0  0.004078544275172957  0.9900676377073433  0.3703786719065942  1.0000
  H   H308      1.0  0.9658473895945223  0.02036656072297216  0.39286281839001225  1.0000
  N   N16       1.0  0.30093176271607885  0.9869631180343854  0.5327811734924408  1.0000
  C   C253      1.0  0.2850519077847154  0.9658532878889058  0.5690580142885011  1.0000
  C   C254      1.0  0.3440975787328102  0.9987457188094871  0.5404514493863644  1.0000
  C   C255      1.0  0.27815757960873305  0.025581027198312567  0.5242154247526352  1.0000
  C   C256      1.0  0.2962878726367327  0.9577075306675663  0.49743690086526593  1.0000
  H   H309      1.0  0.3008559080671509  0.9359873382922284  0.5759505305351584  1.0000
  H   H310      1.0  0.25224093081715065  0.9575652955334324  0.564756548064331  1.0000
  H   H311      1.0  0.2893034321199434  0.986558390579426  0.5966085622886359  1.0000
  H   H312      1.0  0.3574286421755176  0.014151758139714588  0.5136087073533319  1.0000
  H   H313      1.0  0.34859729542320456  0.021253807971972627  0.566662964631436  1.0000
  H   H314      1.0  0.36185142767857337  0.9703557201379036  0.5481396809406676  1.0000
  H   H315      1.0  0.2808846476129136  0.04833644961783845  0.5503075176479526  1.0000
  H   H316      1.0  0.24539986473281497  0.0175585525839832  0.5183329748534795  1.0000
  H   H317      1.0  0.28917657272881025  0.04226094435763539  0.4969092765502063  1.0000
  H   H318      1.0  0.26388935302662586  0.9504770399894648  0.48930517156842795  1.0000
  H   H319      1.0  0.3107237766906693  0.9269308174626854  0.5037115490394831  1.0000
  H   H320      1.0  0.3098355359106985  0.9716685848841786  0.46999821995499735  1.0000
  N   N17       1.0  0.5559389386959432  0.2419674863139532  0.9209552573557251  1.0000
  C   C257      1.0  0.5196977275122076  0.2611855377765728  0.9025933308966314  1.0000
  C   C258      1.0  0.5474243504287118  0.19608383676211846  0.9271301831078484  1.0000
  C   C259      1.0  0.5665980978690175  0.26291561121600215  0.9604428522600321  1.0000
  C   C260      1.0  0.5898166957205555  0.24779215449481423  0.8935220457133181  1.0000
  H   H321      1.0  0.5251138753525172  0.2956859115300728  0.8969147086915232  1.0000
  H   H322      1.0  0.49359861946624295  0.2579457293960749  0.9226238700513018  1.0000
  H   H323      1.0  0.5104674439485927  0.24551985799077136  0.873100523192658  1.0000
  H   H324      1.0  0.5213905712366996  0.1906089489535948  0.9470382393648665  1.0000
  H   H325      1.0  0.5395635626797752  0.17937828494950445  0.8977700072500425  1.0000
  H   H326      1.0  0.573877862885446  0.18046354878665863  0.9414386662353676  1.0000
  H   H327      1.0  0.5939138997804697  0.24927047734894997  0.9751911393254044  1.0000
  H   H328      1.0  0.5415138597884331  0.25911393585657844  0.9817393859890866  1.0000
  H   H329      1.0  0.5730872093692803  0.29763256938998384  0.9566827451474322  1.0000
  H   H330      1.0  0.5967281070789864  0.282131932224953  0.8879175681661031  1.0000
  H   H331      1.0  0.5826664793765881  0.23231465475851856  0.863422940867691  1.0000
  H   H332      1.0  0.6178702505366163  0.23393607306927935  0.9063917844398414  1.0000
  N   N18       1.0  0.419159329116206  0.3279328751434715  0.7164084028903144  1.0000
  C   C261      1.0  0.4174324983432158  0.3071108053494932  0.675980339163583  1.0000
  C   C262      1.0  0.389232408008001  0.36155719250230756  0.7171430368614686  1.0000
  C   C263      1.0  0.46004844029344844  0.34696433925275943  0.7249909455220721  1.0000
  C   C264      1.0  0.40995800778504854  0.29593297987299216  0.7475916008863897  1.0000
  H   H333      1.0  0.3869454930523182  0.2923861312456623  0.6686463366421771  1.0000
  H   H334      1.0  0.43957026843750546  0.2814120356765521  0.6746269648104789  1.0000
  H   H335      1.0  0.42434134975143545  0.3302451529174949  0.6515985609295084  1.0000
  H   H336      1.0  0.3902739046306273  0.3784036112604902  0.7470442940174827  1.0000
  H   H337      1.0  0.3946830603764138  0.38593303662454437  0.6934902722352084  1.0000
  H   H338      1.0  0.3579080704296112  0.34816710413832236  0.7118421525456718  1.0000
  H   H339      1.0  0.46817098862362994  0.37113328653529637  0.7019480594614353  1.0000
  H   H340      1.0  0.48335988039319505  0.32234659697923057  0.7250493044352372  1.0000
  H   H341      1.0  0.46237411175823434  0.36303020888807075  0.7552921943544179  1.0000
  H   H342      1.0  0.41034750541208703  0.31064744521773896  0.7783845550464745  1.0000
  H   H343      1.0  0.43231911402094797  0.27037590964972014  0.748358205948377  1.0000
  H   H344      1.0  0.3795142733934908  0.28042300271632004  0.7418768591838023  1.0000
  N   N19       1.0  0.07025866370117284  0.7476654152870125  0.33336568221683743  1.0000
  C   C265      1.0  0.05568924510889994  0.7405776954503722  0.37465762004095965  1.0000
  C   C266      1.0  0.054245512689718334  0.712962562352343  0.30604035987411593  1.0000
  C   C267      1.0  0.11486803828372194  0.7484363344904883  0.3347494976529241  1.0000
  C   C268      1.0  0.05621666794160318  0.7888271524538543  0.3181076361604803  1.0000
  H   H345      1.0  0.06541806322241883  0.7096872322722708  0.3871421855078692  1.0000
  H   H346      1.0  0.022130988235379512  0.7401696269706777  0.37482410642454855  1.0000
  H   H347      1.0  0.06727237831546984  0.7661062189202108  0.39613054914571577  1.0000
  H   H348      1.0  0.020653065369690138  0.7117227925839908  0.3040579242715775  1.0000
  H   H349      1.0  0.06483163478581777  0.7169168554965005  0.274639467936198  1.0000
  H   H350      1.0  0.06363196585187536  0.6812642300920371  0.3169321031268526  1.0000
  H   H351      1.0  0.12663645404330004  0.7178843709299143  0.34608589216205976  1.0000
  H   H352      1.0  0.12785683397150804  0.7743167561656746  0.3551797969687607  1.0000
  H   H353      1.0  0.1269536943627958  0.754108570033547  0.30413965448359137  1.0000
  H   H354      1.0  0.06612620736867725  0.7951067685719317  0.2867956399520105  1.0000
  H   H355      1.0  0.06837309204265551  0.8157545562570689  0.3376719040698622  1.0000
  H   H356      1.0  0.02270766178767647  0.789883188979937  0.3175055351652722  1.0000
  N   N20       1.0  0.051403403813170545  0.3084379952874488  0.6202657968502419  1.0000
  C   C269      1.0  0.04043216809739891  0.3492660392024569  0.6385185020821117  1.0000
  C   C270      1.0  0.015627853224424282  0.2789995262711704  0.6178213695677155  1.0000
  C   C271      1.0  0.08362501587014926  0.28948904169597417  0.6457259026825471  1.0000
  C   C272      1.0  0.06595036215827821  0.3160153090245909  0.5790627169644071  1.0000
  H   H357      1.0  0.06663094246177992  0.37250821102544635  0.6402400726455286  1.0000
  H   H358      1.0  0.030127158073284477  0.3449267607656986  0.6699894485041707  1.0000
  H   H359      1.0  0.015590906485155598  0.36406876589076104  0.6205770704296933  1.0000
  H   H360      1.0  0.022585173605745856  0.24775327160292068  0.6042520028348117  1.0000
  H   H361      1.0  0.004210121072724782  0.2724282269988424  0.6484901006282955  1.0000
  H   H362      1.0  0.9903638325157678  0.29223617613944375  0.5992077214329588  1.0000
  H   H363      1.0  0.09319149079965472  0.25894729488439117  0.6326787727223284  1.0000
  H   H364      1.0  0.07334096368346987  0.28253158910865445  0.6767955434048013  1.0000
  H   H365      1.0  0.11084016305717448  0.311244756691663  0.6491926015697287  1.0000
  H   H366      1.0  0.07452055890358866  0.2858671995707867  0.564385809787239  1.0000
  H   H367      1.0  0.09298442278103058  0.33814910064445347  0.5799772410094346  1.0000
  H   H368      1.0  0.04232479925922705  0.3303192415609836  0.5590656606528124  1.0000
  N   N21       1.0  0.8472598998622713  0.2573420014485553  0.20303123423732  1.0000
  C   C273      1.0  0.8653414126586805  0.24741132977517258  0.2434685043147439  1.0000
  C   C274      1.0  0.8495873477177966  0.30374544064038766  0.1970654139989431  1.0000
  C   C275      1.0  0.8045593732231106  0.24221573003011457  0.20030179339228038  1.0000
  C   C276      1.0  0.8696826504901609  0.23628082607059955  0.17117327416942948  1.0000
  H   H369      1.0  0.863492935468178  0.21266839262401743  0.24947240565877013  1.0000
  H   H370      1.0  0.849911017037471  0.2637984071544109  0.2681973982345111  1.0000
  H   H371      1.0  0.8977614838574407  0.2579798573181131  0.24618307024478917  1.0000
  H   H372      1.0  0.8813501468718354  0.3160383557707194  0.20029395707360925  1.0000
  H   H373      1.0  0.837667768709373  0.3125556225481669  0.1662606218074807  1.0000
  H   H374      1.0  0.8321846289443965  0.320741815521877  0.21989449551757773  1.0000
  H   H375      1.0  0.7870587630743725  0.25650137932359623  0.22470635865360436  1.0000
  H   H376      1.0  0.8017037302819231  0.2070814069050757  0.20338327974345397  1.0000
  H   H377      1.0  0.7899189790026692  0.25045602004462214  0.170520435577967  1.0000
  H   H378      1.0  0.8683739474556667  0.201106581270392  0.17466058346790378  1.0000
  H   H379      1.0  0.9020261178504173  0.2471181089249341  0.17237227593491705  1.0000
  H   H380      1.0  0.8571618401957752  0.24366882087058864  0.14020933134814487  1.0000
  N   N22       1.0  0.7216864530626547  0.39556541273459933  0.6027246803173452  1.0000
  C   C277      1.0  0.6979910298611676  0.4139727115834265  0.5686441880275929  1.0000
  C   C278      1.0  0.6978257231531164  0.395864973543601  0.6396112068348391  1.0000
  C   C279      1.0  0.7596509037884818  0.42105812523922775  0.6100543629275332  1.0000
  C   C280      1.0  0.7312067233763344  0.3513519654207502  0.5925541542012511  1.0000
  H   H381      1.0  0.6687086359880041  0.39607282621422785  0.5628800707266561  1.0000
  H   H382      1.0  0.7144297798427456  0.4130237991257513  0.5399330386183661  1.0000
  H   H383      1.0  0.6911208111951137  0.44771198950444874  0.5750014869930025  1.0000
  H   H384      1.0  0.7154714332226968  0.38462033294999387  0.6666295623045918  1.0000
  H   H385      1.0  0.6882107429311725  0.4284436312454071  0.6467173366860635  1.0000
  H   H386      1.0  0.669922516839679  0.37527757222922203  0.6356751009127848  1.0000
  H   H387      1.0  0.778314203991668  0.40813739506746444  0.6355986508540106  1.0000
  H   H388      1.0  0.7536413953077509  0.4546770342529804  0.617771219082117  1.0000
  H   H389      1.0  0.7784589455568376  0.4211730258966924  0.5828053334881205  1.0000
  H   H390      1.0  0.7485577541084225  0.33627747730262303  0.6178098821971857  1.0000
  H   H391      1.0  0.7499818329317219  0.350158523791173  0.5654750425829399  1.0000
  H   H392      1.0  0.7033349565087572  0.3314105418017024  0.585443008264915  1.0000
  N   N23       1.0  0.42036370619052776  0.6310387924081858  0.27539321173499615  1.0000
  C   C281      1.0  0.4611590831118376  0.64582673397776  0.26415226497601885  1.0000
  C   C282      1.0  0.41490382841964657  0.6410912088991835  0.3186846864435775  1.0000
  C   C283      1.0  0.41571621680269283  0.5845471349658323  0.26892523835517124  1.0000
  C   C284      1.0  0.38977353859120106  0.6526432480794166  0.249895974426202  1.0000
  H   H393      1.0  0.46652140182759205  0.6386694628658021  0.23173870001722718  1.0000
  H   H394      1.0  0.4850431401665606  0.6305285829231034  0.2830486424007532  1.0000
  H   H395      1.0  0.46564318375257513  0.6808069183260065  0.268516349316707  1.0000
  H   H396      1.0  0.38443482759873804  0.630443015721744  0.328306195283195  1.0000
  H   H397      1.0  0.4374263861151928  0.6250775223982749  0.3387321545380253  1.0000
  H   H398      1.0  0.4185270710245752  0.6758800554746109  0.32481556905343956  1.0000
  H   H399      1.0  0.43839350007462763  0.5672184950789458  0.2876291823098416  1.0000
  H   H400      1.0  0.41945260524168615  0.575577342905388  0.2366117239588612  1.0000
  H   H401      1.0  0.38541784967966913  0.572081518706694  0.2775162971833079  1.0000
  H   H402      1.0  0.39223956774619056  0.6878066008565727  0.2540597552371596  1.0000
  H   H403      1.0  0.35858041301500987  0.6421506677753644  0.25734778468443725  1.0000
  H   H404      1.0  0.3932719266957477  0.6462023457233907  0.2169656858117857  1.0000
  N   N24       1.0  0.5230027384411333  0.61439814516896  0.5564856572138276  1.0000
  C   C285      1.0  0.5308067217586968  0.6491524961017825  0.5865871384038812  1.0000
  C   C286      1.0  0.47933283253329295  0.6106176257108432  0.5456598327459622  1.0000
  C   C287      1.0  0.5362746447892905  0.5738987812276994  0.5740289493190879  1.0000
  C   C288      1.0  0.5455783297474315  0.6238195317242484  0.5196282630206405  1.0000
  H   H405      1.0  0.5143085895377693  0.6432578900379277  0.6148707355583487  1.0000
  H   H406      1.0  0.5213797898535535  0.680285390971738  0.5743248449304063  1.0000
  H   H407      1.0  0.5634487351051836  0.6527073856278038  0.5956394189708963  1.0000
  H   H408      1.0  0.4724068208758528  0.5845857562682746  0.5230411615997661  1.0000
  H   H409      1.0  0.46125703483840486  0.6036415903853466  0.572709903064545  1.0000
  H   H410      1.0  0.46828074261330344  0.6403535235740507  0.5317284574406203  1.0000
  H   H411      1.0  0.530686640136895  0.5470041745693247  0.5520783128583104  1.0000
  H   H412      1.0  0.5198858682208387  0.5658513793416764  0.6019349537924038  1.0000
  H   H413      1.0  0.5691145018894902  0.5754582813930795  0.5824907511091261  1.0000
  H   H414      1.0  0.54054401423095  0.5981438179798264  0.4963053489128731  1.0000
  H   H415      1.0  0.5786514242019366  0.6273262187459244  0.5266318259499614  1.0000
  H   H416      1.0  0.5358049321916534  0.6537946093037728  0.5051383104466862  1.0000
  N   N25       1.0  0.6344430265651496  0.8136504138863746  0.266676269094055  1.0000
  C   C289      1.0  0.6029629539687936  0.8108319830676005  0.2335805587526097  1.0000
  C   C290      1.0  0.6663528387574326  0.8451273429998059  0.25599365500359983  1.0000
  C   C291      1.0  0.652081976146477  0.7715774255089688  0.2724935672328101  1.0000
  C   C292      1.0  0.6162668715445923  0.8270802398519597  0.30469945989711134  1.0000
  H   H417      1.0  0.5787001623033652  0.7869239361938728  0.24036331532002508  1.0000
  H   H418      1.0  0.6155625512652368  0.8015756611603372  0.20417225805869024  1.0000
  H   H419      1.0  0.5883594359649966  0.8417670656745188  0.22889901044600053  1.0000
  H   H420      1.0  0.6903248923382082  0.8487412280587295  0.2805597260564182  1.0000
  H   H421      1.0  0.680948263088157  0.8359503822701322  0.22759416963559348  1.0000
  H   H422      1.0  0.6538040611621774  0.8770070780990105  0.2509603521828324  1.0000
  H   H423      1.0  0.6760744935339801  0.7725483299979606  0.2971608829392427  1.0000
  H   H424      1.0  0.6657426213959778  0.7601970442369589  0.24430708944105098  1.0000
  H   H425      1.0  0.6287081198225233  0.7472014700519217  0.2808874636209343  1.0000
  H   H426      1.0  0.6023724019353602  0.8585407018298251  0.3012878190204753  1.0000
  H   H427      1.0  0.6391558452718186  0.8298037664868784  0.33030699438562283  1.0000
  H   H428      1.0  0.5921386440705826  0.8039195280289375  0.3137115877456203  1.0000
  N   N26       1.0  0.3373495955048374  0.9589902574791874  0.9018283406814221  1.0000
  C   C293      1.0  0.34773594027292065  0.9537826911233512  0.8589404732140021  1.0000
  C   C294      1.0  0.3410907040980672  0.9179756979244216  0.923015502418576  1.0000
  C   C295      1.0  0.2954193887700714  0.9729067850476623  0.9036150313095741  1.0000
  C   C296      1.0  0.3651275761753409  0.9914435247784037  0.9215304026880805  1.0000
  H   H429      1.0  0.3281550257519042  0.9289269932595022  0.8432086155530917  1.0000
  H   H430      1.0  0.37951254619294666  0.9444814596166259  0.8562765310603669  1.0000
  H   H431      1.0  0.3438713564263464  0.9837321528397318  0.841719276477154  1.0000
  H   H432      1.0  0.32063687003423225  0.8928451928662162  0.9085562518837362  1.0000
  H   H433      1.0  0.37232379743690763  0.9064496964403442  0.9223349170478747  1.0000
  H   H434      1.0  0.3331476211247618  0.9204970575680435  0.9554709885807547  1.0000
  H   H435      1.0  0.28633306809996195  0.97658606864563  0.9355566470809726  1.0000
  H   H436      1.0  0.27375675589221465  0.9493894337905686  0.8884518149854101  1.0000
  H   H437      1.0  0.2916131758673012  0.003849454248756823  0.8880435034584216  1.0000
  H   H438      1.0  0.3579543309262105  0.9967119548542133  0.9538469037394197  1.0000
  H   H439      1.0  0.3634555111369413  0.022533933884627766  0.9056166418310486  1.0000
  H   H440      1.0  0.39702421886622413  0.9818398188669609  0.9208815971155899  1.0000
  N   N27       1.0  0.019606762239608333  0.9619098788814151  0.8042328424244962  1.0000
  C   C297      1.0  0.045904722693762556  0.9290567467179865  0.8213285395712633  1.0000
  C   C298      1.0  0.0350306654141086  0.004392485866649087  0.8183220687793991  1.0000
  C   C299      1.0  0.9781113503113449  0.9542297563033693  0.8178566910095055  1.0000
  C   C300      1.0  0.019316635137764715  0.959846228637025  0.759392659688172  1.0000
  H   H441      1.0  0.07774014469737178  0.9342566063070903  0.8126589273601398  1.0000
  H   H442      1.0  0.03561021359405481  0.8967260686300784  0.8104258256517543  1.0000
  H   H443      1.0  0.045715962746575745  0.9286890808608199  0.8551506060055598  1.0000
  H   H444      1.0  0.0664011974824843  0.011176913403249776  0.8088858570592239  1.0000
  H   H445      1.0  0.016115099770632746  0.030051717137738354  0.8057083133320282  1.0000
  H   H446      1.0  0.03526713016236216  0.007236045898021401  0.8520315505435193  1.0000
  H   H447      1.0  0.9655653169489471  0.922378183965201  0.8077746872219902  1.0000
  H   H448      1.0  0.9573041871780805  0.9784387610880132  0.8056773849059061  1.0000
  H   H449      1.0  0.977288199502432  0.9551931313008943  0.8515699490083583  1.0000
  H   H450      1.0  0.9997669444406302  0.9843401209862824  0.7455858859438103  1.0000
  H   H451      1.0  0.007625756961549657  0.9281996604277564  0.7478122886739774  1.0000
  H   H452      1.0  0.05019333897785949  0.9652540643498332  0.7480271385796957  1.0000
  N   N28       1.0  0.8987454960935034  0.37908150013019576  0.956724423714778  1.0000
  C   C301      1.0  0.8986556733751131  0.40142990307709214  0.9174414369878888  1.0000
  C   C302      1.0  0.9407025775896627  0.37035391221889324  0.9700090510747504  1.0000
  C   C303      1.0  0.8751270743122673  0.3384648793914595  0.9520072957831298  1.0000
  C   C304      1.0  0.8805376731930935  0.4059745772533198  0.9874899647859475  1.0000
  H   H453      1.0  0.9135199063620061  0.38265636899304944  0.8939415034607098  1.0000
  H   H454      1.0  0.9151935836980555  0.43276876640212797  0.9201176370967374  1.0000
  H   H455      1.0  0.8673607139488294  0.4070823508616263  0.9057713699643322  1.0000
  H   H456      1.0  0.941784214515157  0.3530822846994741  0.9994325639151084  1.0000
  H   H457      1.0  0.9554791760849841  0.35043059472373644  0.9472326506342437  1.0000
  H   H458      1.0  0.9593537586652567  0.40028022092470034  0.974440044752629  1.0000
  H   H459      1.0  0.8432143290766171  0.3437010015155783  0.942092192350209  1.0000
  H   H460      1.0  0.8746727449066196  0.3207967276125861  0.9811640706664171  1.0000
  H   H461      1.0  0.8879966852535199  0.31747777439058966  0.9289052263125178  1.0000
  H   H462      1.0  0.8966076520481377  0.43752836040654575  0.9908908777619272  1.0000
  H   H463      1.0  0.8819322674349779  0.39084693687481065  0.017856049084498338  1.0000
  H   H464      1.0  0.84820437182449  0.4115217995253974  0.9795178276168276  1.0000
  N   N29       1.0  0.34303755015410486  0.5793374327348144  0.8546050410168361  1.0000
  C   C305      1.0  0.35493679272449274  0.5888625622449368  0.8975381939452272  1.0000
  C   C306      1.0  0.37655325106179494  0.5590883447724279  0.8345744543682896  1.0000
  C   C307      1.0  0.3334474895959562  0.6193202260566667  0.8336273022516408  1.0000
  C   C308      1.0  0.30717459597961333  0.5499997551389032  0.8527871867604061  1.0000
  H   H465      1.0  0.36225943950025463  0.5594003935347194  0.9143380300857449  1.0000
  H   H466      1.0  0.33019011485726185  0.604203327862096  0.9134723226341589  1.0000
  H   H467      1.0  0.38189114038515154  0.6109910910089266  0.9000813322304726  1.0000
  H   H468      1.0  0.3684534883417482  0.5514065785281044  0.8021730737299524  1.0000
  H   H469      1.0  0.4043069845181951  0.5800504246621209  0.8354384310402286  1.0000
  H   H470      1.0  0.38413544007922534  0.5284783284931011  0.8492726059965721  1.0000
  H   H471      1.0  0.30973095141344614  0.6364931786337392  0.8492793399415551  1.0000
  H   H472      1.0  0.32208336183065145  0.6133050129937991  0.8017324658471929  1.0000
  H   H473      1.0  0.3603248861700745  0.6414309859067249  0.8326678286384237  1.0000
  H   H474      1.0  0.31387084641153695  0.5187209154297271  0.8665983817554148  1.0000
  H   H475      1.0  0.2964058946774519  0.5434185869320396  0.820856139221884  1.0000
  H   H476      1.0  0.28177147597253765  0.5632758914013675  0.8690999036073014  1.0000
  N   N30       1.0  0.6489266272962088  0.821846045652537  0.7227205258199285  1.0000
  C   C309      1.0  0.6253240260630464  0.8522219387996597  0.7455312964158459  1.0000
  C   C310      1.0  0.6924580253581005  0.8329966162244473  0.7286788532637407  1.0000
  C   C311      1.0  0.6371489785102453  0.8237567262193131  0.6790264267518518  1.0000
  C   C312      1.0  0.6406272451884955  0.7783543123558001  0.7376340126270738  1.0000
  H   H477      1.0  0.5923221764503388  0.8444636095679369  0.7418738047771376  1.0000
  H   H478      1.0  0.6305143309104895  0.8853516429364714  0.7347999322806769  1.0000
  H   H479      1.0  0.6336005273912172  0.8517964199280259  0.7786355494427476  1.0000
  H   H480      1.0  0.7111746132899653  0.8105363938817385  0.7120289339799459  1.0000
  H   H481      1.0  0.6998791792429466  0.8655591111372695  0.7176314520565147  1.0000
  H   H482      1.0  0.7024126688916356  0.8321142467908633  0.7613988838278799  1.0000
  H   H483      1.0  0.653067166927996  0.7999311797934927  0.6610339268945601  1.0000
  H   H484      1.0  0.6440689119077034  0.8557000909521123  0.6662658327624735  1.0000
  H   H485      1.0  0.6041740672309989  0.8170582984209961  0.673717268712252  1.0000
  H   H486      1.0  0.6579591963183831  0.7545126887141547  0.7211346238117842  1.0000
  H   H487      1.0  0.6080939552647552  0.7687063001747414  0.7331478302599672  1.0000
  H   H488      1.0  0.6487312154903327  0.775724428564625  0.7705954665068765  1.0000
  N   N31       1.0  0.8351283479717514  0.043537379268311804  0.9618827870552287  1.0000
  C   C313      1.0  0.847408342023139  0.08058996033179722  0.9373406136785326  1.0000
  C   C314      1.0  0.8294806061482064  0.05742526220552335  0.004174654456877258  1.0000
  C   C315      1.0  0.866767148869605  0.01175258424957426  0.9614659023726592  1.0000
  C   C316      1.0  0.7968941549314794  0.02428615226337527  0.9444162741131092  1.0000
  H   H489      1.0  0.8511607615590611  0.0712890793233103  0.9050803724493448  1.0000
  H   H490      1.0  0.8767092397963886  0.09531740699627789  0.9489040621222878  1.0000
  H   H491      1.0  0.8245010864919234  0.10551375149810394  0.9374571520585648  1.0000
  H   H492      1.0  0.8053129539743157  0.08088293724285323  0.005844826040406703  1.0000
  H   H493      1.0  0.8206585939258896  0.030167985973624578  0.023595887982924557  1.0000
  H   H494      1.0  0.8577011279379237  0.0723247346392526  0.01815757894626735  1.0000
  H   H495      1.0  0.8964660351140402  0.02532882440971429  0.9731501156810166  1.0000
  H   H496      1.0  0.8706383872974203  0.9995848766460762  0.9302067319103727  1.0000
  H   H497      1.0  0.8590605909424459  0.9837832264246713  0.9804368344153959  1.0000
  H   H498      1.0  0.7721615045359405  0.0471745958304397  0.944499980677139  1.0000
  H   H499      1.0  0.7869875299311535  0.995918112631732  0.9618313199455586  1.0000
  H   H500      1.0  0.8001633876273457  0.013653498753036342  0.9123872758065781  1.0000
  N   N32       1.0  0.8498594308365277  0.7060704404108393  0.5337430724330594  1.0000
  C   C317      1.0  0.8559880616609619  0.7046966357957278  0.5784426390016121  1.0000
  C   C318      1.0  0.8086566232008341  0.7198833769909337  0.5233723879601931  1.0000
  C   C319      1.0  0.8549753897202944  0.6632753975430571  0.5163411750815399  1.0000
  C   C320      1.0  0.8797195749852235  0.7363355535754934  0.516737473474191  1.0000
  H   H501      1.0  0.8868192705066793  0.6945756840072169  0.5874853936756811  1.0000
  H   H502      1.0  0.8340076707856531  0.6820398145965042  0.5922782333254237  1.0000
  H   H503      1.0  0.8519211056085977  0.7363524424198481  0.5927224930673053  1.0000
  H   H504      1.0  0.7853976970570766  0.6980102511910233  0.5361804978492124  1.0000
  H   H505      1.0  0.8037236890498448  0.752256703003878  0.5355380598323651  1.0000
  H   H506      1.0  0.8026146562630943  0.7205430652171615  0.48987696738788866  1.0000
  H   H507      1.0  0.8504595357454405  0.6631720548982388  0.4826459650139997  1.0000
  H   H508      1.0  0.8328544498599114  0.6396188572765407  0.5283917339254657  1.0000
  H   H509      1.0  0.8857686002694055  0.651801857940749  0.5233761188510366  1.0000
  H   H510      1.0  0.8757343970669639  0.7384144950433381  0.48307731803789206  1.0000
  H   H511      1.0  0.9112321724004204  0.7265836403770629  0.5233066007216471  1.0000
  H   H512      1.0  0.8771434955394608  0.7689543793645421  0.5293644996119063  1.0000
