data_image0
_chemical_formula_structural       C2SFeSCSFeS2FeS2FeSFeS3HFeS3FeSFeS2H2CH5C2H3C7HC7H4C6H4C4H2C6H5FeCH4CSNHSHFeCH2CH4C2H9SFeH2SN2C2HNC4H17CHCH4NC2HCH7CHCHNC3H7CFeH2S2C2NHSHC2SHC2SH5SHCH2C2HFeHCH2FeCSH4CH10C2H3CH2FeS2FeS2FeSFeS3FeSHFeS2FeSFeS3H2SH7FeHS2HFeSHFeSFeS2H2FeHSCFe2S2C3NHCH3CSHC3HCH2CHCH6CHCHFeSH2CHCHFeH2NSC9H4C6H4C6H4CHC4H2CHC6H3FeH2NHC2H2SH6CH3CH6SHNCH2NC6H3C2H2SH2C2H4C2HCHNSH2C2H3CH3SCHC3HSCH2C2HSC2H3C2H5CHNH6SH5CH4NFeH2Fe2CH4CH2C2HCHC2FeHFeSCNSHFeS2FeS2Fe2S3CS2FeSFeSFeSFeCS2HFeS2Fe2SHSH4FeHSCH2CH3SHC7H5C4H2C6H4C6H4C6H4FeSH5C3HCSH3C2SHCH3CNC4HCH5CHC2H2CH2CHSFeSH4CH2CH4NSNH2CHNH3CH2CH3C2H5FeSHCH2CHCH2CHC3H4NCHC2H2C2H4CH3NC4H13SH3CH3C2H3NH5CH4SC3HSHSHFeSHCSH2NCH2SCSHCHSHCH4CHCHNHC2NH2SCHS2HS3CHC2H3C2FeCH2C2H2S2C2SHFeS2FeS2FeSFeS3FeCSFeS2FeS2FeS2FeSFeS4C2NSCHC3H2CH4C6H4C6H4C6H4C7H3FeHC2HCHCHCHNH2CH2C2HCSH2C2NC4H12NC4H15CFeH5CHSCFeCHCH4SH5CHSH7SC3HCHNHC2NH4CH5SHSH4SH2CHCNC2H9CH2C5HCSCH5CH3C4HCH3CHCNHNCHCHCH4SCH3FeCFeS2FeS2FeSFeS3FeS2FeS2FeSFeHS2CSHFeHC2H2C6H4C6H4C6H4CH2CFeCH3C2H3C2HC5H6SCNC4H12CFeHNSH5SH2CSNCHCH2CH3CH3NH5S2HCHC3H2CHC2HC2HFeH2CHCH2CNFeNCHCSHCSHNH3C2HFeHCHC2SHSH2CH4FeHCHC2HSCH6CH8CSCHSFeHC2H2SNSCHSNH2CSHC2H12CH2CHSCNCHSFeS2FeS2Fe2S3HCHCFeSHFeS2FeSFeS3FeS2FeSFeSFeS3FeS2FeSCFeSHS2HC4H2C6H4FeC6H4C6H4C6H4C6H4NSFeHSCH2CHNHC3H2CH3SNHCHCH2CSCNC4H12NC4H13C2SHSNH2CHCH4CH5NHCH3CH4CHCH5CSHCHFe2SHC2H3CHNH7CH2SH3CHCH2CH6CH4C2H2CSCH2CSHCSC2HSHFeCHCH2NHCH2SC2H6FeSH2CH3CHC2HCHCHCHNH4CH3C2HCH3C2FeSC2HFeCSH3CH4FeS2FeS2FeSFeS3H2CSFeS2FeS2FeSFeS3CFeS2FeS2H2FeHS2CHCHNCH5CH2C4H4CHCHCHC2H2FeHCH4C9H4C6H4C6H4FeCH2CSNHCSHCH3C6H7C3NHCHCH5S2H3NH2C2HCHCNH3C2H2CH9CNC4H12NH2CH2NHNHCHCH3CHCH2C3H2CHSC2FeSCHCHC2H2C3H8CH3NHCH2CH3CH2S3HFeHC3H2SHNH6SFeS2HCH2SNFeHCFeS2H2FeH2SC2H3SHFeHC2HC2HCH3C2H5C2FeCH2SHC3HFeH2NSH4CH2CHFeC2HC8H2SH2S2HC2SH3C2H7C3SH2C3H3CSCH3SCFeSFeSH2SHCHSFeS2FeS2FeSFeS3H2SHCSHFe2S2FeSH5C6H4C6H4C6H2CHFeH2CH2C6H4C6H3C5HCHC2HC3HFeNC4FeNH11SH3FeH5SHC3HFeHC2HSCSHFe2H2SCSNC4H17CH2SH3CH2SCH2SCHCH2FeHSCH8SNCH3CHNS3CH2FeC3HN2H6CHNHCSHC3H4SHSHNH3CHC3H2CH5FeS2FeS2FeSFeS3H2SHSHFeS2HCH3S3H2SH2CH2SH3FeH2C6H4C6H4C4HCH2SHC2HCHCHC2HSC2HC6SH3NSCHCFeCFeCH2NHFeCNH2C3HC2FeCH2CH2CH4NC4H17CH4C2SH2SCH4FeH2SHCH3C4FeHCH2FeH5CH7CFeH2CH5SHFeS2HFeHS2FeCSFeCSCFe2HS2CHFeCNHCFeCSNC4HCH4C2SCH2FeC3H2SCHSC6H5CFeS2CH2CH9SH2CHC2HFeCSHSHSHSC2SCNH4FeC2HCH7CHC2HCH3NHCH3SHC3S3HNFeHFeS2FeS2HFeCSFeS2FeS2FeSFeS3HCFeS2H3FeS2FeSCHSCFeCSHCHCHSCH3CH2C2H4C6H4C6H4CH3C2H5FeSH7C3H2C8H2NC7H3C6HCH2CHSHSH2FeHNCH3NCH3C2NSHSH4CH2SFeHCHSC3HCSH5NC3H12SHCH3CNH2CHNC4H14C2HC2HCFeCHC2HC4HCH7NH2C2HCH4CH5FeHCH3SFeHCH2FeCH2FeS2Fe2S2CFeS2FeS2FeSFeS3H3CHS2Fe2S2HSHCH2CH5C2FeHSH6SHC7H3C3HC3H2SNC3HC2HCH2C6H4C6H4C6H4CH3CH4C2HCH5C4H2S2NC4H11SFeHSCHCFeNSC2H3C2FeH5SH3CH4CSHCNC4H3CH2CH5CH3C3H2CNH2SNHSH2C2H2FeCSHCH2S2HCNC4H9SHCHCSCHCNH4CHCH7C2HCHNH2CH8SHSFeC2HNFeS2FeS2FeSFeS3FeSHFeS2FeSFeS3FeC2H2CFeSC2SNCH5FeHS2NHCHC2SC2H2C7H4C6H4C6H6C2SH7C6H4FeHSCH2SH4CSH15C2SHC4SH2SH2NHFeH3C2HCNC4H12SCH2CNC4H12C2H5C2SH2CHCH3CHCH5CNH4SFeS2FeCFeS2FeS2FeS2FeC2NS2FeSHSFeS2FeCFeSFeS2FeS2FeSFeS3CHNFeS2H6C4FeCHSCHC6H4C6H4C6H3C7H3C6H4C3H2CH4S2CHCH2CHCHC2H4CNSH3C6H2NC4H15S2FeH2CHCH2CSC4H6CH2FeH2CH6CHNH4C2H4CH2NHCFe2HC2HSH2SCNC3H7SHCSCH5FeHC2HCHSNHC2H3FeSCH2C2H2C2HFeCSH5NSH2CH5SCHCH7CH7SH2FeS2FeS2FeSFeS3CH2SCSH2FeS2CHFeS3FeS2HFeSFeSH2SCH2C3H4C6H8C4HCH3C6H4C6H4C6H5C3S2H4CH5C2NCH2CNH2CH5CH2CHFeSH2C4HCHCHC2HSHCH2CHNH2C2H3CHCSCH2NC4H13C2NHCHCHCH4NH2CHCH4SC3H3SHCNHSCFeHCHCH5FeSH5SHCFeCNFeS2FeS2FeSFeS4HFeHSFe2S2HFeS4CHC2HC2SC2HNH2FeHCFeH2C4HCHCHFeNH5C2H2FeSHC2SC2FeHCH2FeH5CSFeC3HSH3NSHC7HC2HC6H4C6H4C6H4SCNC4H12SHNSFeHS2C2H2SH3CNC4H12CFeH2SCH2CH2CH2S2HCH2CH4SCHSC2S2CHFeHCSCHC3FeHNHC2H11C2H12SHSH6NH5C2HCH4CFeH4SFeS2Fe2HSFeS2FeS2FeHFeS3HSHCH2CSC3SFeS2FeSFeS2FeS3FeS2FeS2FeS3CFeH2CH2CHCHCNHCH2SC9H4C2H4C6H4C6H5CSC2SHNC2H3CH5SC2S3HCHC2H2C6H3C6H4CH7C2NCH7CHFeHNHNC4H12CH3CHNC4H12NH4C2H6CFeH2CHCH2C3FeH3SFeSH4SCH2FeH2C3HFeCH4CNHCHCH2NH4C2HCH3NH3CHCHNH5CH2SHCH3NH2CHCH3CH7CHCHC5HCHSH3SH2FeHFeS2FeS2FeSFeS3HS2CFeS2HC4H2SH2CHNFeC2H6C6HFeCHC6H5SFeHC6H3C7H4C2H4SHCH2SH6FeHNH2CH2C2H5CHCSNS2H2C2H2CHNHCFeH3C3HSCH2NC4H3CH6SHCHCH2CH5CH2CHNHCFeS2H2CFeH2SHCSHCH4FeH2FeSCFeH2CHSC2HC3H4C2FeSHS2CFeSHSHCSHFeSHFeSFeCS2HSNFeHSH3SHSCHCHC2H2CH3CHCSHCH2NHCH2C2HCNHFeHC6H4CHCHSH3C8H7CHC2HC2H4CHCH3SFeNHSH4C2H4CNCH2NHSHCH2CHFeH5CHCH3CFeH2FeCNHC4HCH2SH4CFeHSHSHS2CH2CHSFeS2FeS2FeSFeS3H3CHFeS2H4FeS2FeSHFeSFeS2HSHFeSHFeSFeSCH2SC5H5C6H4C4H3CH2CH10C6H4C6H8C6H3CHNCHCHNHSC6H6FeHCH2CHSNC5H3FeC4H3NC4H13SHC2HCH14FeCHCHSCSH2C2NC4H2NFeCHC2H2NHNCH5CH2SNS2HCH2CH3CHCH2SHC3HCH2CH10CNCHFeS2FeSFeSCSNHCH3FeSHFeS2FeSFeS3HSHFeSCFeSFeSCSHSHCH4CH2CNC4HCH4C7H4CSH5CH2C6H4C6H2CH2CH4SHCH3C3SH2C3H2CH5CHCHCNSH2C2HC2HFeC3H2CH8FeHSHCH4CSHCHNHSFeHC3H2CH5CH3NSH2C6H2NSH5NH3CHCH8CFe3HSHCH2SCH4NHCHSHCFeHS3HSCH3S3CHFeCHFe2SNCH3CHSCH2CHCH3CSC4H2SCHCH2SNC6H5SNFeC2FeH3CFeH7C5HCHCHCHCH2CH2CH2C2HSHC2HSCH4CSHFeS2HCHC2FeSFeSFeSN2HFeS2FeS2FeSFeS3CFeS2FeS2Fe2S3FeHSC2HS2HNH3C7H4CHC5H3C6H4SC5H3C6H4C4SCH3C6H4CHFeSH2CH4CHNSH4CNHCFeH2CH5NC4H2SHCH4CHCNSH7C4H3CNC4H13SHFeSH6SHCH3CHC2H3C2H2SH2NH6FeCH3FeHCHCH2CHCH3SHCSH2CH4CH3SHCNHSHC2H3C2H3NHFeC
_chemical_formula_sum              "C1920 S768 Fe384 H3072 N192"
_cell_length_a       74.5359
_cell_length_b       73.847
_cell_length_c       74.6458
_cell_angle_alpha    74.5057
_cell_angle_beta     74.8976
_cell_angle_gamma    74.9584

_space_group_name_H-M_alt    "P 1"
_space_group_IT_number       1

loop_
  _space_group_symop_operation_xyz
  'x, y, z'

loop_
  _atom_site_type_symbol
  _atom_site_label
  _atom_site_symmetry_multiplicity
  _atom_site_fract_x
  _atom_site_fract_y
  _atom_site_fract_z
  _atom_site_occupancy
  C   C1        1.0  0.16431  0.41822  0.14873  1.0000
  C   C2        1.0  0.04684  0.29556  0.24850  1.0000
  S   S1        1.0  0.18293  0.42043  0.24677  1.0000
  Fe  Fe1       1.0  0.12574  0.43367  0.21755  1.0000
  S   S2        1.0  0.10047  0.41947  0.23010  1.0000
  C   C3        1.0  0.19769  0.12089  0.26425  1.0000
  S   S3        1.0  0.15479  0.41516  0.21195  1.0000
  Fe  Fe2       1.0  0.18543  0.34005  0.09216  1.0000
  S   S4        1.0  0.17139  0.37034  0.08066  1.0000
  S   S5        1.0  0.21735  0.33249  0.08710  1.0000
  Fe  Fe3       1.0  0.14850  0.32622  0.10495  1.0000
  S   S6        1.0  0.13151  0.35505  0.09446  1.0000
  S   S7        1.0  0.13378  0.30139  0.11667  1.0000
  Fe  Fe4       1.0  0.15499  0.35643  0.06877  1.0000
  S   S8        1.0  0.14886  0.36801  0.03939  1.0000
  Fe  Fe5       1.0  0.14929  0.36612  0.10746  1.0000
  S   S9        1.0  0.13255  0.38771  0.12511  1.0000
  S   S10       1.0  0.17068  0.32656  0.07812  1.0000
  S   S11       1.0  0.16459  0.33688  0.12016  1.0000
  H   H1        1.0  0.11979  0.41279  0.15118  1.0000
  Fe  Fe6       1.0  0.04098  0.37751  0.18861  1.0000
  S   S12       1.0  0.06250  0.35062  0.18493  1.0000
  S   S13       1.0  0.05263  0.40467  0.17821  1.0000
  S   S14       1.0  0.02832  0.32692  0.20471  1.0000
  Fe  Fe7       1.0  0.04835  0.33849  0.21432  1.0000
  S   S15       1.0  0.06927  0.32210  0.23263  1.0000
  Fe  Fe8       1.0  0.04061  0.34192  0.17543  1.0000
  S   S16       1.0  0.04689  0.32615  0.15185  1.0000
  S   S17       1.0  0.01997  0.36996  0.17626  1.0000
  H   H2        1.0  0.14092  0.00905  0.26683  1.0000
  H   H3        1.0  0.21008  0.30010  0.07610  1.0000
  C   C4        1.0  0.13953  0.03872  0.29533  1.0000
  H   H4        1.0  0.21689  0.12612  0.22787  1.0000
  H   H5        1.0  0.17396  0.46188  0.24012  1.0000
  H   H6        1.0  0.19281  0.17475  0.98259  1.0000
  H   H7        1.0  0.20120  0.14762  0.21912  1.0000
  H   H8        1.0  0.22959  0.00142  0.15047  1.0000
  C   C5        1.0  0.14470  0.41970  0.15483  1.0000
  C   C6        1.0  0.15833  0.00681  0.29474  1.0000
  H   H9        1.0  0.20024  0.28261  0.07128  1.0000
  H   H10       1.0  0.06206  0.28142  0.16748  1.0000
  H   H11       1.0  0.22591  0.02076  0.16248  1.0000
  C   C7        1.0  0.20259  0.44214  0.28037  1.0000
  C   C8        1.0  0.03522  0.32114  0.28391  1.0000
  C   C9        1.0  0.05867  0.33237  0.29273  1.0000
  C   C10       1.0  0.06529  0.29899  0.24299  1.0000
  C   C11       1.0  0.08076  0.28388  0.24586  1.0000
  C   C12       1.0  0.07782  0.26519  0.25384  1.0000
  C   C13       1.0  0.05940  0.26174  0.25946  1.0000
  H   H12       1.0  0.09502  0.28658  0.24172  1.0000
  C   C14       1.0  0.12410  0.01193  0.30270  1.0000
  C   C15       1.0  0.14389  0.35213  0.02832  1.0000
  C   C16       1.0  0.13983  0.35898  0.01011  1.0000
  C   C17       1.0  0.13417  0.34719  0.00157  1.0000
  C   C18       1.0  0.13225  0.32856  0.01130  1.0000
  C   C19       1.0  0.13677  0.32152  0.02933  1.0000
  C   C20       1.0  0.14271  0.33324  0.03779  1.0000
  H   H13       1.0  0.14080  0.37355  0.00269  1.0000
  H   H14       1.0  0.19258  0.12388  0.27876  1.0000
  H   H15       1.0  0.13559  0.30701  0.03677  1.0000
  H   H16       1.0  0.14592  0.32781  0.05179  1.0000
  C   C21       1.0  0.10974  0.30883  0.12631  1.0000
  C   C22       1.0  0.09677  0.29832  0.12594  1.0000
  C   C23       1.0  0.07739  0.30431  0.13304  1.0000
  C   C24       1.0  0.07102  0.32022  0.14150  1.0000
  C   C25       1.0  0.08396  0.33080  0.14188  1.0000
  C   C26       1.0  0.10333  0.32523  0.13407  1.0000
  H   H17       1.0  0.10170  0.28574  0.11979  1.0000
  H   H18       1.0  0.06738  0.29631  0.13240  1.0000
  H   H19       1.0  0.07904  0.34351  0.14775  1.0000
  H   H20       1.0  0.11332  0.33349  0.13424  1.0000
  C   C27       1.0  0.18165  0.45637  0.25154  1.0000
  C   C28       1.0  0.17429  0.40755  0.13493  1.0000
  C   C29       1.0  0.16471  0.39808  0.12750  1.0000
  C   C30       1.0  0.14504  0.39988  0.13339  1.0000
  H   H21       1.0  0.18948  0.40634  0.13017  1.0000
  H   H22       1.0  0.17252  0.38952  0.11714  1.0000
  C   C31       1.0  0.08739  0.41568  0.21531  1.0000
  C   C32       1.0  0.07394  0.40399  0.22334  1.0000
  C   C33       1.0  0.06343  0.40036  0.21201  1.0000
  C   C34       1.0  0.06591  0.40882  0.19264  1.0000
  C   C35       1.0  0.07937  0.42053  0.18456  1.0000
  C   C36       1.0  0.09023  0.42379  0.19582  1.0000
  H   H23       1.0  0.07169  0.39766  0.23839  1.0000
  H   H24       1.0  0.05310  0.39136  0.21839  1.0000
  H   H25       1.0  0.08145  0.42700  0.16954  1.0000
  H   H26       1.0  0.10061  0.43276  0.18947  1.0000
  H   H27       1.0  0.14324  0.47701  0.26332  1.0000
  Fe  Fe9       1.0  0.00890  0.35555  0.20627  1.0000
  C   C37       1.0  0.20934  0.15031  0.25118  1.0000
  H   H28       1.0  0.11880  0.33754  0.20604  1.0000
  H   H29       1.0  0.09109  0.29674  0.17831  1.0000
  H   H30       1.0  0.06602  0.30600  0.18271  1.0000
  H   H31       1.0  0.21706  0.27442  0.13805  1.0000
  C   C38       1.0  0.20669  0.16557  0.97749  1.0000
  S   S18       1.0  0.05589  0.23842  0.26931  1.0000
  N   N1        1.0  0.23008  0.28107  0.05951  1.0000
  H   H32       1.0  0.17215  0.15375  0.26674  1.0000
  S   S19       1.0  0.23862  0.02287  0.19933  1.0000
  H   H33       1.0  0.23251  0.07976  0.30222  1.0000
  Fe  Fe10      1.0  0.16350  0.43382  0.22609  1.0000
  C   C39       1.0  0.21071  0.29212  0.06515  1.0000
  H   H34       1.0  0.15224  0.02915  0.26112  1.0000
  H   H35       1.0  0.16541  0.47936  0.10818  1.0000
  C   C40       1.0  0.22780  0.31141  0.10133  1.0000
  H   H36       1.0  0.22659  0.25665  0.08260  1.0000
  H   H37       1.0  0.18876  0.11151  0.26297  1.0000
  H   H38       1.0  0.20154  0.30508  0.11947  1.0000
  H   H39       1.0  0.23571  0.06259  0.19843  1.0000
  C   C41       1.0  0.19774  0.42947  0.27224  1.0000
  C   C42       1.0  0.18743  0.43655  0.25772  1.0000
  H   H40       1.0  0.20207  0.41413  0.27712  1.0000
  H   H41       1.0  0.09487  0.35007  0.20517  1.0000
  H   H42       1.0  0.07127  0.25645  0.17610  1.0000
  H   H43       1.0  0.08729  0.27233  0.16360  1.0000
  H   H44       1.0  0.12399  0.99819  0.29932  1.0000
  H   H45       1.0  0.08823  0.37712  0.17874  1.0000
  H   H46       1.0  0.07779  0.17078  0.29547  1.0000
  H   H47       1.0  0.13687  0.42780  0.16551  1.0000
  H   H48       1.0  0.10701  0.38569  0.16098  1.0000
  S   S20       1.0  0.17629  0.43024  0.15780  1.0000
  Fe  Fe11      1.0  0.16007  0.43784  0.18563  1.0000
  H   H49       1.0  0.12672  0.03271  0.26713  1.0000
  H   H50       1.0  0.13420  0.34686  0.16215  1.0000
  S   S21       1.0  0.13396  0.45061  0.23407  1.0000
  N   N2        1.0  0.11614  0.36234  0.18316  1.0000
  N   N3        1.0  0.19643  0.13889  0.24959  1.0000
  C   C43       1.0  0.18620  0.46905  0.25992  1.0000
  C   C44       1.0  0.04386  0.27695  0.25713  1.0000
  H   H51       1.0  0.03485  0.30726  0.24631  1.0000
  N   N4        1.0  0.08983  0.34292  0.07298  1.0000
  C   C45       1.0  0.07480  0.33928  0.06562  1.0000
  C   C46       1.0  0.10406  0.32495  0.07657  1.0000
  C   C47       1.0  0.08138  0.34963  0.09091  1.0000
  C   C48       1.0  0.09905  0.35775  0.05878  1.0000
  H   H52       1.0  0.06385  0.35255  0.06266  1.0000
  H   H53       1.0  0.06753  0.32815  0.07597  1.0000
  H   H54       1.0  0.08079  0.33411  0.05211  1.0000
  H   H55       1.0  0.11586  0.32712  0.08185  1.0000
  H   H56       1.0  0.09765  0.31354  0.08738  1.0000
  H   H57       1.0  0.11044  0.31927  0.06346  1.0000
  H   H58       1.0  0.09240  0.35207  0.09708  1.0000
  H   H59       1.0  0.07400  0.33892  0.10181  1.0000
  H   H60       1.0  0.07083  0.36336  0.08874  1.0000
  H   H61       1.0  0.11117  0.36021  0.06331  1.0000
  H   H62       1.0  0.08899  0.37178  0.05634  1.0000
  H   H63       1.0  0.10478  0.35354  0.04481  1.0000
  H   H64       1.0  0.21257  0.11257  0.26331  1.0000
  H   H65       1.0  0.11038  0.02184  0.30069  1.0000
  H   H66       1.0  0.07140  0.30061  0.27891  1.0000
  H   H67       1.0  0.10382  0.38022  0.20350  1.0000
  H   H68       1.0  0.02810  0.30902  0.28585  1.0000
  C   C49       1.0  0.06271  0.29867  0.29361  1.0000
  H   H69       1.0  0.06671  0.33497  0.27773  1.0000
  C   C50       1.0  0.14008  0.02296  0.27056  1.0000
  H   H70       1.0  0.14531  0.34738  0.18073  1.0000
  H   H71       1.0  0.04854  0.34599  0.29494  1.0000
  H   H72       1.0  0.13086  0.35273  0.98764  1.0000
  H   H73       1.0  0.08979  0.25342  0.25589  1.0000
  N   N5        1.0  0.04868  0.31640  0.29673  1.0000
  C   C51       1.0  0.17671  0.15006  0.25245  1.0000
  C   C52       1.0  0.22962  0.13471  0.29135  1.0000
  H   H74       1.0  0.10754  0.33549  0.18826  1.0000
  C   C53       1.0  0.23584  0.45243  0.23502  1.0000
  H   H75       1.0  0.19264  0.12566  0.22876  1.0000
  H   H76       1.0  0.23547  0.27468  0.08765  1.0000
  H   H77       1.0  0.04257  0.32442  0.26876  1.0000
  H   H78       1.0  0.17520  0.16376  0.24164  1.0000
  H   H79       1.0  0.16653  0.14183  0.25151  1.0000
  H   H80       1.0  0.20523  0.15447  0.26522  1.0000
  H   H81       1.0  0.02396  0.33398  0.28643  1.0000
  C   C54       1.0  0.07367  0.27119  0.17403  1.0000
  H   H82       1.0  0.22430  0.14214  0.24962  1.0000
  C   C55       1.0  0.13499  0.35584  0.17165  1.0000
  H   H83       1.0  0.23694  0.41916  0.22623  1.0000
  N   N6        1.0  0.07403  0.27545  0.19216  1.0000
  C   C56       1.0  0.05554  0.27417  0.20529  1.0000
  C   C57       1.0  0.07754  0.29503  0.18866  1.0000
  C   C58       1.0  0.08931  0.26141  0.20065  1.0000
  H   H84       1.0  0.04368  0.28454  0.19928  1.0000
  H   H85       1.0  0.05251  0.25952  0.20851  1.0000
  H   H86       1.0  0.05527  0.27746  0.21901  1.0000
  H   H87       1.0  0.07822  0.29864  0.20200  1.0000
  H   H88       1.0  0.08700  0.24648  0.20373  1.0000
  H   H89       1.0  0.08998  0.26431  0.21432  1.0000
  H   H90       1.0  0.10345  0.26192  0.19102  1.0000
  C   C59       1.0  0.23685  0.00959  0.15596  1.0000
  Fe  Fe12      1.0  0.14128  0.47051  0.20589  1.0000
  H   H91       1.0  0.21783  0.17314  0.97737  1.0000
  H   H92       1.0  0.21055  0.43660  0.29159  1.0000
  S   S22       1.0  0.20254  0.47805  0.28427  1.0000
  S   S23       1.0  0.10731  0.13881  0.30567  1.0000
  C   C60       1.0  0.10907  0.34558  0.19622  1.0000
  C   C61       1.0  0.21679  0.30034  0.11614  1.0000
  N   N7        1.0  0.14052  0.02012  0.29082  1.0000
  H   H93       1.0  0.12630  0.04917  0.29250  1.0000
  S   S24       1.0  0.02795  0.36584  0.21883  1.0000
  H   H94       1.0  0.02959  0.27424  0.26156  1.0000
  C   C62       1.0  0.13505  0.41099  0.14682  1.0000
  C   C63       1.0  0.23595  0.26726  0.07636  1.0000
  S   S25       1.0  0.13031  0.45514  0.19003  1.0000
  H   H95       1.0  0.20923  0.16371  0.23992  1.0000
  C   C64       1.0  0.10269  0.37251  0.17051  1.0000
  C   C65       1.0  0.19675  0.46194  0.27427  1.0000
  S   S26       1.0  0.17150  0.45500  0.19915  1.0000
  H   H96       1.0  0.12231  0.38866  0.18492  1.0000
  H   H97       1.0  0.12810  0.36854  0.20367  1.0000
  H   H98       1.0  0.18198  0.48439  0.25498  1.0000
  H   H99       1.0  0.14107  0.36824  0.16236  1.0000
  H   H100      1.0  0.07256  0.29420  0.30367  1.0000
  S   S27       1.0  0.12328  0.31429  0.00163  1.0000
  H   H101      1.0  0.10168  0.36341  0.16125  1.0000
  C   C66       1.0  0.23034  0.27052  0.04515  1.0000
  H   H102      1.0  0.16579  0.47032  0.15934  1.0000
  H   H103      1.0  0.22050  0.26031  0.05079  1.0000
  C   C67       1.0  0.11769  0.37548  0.19431  1.0000
  C   C68       1.0  0.20198  0.13433  0.23053  1.0000
  H   H104      1.0  0.17256  0.24682  0.97966  1.0000
  Fe  Fe13      1.0  0.23047  0.46817  0.29373  1.0000
  H   H105      1.0  0.05571  0.28643  0.29581  1.0000
  C   C69       1.0  0.22559  0.28301  0.12664  1.0000
  H   H106      1.0  0.15943  0.99254  0.29171  1.0000
  H   H107      1.0  0.20588  0.30293  0.05286  1.0000
  Fe  Fe14      1.0  0.04037  0.23779  0.29931  1.0000
  C   C70       1.0  0.16961  0.47882  0.12160  1.0000
  S   S28       1.0  0.23962  0.15554  0.20059  1.0000
  H   H108      1.0  0.23171  0.04346  0.13141  1.0000
  H   H109      1.0  0.06901  0.32923  0.30211  1.0000
  H   H110      1.0  0.23524  0.02435  0.11935  1.0000
  H   H111      1.0  0.22881  0.15005  0.28821  1.0000
  C   C71       1.0  0.21411  0.12697  0.30265  1.0000
  H   H112      1.0  0.20845  0.15182  0.98816  1.0000
  H   H113      1.0  0.23522  0.46085  0.24560  1.0000
  H   H114      1.0  0.22185  0.44832  0.23810  1.0000
  H   H115      1.0  0.17103  0.01242  0.28586  1.0000
  H   H116      1.0  0.10942  0.47423  0.27351  1.0000
  H   H117      1.0  0.15183  0.04526  0.28688  1.0000
  H   H118      1.0  0.22606  0.28049  0.03219  1.0000
  H   H119      1.0  0.12587  0.48030  0.15048  1.0000
  H   H120      1.0  0.14397  0.45969  0.14608  1.0000
  H   H121      1.0  0.17578  0.46350  0.12724  1.0000
  C   C72       1.0  0.13846  0.47501  0.13996  1.0000
  C   C73       1.0  0.23177  0.09507  0.29929  1.0000
  H   H122      1.0  0.23744  0.46216  0.22073  1.0000
  H   H123      1.0  0.23596  0.41777  0.25954  1.0000
  H   H124      1.0  0.13352  0.47532  0.12703  1.0000
  C   C74       1.0  0.21526  0.10712  0.30692  1.0000
  H   H125      1.0  0.23957  0.30481  0.03851  1.0000
  H   H126      1.0  0.23903  0.04774  0.25802  1.0000
  Fe  Fe15      1.0  0.14231  0.25170  0.42773  1.0000
  S   S29       1.0  0.15925  0.22280  0.43898  1.0000
  S   S30       1.0  0.15021  0.27991  0.42600  1.0000
  Fe  Fe16      1.0  0.10948  0.23483  0.42534  1.0000
  S   S31       1.0  0.12406  0.20500  0.43671  1.0000
  S   S32       1.0  0.08014  0.23485  0.42198  1.0000
  Fe  Fe17      1.0  0.13133  0.21736  0.45756  1.0000
  S   S33       1.0  0.12358  0.20567  0.48916  1.0000
  Fe  Fe18      1.0  0.15019  0.21326  0.41694  1.0000
  S   S34       1.0  0.16813  0.19434  0.39684  1.0000
  S   S35       1.0  0.11487  0.24676  0.44768  1.0000
  S   S36       1.0  0.13527  0.24267  0.40414  1.0000
  Fe  Fe19      1.0  0.17438  0.21981  0.60223  1.0000
  S   S37       1.0  0.15808  0.24867  0.60755  1.0000
  H   H127      1.0  0.21234  0.30464  0.53114  1.0000
  Fe  Fe20      1.0  0.16761  0.22912  0.56156  1.0000
  S   S38       1.0  0.15016  0.25832  0.56409  1.0000
  S   S39       1.0  0.17816  0.22168  0.53265  1.0000
  Fe  Fe21      1.0  0.17259  0.26051  0.57798  1.0000
  S   S40       1.0  0.18828  0.28479  0.56630  1.0000
  Fe  Fe22      1.0  0.13715  0.24364  0.59339  1.0000
  S   S41       1.0  0.10558  0.24776  0.60514  1.0000
  S   S42       1.0  0.19084  0.23213  0.57384  1.0000
  S   S43       1.0  0.15268  0.21397  0.58965  1.0000
  H   H128      1.0  0.21429  0.25032  0.43828  1.0000
  H   H129      1.0  0.20326  0.10107  0.31565  1.0000
  S   S44       1.0  0.21756  0.33461  0.44752  1.0000
  H   H130      1.0  0.19467  0.30989  0.44041  1.0000
  H   H131      1.0  0.15181  0.30155  0.48726  1.0000
  H   H132      1.0  0.16782  0.99311  0.61669  1.0000
  H   H133      1.0  0.21059  0.22981  0.60452  1.0000
  H   H134      1.0  0.14430  0.00470  0.61294  1.0000
  H   H135      1.0  0.23261  0.23789  0.59576  1.0000
  H   H136      1.0  0.03932  0.28942  0.62662  1.0000
  Fe  Fe23      1.0  0.16926  0.12664  0.32396  1.0000
  H   H137      1.0  0.22359  0.29100  0.48464  1.0000
  S   S45       1.0  0.10813  0.00304  0.35699  1.0000
  S   S46       1.0  0.16944  0.10512  0.35146  1.0000
  H   H138      1.0  0.09882  0.17789  0.34499  1.0000
  Fe  Fe24      1.0  0.12949  0.12479  0.32298  1.0000
  S   S47       1.0  0.12599  0.10331  0.35064  1.0000
  H   H139      1.0  0.19181  0.35164  0.39379  1.0000
  Fe  Fe25      1.0  0.13996  0.12156  0.36033  1.0000
  S   S48       1.0  0.12986  0.13082  0.38833  1.0000
  Fe  Fe26      1.0  0.15568  0.08899  0.33891  1.0000
  S   S49       1.0  0.16692  0.05737  0.33937  1.0000
  S   S50       1.0  0.14080  0.14417  0.33362  1.0000
  H   H140      1.0  0.09285  0.21338  0.34238  1.0000
  H   H141      1.0  0.02726  0.32643  0.31955  1.0000
  Fe  Fe27      1.0  0.03861  0.25217  0.33415  1.0000
  H   H142      1.0  0.13959  0.03698  0.31061  1.0000
  S   S51       1.0  0.05516  0.26898  0.34267  1.0000
  C   C75       1.0  0.10333  0.17605  0.35859  1.0000
  Fe  Fe28      1.0  0.23448  0.34987  0.42083  1.0000
  Fe  Fe29      1.0  0.03134  0.21276  0.33831  1.0000
  S   S52       1.0  0.03569  0.18265  0.35524  1.0000
  S   S53       1.0  0.01484  0.23752  0.35161  1.0000
  C   C76       1.0  0.15040  0.04242  0.34454  1.0000
  C   C77       1.0  0.15703  0.02276  0.34480  1.0000
  C   C78       1.0  0.14419  0.01054  0.34872  1.0000
  N   N8        1.0  0.22507  0.28332  0.51423  1.0000
  H   H143      1.0  0.07585  0.23540  0.46097  1.0000
  C   C79       1.0  0.13084  0.04978  0.34814  1.0000
  H   H144      1.0  0.17214  0.01695  0.34214  1.0000
  H   H145      1.0  0.18828  0.34278  0.36490  1.0000
  H   H146      1.0  0.12555  0.06489  0.34790  1.0000
  C   C80       1.0  0.08707  0.15044  0.31956  1.0000
  S   S54       1.0  0.21473  0.31590  0.62427  1.0000
  H   H147      1.0  0.19042  0.23576  0.63549  1.0000
  C   C81       1.0  0.05503  0.16975  0.34155  1.0000
  C   C82       1.0  0.06708  0.15395  0.35037  1.0000
  C   C83       1.0  0.08326  0.14448  0.33938  1.0000
  H   H148      1.0  0.22406  0.34285  0.53063  1.0000
  C   C84       1.0  0.05898  0.17587  0.32177  1.0000
  H   H149      1.0  0.06412  0.14921  0.36566  1.0000
  H   H150      1.0  0.09259  0.13239  0.34625  1.0000
  C   C85       1.0  0.16964  0.26523  0.48713  1.0000
  H   H151      1.0  0.10289  0.04333  0.35503  1.0000
  C   C86       1.0  0.10921  0.25599  0.63769  1.0000
  H   H152      1.0  0.01383  0.29507  0.63276  1.0000
  H   H153      1.0  0.07442  0.23604  0.63400  1.0000
  H   H154      1.0  0.21786  0.35173  0.36633  1.0000
  H   H155      1.0  0.06875  0.17896  0.38078  1.0000
  H   H156      1.0  0.06406  0.23922  0.48429  1.0000
  H   H157      1.0  0.18815  0.14644  0.35473  1.0000
  C   C87       1.0  0.19882  0.24652  0.63474  1.0000
  H   H158      1.0  0.11295  0.21010  0.35287  1.0000
  C   C88       1.0  0.22261  0.27866  0.49705  1.0000
  H   H159      1.0  0.23913  0.38084  0.61809  1.0000
  Fe  Fe30      1.0  0.23767  0.30787  0.44086  1.0000
  S   S55       1.0  0.15820  0.10936  0.31039  1.0000
  H   H160      1.0  0.16297  0.18181  0.61838  1.0000
  H   H161      1.0  0.05736  0.21136  0.51048  1.0000
  C   C89       1.0  0.18035  0.17992  0.63800  1.0000
  H   H162      1.0  0.21473  0.39965  0.36410  1.0000
  C   C90       1.0  0.07483  0.16605  0.31077  1.0000
  H   H163      1.0  0.12438  0.00888  0.31802  1.0000
  Fe  Fe31      1.0  0.23972  0.33687  0.46189  1.0000
  H   H164      1.0  0.12875  0.29890  0.48638  1.0000
  H   H165      1.0  0.06430  0.20433  0.37979  1.0000
  N   N9        1.0  0.20757  0.32646  0.38314  1.0000
  S   S56       1.0  0.02449  0.26478  0.30908  1.0000
  C   C91       1.0  0.02697  0.29583  0.63674  1.0000
  C   C92       1.0  0.09746  0.21028  0.35613  1.0000
  C   C93       1.0  0.09882  0.24846  0.62937  1.0000
  C   C94       1.0  0.13918  0.20806  0.50207  1.0000
  C   C95       1.0  0.13229  0.21085  0.52072  1.0000
  C   C96       1.0  0.14425  0.21450  0.53057  1.0000
  C   C97       1.0  0.16321  0.21505  0.52186  1.0000
  C   C98       1.0  0.17021  0.21157  0.50348  1.0000
  C   C99       1.0  0.15822  0.20822  0.49355  1.0000
  H   H166      1.0  0.11759  0.21066  0.52740  1.0000
  H   H167      1.0  0.13878  0.21710  0.54478  1.0000
  H   H168      1.0  0.18491  0.21183  0.49674  1.0000
  H   H169      1.0  0.16371  0.20582  0.47929  1.0000
  C   C100      1.0  0.15631  0.17770  0.39432  1.0000
  C   C101      1.0  0.14518  0.16778  0.41010  1.0000
  C   C102      1.0  0.13682  0.15366  0.40807  1.0000
  C   C103      1.0  0.13969  0.14924  0.39030  1.0000
  C   C104      1.0  0.15065  0.15928  0.37448  1.0000
  C   C105      1.0  0.15892  0.17349  0.37648  1.0000
  H   H170      1.0  0.14361  0.17045  0.42402  1.0000
  H   H171      1.0  0.12848  0.14582  0.42039  1.0000
  H   H172      1.0  0.15301  0.15595  0.36074  1.0000
  H   H173      1.0  0.16752  0.18112  0.36422  1.0000
  C   C106      1.0  0.07415  0.24367  0.39945  1.0000
  C   C107      1.0  0.05857  0.23863  0.39615  1.0000
  C   C108      1.0  0.05297  0.24595  0.37859  1.0000
  C   C109      1.0  0.06262  0.25874  0.36438  1.0000
  C   C110      1.0  0.07828  0.26369  0.36763  1.0000
  C   C111      1.0  0.08421  0.25597  0.38504  1.0000
  H   H174      1.0  0.05069  0.22919  0.40728  1.0000
  H   H175      1.0  0.04082  0.24215  0.37625  1.0000
  H   H176      1.0  0.08583  0.27356  0.35669  1.0000
  H   H177      1.0  0.09619  0.25998  0.38749  1.0000
  C   C112      1.0  0.03813  0.31346  0.31667  1.0000
  H   H178      1.0  0.15075  0.15257  0.63612  1.0000
  C   C113      1.0  0.18971  0.30151  0.61340  1.0000
  C   C114      1.0  0.18393  0.29417  0.60075  1.0000
  C   C115      1.0  0.19494  0.29394  0.58248  1.0000
  C   C116      1.0  0.21176  0.30094  0.57693  1.0000
  H   H179      1.0  0.12673  0.27461  0.51664  1.0000
  H   H180      1.0  0.17082  0.28895  0.60503  1.0000
  C   C117      1.0  0.19711  0.33602  0.39899  1.0000
  H   H181      1.0  0.17740  0.27336  0.49202  1.0000
  C   C118      1.0  0.20661  0.28021  0.43966  1.0000
  C   C119      1.0  0.19242  0.29685  0.43817  1.0000
  C   C120      1.0  0.17526  0.29660  0.43379  1.0000
  C   C121      1.0  0.17206  0.27967  0.43113  1.0000
  C   C122      1.0  0.18619  0.26300  0.43279  1.0000
  C   C123      1.0  0.20339  0.26328  0.43708  1.0000
  H   H182      1.0  0.16431  0.30950  0.43263  1.0000
  H   H183      1.0  0.18400  0.24993  0.43060  1.0000
  H   H184      1.0  0.08429  0.20274  0.45456  1.0000
  Fe  Fe32      1.0  0.00243  0.24738  0.32529  1.0000
  H   H185      1.0  0.10067  0.16190  0.36753  1.0000
  H   H186      1.0  0.09151  0.20009  0.39444  1.0000
  N   N10       1.0  0.09314  0.19192  0.36834  1.0000
  H   H187      1.0  0.20859  0.27485  0.49932  1.0000
  C   C124      1.0  0.06784  0.20178  0.50165  1.0000
  C   C125      1.0  0.12463  0.01790  0.35243  1.0000
  H   H188      1.0  0.09681  0.17455  0.39581  1.0000
  H   H189      1.0  0.06366  0.18758  0.50578  1.0000
  S   S57       1.0  0.22123  0.37066  0.39732  1.0000
  H   H190      1.0  0.07937  0.18260  0.47338  1.0000
  H   H191      1.0  0.23097  0.31274  0.58545  1.0000
  H   H192      1.0  0.11468  0.18842  0.38406  1.0000
  H   H193      1.0  0.08852  0.22735  0.47998  1.0000
  H   H194      1.0  0.22460  0.30463  0.40095  1.0000
  H   H195      1.0  0.18114  0.30178  0.62751  1.0000
  C   C126      1.0  0.21773  0.30786  0.58969  1.0000
  H   H196      1.0  0.04982  0.18812  0.31484  1.0000
  H   H197      1.0  0.11893  0.17513  0.35529  1.0000
  H   H198      1.0  0.22039  0.30078  0.56285  1.0000
  C   C127      1.0  0.22601  0.40241  0.36899  1.0000
  H   H199      1.0  0.18248  0.32036  0.37889  1.0000
  H   H200      1.0  0.14925  0.27784  0.51852  1.0000
  H   H201      1.0  0.05077  0.21919  0.46090  1.0000
  H   H202      1.0  0.19415  0.15505  0.38267  1.0000
  H   H203      1.0  0.17368  0.24984  0.49404  1.0000
  H   H204      1.0  0.14212  0.24605  0.49118  1.0000
  S   S58       1.0  0.22841  0.28002  0.44482  1.0000
  H   H205      1.0  0.12365  0.26671  0.48717  1.0000
  N   N11       1.0  0.14889  0.27236  0.49170  1.0000
  C   C128      1.0  0.11800  0.03754  0.35217  1.0000
  H   H206      1.0  0.21878  0.15269  0.37166  1.0000
  H   H207      1.0  0.14433  0.26268  0.46875  1.0000
  N   N12       1.0  0.20677  0.12861  0.37320  1.0000
  C   C129      1.0  0.20791  0.14458  0.38105  1.0000
  C   C130      1.0  0.19189  0.11856  0.38598  1.0000
  C   C131      1.0  0.22525  0.11497  0.37156  1.0000
  C   C132      1.0  0.23884  0.33667  0.52581  1.0000
  C   C133      1.0  0.08246  0.24194  0.64039  1.0000
  C   C134      1.0  0.21806  0.24107  0.60446  1.0000
  H   H208      1.0  0.02737  0.31125  0.63450  1.0000
  H   H209      1.0  0.20634  0.33479  0.40900  1.0000
  H   H210      1.0  0.19587  0.29711  0.52245  1.0000
  C   C135      1.0  0.21039  0.30019  0.51876  1.0000
  C   C136      1.0  0.99324  0.18347  0.32967  1.0000
  H   H211      1.0  0.22926  0.10883  0.38565  1.0000
  H   H212      1.0  0.14945  0.99537  0.34926  1.0000
  S   S59       1.0  0.05614  0.22646  0.32300  1.0000
  H   H213      1.0  0.00819  0.18159  0.33107  1.0000
  H   H214      1.0  0.15921  0.00442  0.30988  1.0000
  C   C137      1.0  0.23484  0.40281  0.63381  1.0000
  C   C138      1.0  0.05022  0.21283  0.47635  1.0000
  H   H215      1.0  0.20189  0.32053  0.35871  1.0000
  H   H216      1.0  0.09009  0.22252  0.36314  1.0000
  H   H217      1.0  0.22267  0.27063  0.61565  1.0000
  H   H218      1.0  0.22414  0.29864  0.37931  1.0000
  C   C139      1.0  0.07456  0.22884  0.47640  1.0000
  C   C140      1.0  0.22326  0.26674  0.53039  1.0000
  H   H219      1.0  0.20132  0.12458  0.34775  1.0000
  C   C141      1.0  0.09926  0.18860  0.38648  1.0000
  H   H220      1.0  0.17772  0.12836  0.38746  1.0000
  N   N13       1.0  0.06891  0.21009  0.48115  1.0000
  S   S60       1.0  0.23641  0.48354  0.31313  1.0000
  H   H221      1.0  0.21151  0.13935  0.39536  1.0000
  H   H222      1.0  0.21288  0.14407  0.34411  1.0000
  C   C142      1.0  0.22907  0.25627  0.62327  1.0000
  C   C143      1.0  0.22324  0.33621  0.37196  1.0000
  H   H223      1.0  0.06745  0.19575  0.35865  1.0000
  H   H224      1.0  0.03072  0.30125  0.32022  1.0000
  H   H225      1.0  0.12153  0.26152  0.62922  1.0000
  C   C144      1.0  0.19449  0.32759  0.37084  1.0000
  H   H226      1.0  0.04553  0.19897  0.47957  1.0000
  H   H227      1.0  0.03911  0.22269  0.48439  1.0000
  H   H228      1.0  0.20393  0.29808  0.39855  1.0000
  S   S61       1.0  0.18918  0.20073  0.62555  1.0000
  C   C145      1.0  0.07251  0.19278  0.37212  1.0000
  H   H229      1.0  0.20893  0.26320  0.53373  1.0000
  C   C146      1.0  0.20668  0.30829  0.60791  1.0000
  C   C147      1.0  0.21541  0.30609  0.39079  1.0000
  C   C148      1.0  0.13931  0.26151  0.48438  1.0000
  H   H230      1.0  0.99842  0.16743  0.36509  1.0000
  S   S62       1.0  0.01736  0.22136  0.31339  1.0000
  C   C149      1.0  0.14425  0.29294  0.48271  1.0000
  H   H231      1.0  0.14591  0.25439  0.51978  1.0000
  H   H232      1.0  0.22522  0.26979  0.54351  1.0000
  C   C150      1.0  0.23427  0.41832  0.35922  1.0000
  C   C151      1.0  0.23207  0.39032  0.38520  1.0000
  H   H233      1.0  0.08188  0.19956  0.50551  1.0000
  S   S63       1.0  0.19286  0.14247  0.30980  1.0000
  C   C152      1.0  0.14237  0.26975  0.51254  1.0000
  C   C153      1.0  0.22790  0.22261  0.63350  1.0000
  H   H234      1.0  0.14829  0.29523  0.46696  1.0000
  H   H235      1.0  0.17501  0.26646  0.47160  1.0000
  H   H236      1.0  0.23139  0.32959  0.35973  1.0000
  C   C154      1.0  0.08311  0.19693  0.47011  1.0000
  C   C155      1.0  0.20209  0.13626  0.35417  1.0000
  H   H237      1.0  0.09743  0.19463  0.47327  1.0000
  H   H238      1.0  0.99215  0.17039  0.32564  1.0000
  H   H239      1.0  0.04783  0.30998  0.32677  1.0000
  H   H240      1.0  0.18464  0.32970  0.40721  1.0000
  H   H241      1.0  0.15536  0.01377  0.62648  1.0000
  C   C156      1.0  0.16745  0.17388  0.63140  1.0000
  H   H242      1.0  0.23337  0.33557  0.38084  1.0000
  N   N14       1.0  0.21847  0.24163  0.62400  1.0000
  H   H243      1.0  0.19061  0.10641  0.38053  1.0000
  H   H244      1.0  0.19486  0.11271  0.40051  1.0000
  H   H245      1.0  0.22909  0.25770  0.63774  1.0000
  H   H246      1.0  0.21088  0.31280  0.50663  1.0000
  H   H247      1.0  0.22917  0.42781  0.34702  1.0000
  H   H248      1.0  0.19123  0.26072  0.62793  1.0000
  S   S64       1.0  0.23000  0.34419  0.49088  1.0000
  H   H249      1.0  0.21049  0.25500  0.59705  1.0000
  H   H250      1.0  0.22484  0.10278  0.36562  1.0000
  H   H251      1.0  0.23372  0.26630  0.49290  1.0000
  H   H252      1.0  0.23679  0.12207  0.36197  1.0000
  H   H253      1.0  0.99639  0.20232  0.35472  1.0000
  C   C157      1.0  0.15360  0.00040  0.62350  1.0000
  H   H254      1.0  0.22015  0.21126  0.63436  1.0000
  H   H255      1.0  0.23394  0.25368  0.52739  1.0000
  H   H256      1.0  0.11664  0.00240  0.63994  1.0000
  H   H257      1.0  0.22035  0.40162  0.64050  1.0000
  N   N15       1.0  0.14549  0.98776  0.64107  1.0000
  Fe  Fe33      1.0  0.01519  0.34531  0.83049  1.0000
  H   H258      1.0  0.10476  0.17795  0.71433  1.0000
  H   H259      1.0  0.11067  0.36089  0.88123  1.0000
  Fe  Fe34      1.0  0.16185  0.11229  0.70026  1.0000
  Fe  Fe35      1.0  0.05337  0.24242  0.70965  1.0000
  C   C158      1.0  0.01098  0.29447  0.66955  1.0000
  H   H260      1.0  0.13626  0.18565  0.69737  1.0000
  H   H261      1.0  0.07090  0.13874  0.73159  1.0000
  H   H262      1.0  0.18396  0.14444  0.67786  1.0000
  H   H263      1.0  0.13141  0.05665  0.71627  1.0000
  C   C159      1.0  0.04524  0.28705  0.66124  1.0000
  H   H264      1.0  0.05807  0.28119  0.65130  1.0000
  H   H265      1.0  0.12472  0.34270  0.86875  1.0000
  C   C160      1.0  0.17589  0.24811  0.96443  1.0000
  C   C161      1.0  0.17607  0.44203  0.77404  1.0000
  H   H266      1.0  0.01261  0.39751  0.80101  1.0000
  C   C162      1.0  0.18791  0.41673  0.68320  1.0000
  H   H267      1.0  0.02833  0.29908  0.80478  1.0000
  C   C163      1.0  0.02243  0.27918  0.79157  1.0000
  C   C164      1.0  0.03241  0.29247  0.79265  1.0000
  Fe  Fe36      1.0  0.04556  0.36859  0.81215  1.0000
  H   H268      1.0  0.22387  0.30203  0.94983  1.0000
  Fe  Fe37      1.0  0.15125  0.42831  0.83294  1.0000
  S   S65       1.0  0.16905  0.39868  0.83814  1.0000
  C   C165      1.0  0.20000  0.04602  0.75643  1.0000
  N   N16       1.0  0.16522  0.12396  0.79204  1.0000
  S   S66       1.0  0.13115  0.43294  0.81387  1.0000
  H   H269      1.0  0.16536  0.41554  0.71853  1.0000
  Fe  Fe38      1.0  0.14322  0.30878  0.93352  1.0000
  S   S67       1.0  0.11422  0.31049  0.95232  1.0000
  S   S68       1.0  0.15874  0.28502  0.91832  1.0000
  Fe  Fe39      1.0  0.14630  0.34819  0.93558  1.0000
  S   S69       1.0  0.11754  0.35354  0.95433  1.0000
  S   S70       1.0  0.16343  0.37112  0.92619  1.0000
  Fe  Fe40      1.0  0.12631  0.32321  0.96981  1.0000
  Fe  Fe41      1.0  0.10833  0.34063  0.93507  1.0000
  S   S71       1.0  0.08322  0.35618  0.92162  1.0000
  S   S72       1.0  0.15590  0.31886  0.95232  1.0000
  S   S73       1.0  0.13641  0.33787  0.91500  1.0000
  C   C166      1.0  0.16121  0.01325  0.72473  1.0000
  S   S74       1.0  0.06897  0.34266  0.81120  1.0000
  S   S75       1.0  0.05188  0.39810  0.79980  1.0000
  Fe  Fe42      1.0  0.05417  0.33181  0.84091  1.0000
  S   S76       1.0  0.07339  0.31522  0.86123  1.0000
  Fe  Fe43      1.0  0.04916  0.33017  0.80225  1.0000
  S   S77       1.0  0.06042  0.31379  0.77880  1.0000
  Fe  Fe44      1.0  0.03830  0.20708  0.73150  1.0000
  S   S78       1.0  0.08260  0.43455  0.85056  1.0000
  Fe  Fe45      1.0  0.02534  0.24314  0.74754  1.0000
  C   C167      1.0  0.18631  0.16922  0.65478  1.0000
  S   S79       1.0  0.00937  0.22371  0.74238  1.0000
  S   S80       1.0  0.05413  0.22496  0.73919  1.0000
  H   H270      1.0  0.01060  0.30993  0.66813  1.0000
  Fe  Fe46      1.0  0.18704  0.09926  0.72937  1.0000
  S   S81       1.0  0.16391  0.08856  0.75239  1.0000
  S   S82       1.0  0.21541  0.09095  0.73788  1.0000
  Fe  Fe47      1.0  0.15883  0.07561  0.73062  1.0000
  Fe  Fe48      1.0  0.14469  0.11535  0.74057  1.0000
  S   S83       1.0  0.12513  0.13473  0.75936  1.0000
  H   H271      1.0  0.22004  0.00708  0.73675  1.0000
  S   S84       1.0  0.16836  0.12752  0.71938  1.0000
  H   H272      1.0  0.11900  0.03878  0.69988  1.0000
  H   H273      1.0  0.01076  0.27549  0.80298  1.0000
  H   H274      1.0  0.12742  0.38232  0.91500  1.0000
  H   H275      1.0  0.12019  0.98883  0.66304  1.0000
  Fe  Fe49      1.0  0.13836  0.46207  0.80319  1.0000
  H   H276      1.0  0.22851  0.22253  0.64825  1.0000
  S   S85       1.0  0.03930  0.22346  0.70136  1.0000
  C   C168      1.0  0.09233  0.41778  0.89911  1.0000
  H   H277      1.0  0.20476  0.05515  0.76322  1.0000
  H   H278      1.0  0.14686  0.10613  0.81187  1.0000
  C   C169      1.0  0.14787  0.11592  0.79761  1.0000
  H   H279      1.0  0.08501  0.41436  0.93660  1.0000
  H   H280      1.0  0.15269  0.14685  0.80699  1.0000
  H   H281      1.0  0.16653  0.12918  0.76200  1.0000
  S   S86       1.0  0.02617  0.26247  0.71875  1.0000
  H   H282      1.0  0.20790  0.48465  0.72199  1.0000
  C   C170      1.0  0.13792  0.04180  0.71593  1.0000
  C   C171      1.0  0.21292  0.40714  0.70086  1.0000
  C   C172      1.0  0.06788  0.16372  0.74269  1.0000
  C   C173      1.0  0.07605  0.17252  0.75208  1.0000
  C   C174      1.0  0.09352  0.16343  0.75734  1.0000
  C   C175      1.0  0.10308  0.14564  0.75294  1.0000
  C   C176      1.0  0.09490  0.13679  0.74361  1.0000
  H   H283      1.0  0.13789  0.35185  0.83392  1.0000
  H   H284      1.0  0.06872  0.18612  0.75570  1.0000
  H   H285      1.0  0.09967  0.17026  0.76474  1.0000
  H   H286      1.0  0.10195  0.12290  0.74051  1.0000
  H   H287      1.0  0.17816  0.14400  0.76881  1.0000
  C   C177      1.0  0.04761  0.29719  0.77797  1.0000
  C   C178      1.0  0.05282  0.28848  0.76232  1.0000
  C   C179      1.0  0.04268  0.27540  0.76113  1.0000
  C   C180      1.0  0.02739  0.27082  0.77570  1.0000
  H   H288      1.0  0.06461  0.29202  0.75097  1.0000
  H   H289      1.0  0.04667  0.26897  0.74886  1.0000
  C   C181      1.0  0.08030  0.34470  0.90503  1.0000
  C   C182      1.0  0.09198  0.32704  0.90237  1.0000
  C   C183      1.0  0.08973  0.31816  0.88888  1.0000
  C   C184      1.0  0.07591  0.32692  0.87788  1.0000
  C   C185      1.0  0.06444  0.34473  0.88031  1.0000
  C   C186      1.0  0.06660  0.35358  0.89391  1.0000
  H   H290      1.0  0.10261  0.32009  0.91087  1.0000
  H   H291      1.0  0.09865  0.30437  0.88709  1.0000
  H   H292      1.0  0.05374  0.35159  0.87194  1.0000
  H   H293      1.0  0.05759  0.36727  0.89587  1.0000
  C   C187      1.0  0.16971  0.39089  0.86224  1.0000
  C   C188      1.0  0.17173  0.37131  0.87057  1.0000
  C   C189      1.0  0.17045  0.36510  0.89022  1.0000
  C   C190      1.0  0.16753  0.37844  0.90146  1.0000
  C   C191      1.0  0.16639  0.39792  0.89300  1.0000
  C   C192      1.0  0.16723  0.40419  0.87340  1.0000
  H   H294      1.0  0.17391  0.36100  0.86190  1.0000
  H   H295      1.0  0.17183  0.34999  0.89667  1.0000
  H   H296      1.0  0.16434  0.40822  0.90166  1.0000
  H   H297      1.0  0.16611  0.41929  0.86691  1.0000
  C   C193      1.0  0.07482  0.42395  0.83630  1.0000
  C   C194      1.0  0.06451  0.40937  0.84489  1.0000
  C   C195      1.0  0.05814  0.40076  0.83373  1.0000
  C   C196      1.0  0.06141  0.40723  0.81397  1.0000
  C   C197      1.0  0.07174  0.42179  0.80541  1.0000
  C   C198      1.0  0.07875  0.42989  0.81653  1.0000
  H   H298      1.0  0.08957  0.17371  0.70145  1.0000
  H   H299      1.0  0.05033  0.38947  0.84050  1.0000
  H   H300      1.0  0.07434  0.42684  0.79014  1.0000
  H   H301      1.0  0.08669  0.44115  0.80981  1.0000
  Fe  Fe50      1.0  0.01197  0.24195  0.71296  1.0000
  S   S87       1.0  0.22407  0.42247  0.73859  1.0000
  H   H302      1.0  0.99601  0.29990  0.76646  1.0000
  H   H303      1.0  0.14750  0.10767  0.78725  1.0000
  H   H304      1.0  0.13482  0.12748  0.79798  1.0000
  H   H305      1.0  0.11115  0.26332  0.66311  1.0000
  H   H306      1.0  0.12821  0.41343  0.92137  1.0000
  C   C199      1.0  0.21693  0.13790  0.75533  1.0000
  C   C200      1.0  0.21296  0.12599  0.74562  1.0000
  C   C201      1.0  0.22009  0.10621  0.74977  1.0000
  H   H307      1.0  0.11289  0.40120  0.83920  1.0000
  C   C202      1.0  0.10689  0.20238  0.68017  1.0000
  S   S88       1.0  0.22724  0.11638  0.83618  1.0000
  H   H308      1.0  0.20467  0.13214  0.73470  1.0000
  H   H309      1.0  0.08323  0.43108  0.90342  1.0000
  H   H310      1.0  0.22216  0.26626  0.92356  1.0000
  C   C203      1.0  0.19341  0.43097  0.76659  1.0000
  C   C204      1.0  0.13867  0.01213  0.70695  1.0000
  S   S89       1.0  0.03192  0.35872  0.84260  1.0000
  H   H311      1.0  0.11463  0.21016  0.66662  1.0000
  C   C205      1.0  0.16640  0.14664  0.65827  1.0000
  H   H312      1.0  0.12785  0.01109  0.65373  1.0000
  H   H313      1.0  0.18643  0.29798  0.92782  1.0000
  H   H314      1.0  0.16027  0.99529  0.65842  1.0000
  C   C206      1.0  0.19031  0.23450  0.95628  1.0000
  N   N17       1.0  0.99288  0.41316  0.82095  1.0000
  C   C207      1.0  0.16602  0.26367  0.95284  1.0000
  C   C208      1.0  0.17027  0.26533  0.93314  1.0000
  C   C209      1.0  0.18441  0.25152  0.92505  1.0000
  C   C210      1.0  0.19449  0.23620  0.93659  1.0000
  H   H315      1.0  0.22880  0.47997  0.76344  1.0000
  C   C211      1.0  0.22676  0.15072  0.95198  1.0000
  H   H316      1.0  0.18765  0.25276  0.90983  1.0000
  H   H317      1.0  0.20521  0.22554  0.93021  1.0000
  H   H318      1.0  0.09851  0.37717  0.83335  1.0000
  H   H319      1.0  0.19460  0.37861  0.71997  1.0000
  H   H320      1.0  0.09994  0.42208  0.88422  1.0000
  C   C212      1.0  0.07724  0.14572  0.73868  1.0000
  H   H321      1.0  0.10309  0.35265  0.84632  1.0000
  C   C213      1.0  0.11783  0.39066  0.90515  1.0000
  C   C214      1.0  0.22743  0.12998  0.76967  1.0000
  H   H322      1.0  0.23094  0.31599  0.90668  1.0000
  H   H323      1.0  0.12881  0.39413  0.85529  1.0000
  C   C215      1.0  0.11598  0.39111  0.85258  1.0000
  H   H324      1.0  0.14415  0.18579  0.67240  1.0000
  H   H325      1.0  0.09185  0.20478  0.67894  1.0000
  C   C216      1.0  0.19198  0.45086  0.73533  1.0000
  H   H326      1.0  0.20175  0.29324  0.90609  1.0000
  S   S90       1.0  0.03607  0.31719  0.83194  1.0000
  Fe  Fe51      1.0  0.13584  0.46811  0.84212  1.0000
  S   S91       1.0  0.01368  0.25556  0.77379  1.0000
  H   H327      1.0  0.14852  0.36916  0.83820  1.0000
  H   H328      1.0  0.06412  0.23767  0.66804  1.0000
  H   H329      1.0  0.10375  0.39474  0.86418  1.0000
  H   H330      1.0  0.01118  0.28719  0.68465  1.0000
  C   C217      1.0  0.13087  0.03163  0.70673  1.0000
  H   H331      1.0  0.23653  0.29259  0.90120  1.0000
  H   H332      1.0  0.10453  0.39497  0.94150  1.0000
  C   C218      1.0  0.10166  0.36784  0.84707  1.0000
  H   H333      1.0  0.17314  0.00621  0.73147  1.0000
  H   H334      1.0  0.19776  0.45419  0.72038  1.0000
  H   H335      1.0  0.13568  0.35996  0.87261  1.0000
  H   H336      1.0  0.11079  0.15633  0.70549  1.0000
  N   N18       1.0  0.11554  0.18169  0.68416  1.0000
  S   S92       1.0  0.02707  0.35733  0.80005  1.0000
  N   N19       1.0  0.21587  0.29544  0.92697  1.0000
  H   H337      1.0  0.21641  0.18904  0.94379  1.0000
  H   H338      1.0  0.01382  0.26365  0.65586  1.0000
  C   C219      1.0  0.00140  0.41077  0.80128  1.0000
  H   H339      1.0  0.19525  0.47825  0.76503  1.0000
  N   N20       1.0  0.10571  0.40780  0.91188  1.0000
  H   H340      1.0  0.99472  0.38284  0.83188  1.0000
  H   H341      1.0  0.03934  0.25816  0.64910  1.0000
  H   H342      1.0  0.14839  0.00281  0.76794  1.0000
  C   C220      1.0  0.11520  0.17317  0.66847  1.0000
  H   H343      1.0  0.22791  0.14739  0.93797  1.0000
  H   H344      1.0  0.17610  0.38560  0.70661  1.0000
  C   C221      1.0  0.19954  0.30116  0.91752  1.0000
  H   H345      1.0  0.00836  0.42290  0.79274  1.0000
  H   H346      1.0  0.19134  0.19057  0.94965  1.0000
  H   H347      1.0  0.01536  0.42604  0.82196  1.0000
  C   C222      1.0  0.20519  0.18114  0.94494  1.0000
  C   C223      1.0  0.16572  0.13700  0.77313  1.0000
  H   H348      1.0  0.19852  0.24714  0.64954  1.0000
  H   H349      1.0  0.18323  0.10030  0.78009  1.0000
  H   H350      1.0  0.11804  0.00066  0.79145  1.0000
  H   H351      1.0  0.23665  0.08305  0.76695  1.0000
  H   H352      1.0  0.22966  0.13681  0.96221  1.0000
  Fe  Fe52      1.0  0.24053  0.43626  0.71080  1.0000
  S   S93       1.0  0.15658  0.12651  0.67089  1.0000
  H   H353      1.0  0.12621  0.42551  0.89754  1.0000
  C   C224      1.0  0.23109  0.09836  0.76369  1.0000
  H   H354      1.0  0.21746  0.39950  0.71449  1.0000
  H   H355      1.0  0.18102  0.43185  0.71342  1.0000
  C   C225      1.0  0.19294  0.15225  0.95927  1.0000
  H   H356      1.0  0.10919  0.38086  0.90426  1.0000
  C   C226      1.0  0.16688  0.45781  0.76222  1.0000
  H   H357      1.0  0.16742  0.47392  0.73350  1.0000
  H   H358      1.0  0.17855  0.16070  0.96408  1.0000
  C   C227      1.0  0.13540  0.17911  0.68589  1.0000
  H   H359      1.0  0.18982  0.43187  0.67930  1.0000
  C   C228      1.0  0.08686  0.25067  0.66788  1.0000
  C   C229      1.0  0.18211  0.10816  0.79129  1.0000
  C   C230      1.0  0.16522  0.13477  0.80610  1.0000
  H   H360      1.0  0.19536  0.11370  0.78806  1.0000
  H   H361      1.0  0.18185  0.09760  0.80509  1.0000
  H   H362      1.0  0.17821  0.14099  0.80226  1.0000
  H   H363      1.0  0.16493  0.12538  0.82053  1.0000
  N   N21       1.0  0.19302  0.40668  0.70172  1.0000
  C   C231      1.0  0.12252  0.98899  0.75918  1.0000
  H   H364      1.0  0.18464  0.40993  0.73077  1.0000
  C   C232      1.0  0.18043  0.41638  0.71678  1.0000
  C   C233      1.0  0.19092  0.38652  0.70602  1.0000
  H   H365      1.0  0.10691  0.20936  0.69168  1.0000
  H   H366      1.0  0.99741  0.29320  0.66680  1.0000
  C   C234      1.0  0.00782  0.41421  0.83013  1.0000
  C   C235      1.0  0.23451  0.11018  0.77384  1.0000
  H   H367      1.0  0.20660  0.27032  0.94556  1.0000
  H   H368      1.0  0.22084  0.46811  0.73906  1.0000
  H   H369      1.0  0.10043  0.17468  0.66684  1.0000
  H   H370      1.0  0.23623  0.04902  0.74174  1.0000
  C   C236      1.0  0.23296  0.30032  0.91301  1.0000
  H   H371      1.0  0.21485  0.42214  0.69803  1.0000
  H   H372      1.0  0.18822  0.03986  0.76675  1.0000
  H   H373      1.0  0.12179  0.15756  0.67096  1.0000
  N   N22       1.0  0.08344  0.27050  0.83381  1.0000
  C   C237      1.0  0.06490  0.27133  0.84726  1.0000
  C   C238      1.0  0.08353  0.28899  0.81995  1.0000
  C   C239      1.0  0.08657  0.25499  0.82357  1.0000
  C   C240      1.0  0.09871  0.26679  0.84440  1.0000
  H   H374      1.0  0.06438  0.25768  0.85806  1.0000
  H   H375      1.0  0.05304  0.27408  0.83975  1.0000
  H   H376      1.0  0.06200  0.28305  0.85507  1.0000
  H   H377      1.0  0.09706  0.28883  0.80921  1.0000
  H   H378      1.0  0.07187  0.29246  0.81210  1.0000
  H   H379      1.0  0.08162  0.30098  0.82709  1.0000
  H   H380      1.0  0.08640  0.24080  0.83355  1.0000
  H   H381      1.0  0.10046  0.25393  0.81334  1.0000
  H   H382      1.0  0.07535  0.25764  0.81524  1.0000
  H   H383      1.0  0.11289  0.26632  0.83469  1.0000
  H   H384      1.0  0.09913  0.25293  0.85500  1.0000
  H   H385      1.0  0.09658  0.27829  0.85233  1.0000
  H   H386      1.0  0.14216  0.16360  0.68929  1.0000
  S   S94       1.0  0.14649  0.47319  0.77173  1.0000
  H   H387      1.0  0.19669  0.31682  0.91115  1.0000
  H   H388      1.0  0.12322  0.18018  0.65467  1.0000
  H   H389      1.0  0.04575  0.30217  0.66044  1.0000
  C   C241      1.0  0.23351  0.16718  0.89472  1.0000
  H   H390      1.0  0.20252  0.02773  0.72893  1.0000
  H   H391      1.0  0.12692  0.39462  0.89089  1.0000
  H   H392      1.0  0.19906  0.30212  0.95344  1.0000
  C   C242      1.0  0.11782  0.42075  0.91199  1.0000
  C   C243      1.0  0.17465  0.46193  0.74275  1.0000
  H   H393      1.0  0.21158  0.15324  0.75195  1.0000
  H   H394      1.0  0.17290  0.41696  0.68331  1.0000
  H   H395      1.0  0.23557  0.00679  0.76215  1.0000
  N   N23       1.0  0.21581  0.03086  0.75000  1.0000
  H   H396      1.0  0.20561  0.17941  0.93047  1.0000
  H   H397      1.0  0.19397  0.05562  0.74423  1.0000
  H   H398      1.0  0.06152  0.40468  0.86020  1.0000
  H   H399      1.0  0.10923  0.43385  0.91707  1.0000
  H   H400      1.0  0.11968  0.00496  0.75658  1.0000
  C   C244      1.0  0.17929  0.15264  0.66496  1.0000
  H   H401      1.0  0.21296  0.01195  0.77756  1.0000
  H   H402      1.0  0.20041  0.37879  0.69499  1.0000
  H   H403      1.0  0.15273  0.14859  0.77294  1.0000
  H   H404      1.0  0.08278  0.40845  0.89900  1.0000
  S   S95       1.0  0.16037  0.45648  0.82067  1.0000
  C   C245      1.0  0.13528  0.36692  0.83555  1.0000
  C   C246      1.0  0.15413  0.00306  0.71563  1.0000
  C   C247      1.0  0.15284  0.03246  0.72533  1.0000
  H   H405      1.0  0.01881  0.40074  0.83099  1.0000
  S   S96       1.0  0.18294  0.08513  0.70804  1.0000
  H   H406      1.0  0.13298  0.37662  0.82173  1.0000
  S   S97       1.0  0.16003  0.04360  0.73962  1.0000
  H   H407      1.0  0.08629  0.39132  0.93197  1.0000
  Fe  Fe53      1.0  0.10928  0.44588  0.83629  1.0000
  S   S98       1.0  0.04612  0.17488  0.73571  1.0000
  H   H408      1.0  0.17001  0.43841  0.78901  1.0000
  C   C248      1.0  0.20163  0.43564  0.74729  1.0000
  S   S99       1.0  0.13706  0.10149  0.72104  1.0000
  H   H409      1.0  0.23116  0.03261  0.84209  1.0000
  H   H410      1.0  0.08899  0.37122  0.85834  1.0000
  N   N24       1.0  0.11890  0.37096  0.85110  1.0000
  C   C249      1.0  0.12269  0.35807  0.86920  1.0000
  H   H411      1.0  0.21926  0.17550  0.89453  1.0000
  H   H412      1.0  0.20061  0.41903  0.77592  1.0000
  S   S100      1.0  0.12901  0.43918  0.85622  1.0000
  C   C250      1.0  0.10470  0.17201  0.70212  1.0000
  S   S101      1.0  0.07936  0.25315  0.69161  1.0000
  H   H413      1.0  0.23156  0.26966  0.94192  1.0000
  C   C251      1.0  0.02716  0.26528  0.65881  1.0000
  H   H414      1.0  0.19712  0.40974  0.67152  1.0000
  S   S102      1.0  0.12848  0.99928  0.69682  1.0000
  H   H415      1.0  0.99175  0.31045  0.79659  1.0000
  C   C252      1.0  0.09488  0.40187  0.93134  1.0000
  H   H416      1.0  0.23913  0.18214  0.91320  1.0000
  H   H417      1.0  0.19716  0.01231  0.75176  1.0000
  H   H418      1.0  0.22486  0.04937  0.72328  1.0000
  H   H419      1.0  0.22973  0.02713  0.77304  1.0000
  C   C253      1.0  0.07661  0.24285  0.65966  1.0000
  H   H420      1.0  0.22282  0.40048  0.68928  1.0000
  C   C254      1.0  0.20863  0.01899  0.74143  1.0000
  H   H421      1.0  0.20870  0.32162  0.93714  1.0000
  N   N25       1.0  0.20791  0.16241  0.95842  1.0000
  H   H422      1.0  0.15503  0.27429  0.95917  1.0000
  C   C255      1.0  0.21174  0.30576  0.94252  1.0000
  C   C256      1.0  0.22389  0.01870  0.76641  1.0000
  N   N26       1.0  0.02759  0.28567  0.65659  1.0000
  H   H423      1.0  0.00195  0.41647  0.84486  1.0000
  H   H424      1.0  0.16049  0.98814  0.71553  1.0000
  S   S103      1.0  0.22638  0.14788  0.87155  1.0000
  C   C257      1.0  0.21918  0.27451  0.93487  1.0000
  H   H425      1.0  0.19638  0.17375  0.65991  1.0000
  S   S104      1.0  0.20335  0.21568  0.97067  1.0000
  S   S105      1.0  0.22603  0.45900  0.68980  1.0000
  H   H426      1.0  0.02777  0.25720  0.67358  1.0000
  S   S106      1.0  0.11421  0.47596  0.82377  1.0000
  S   S107      1.0  0.23108  0.14504  0.78247  1.0000
  S   S108      1.0  0.22876  0.43170  0.65251  1.0000
  C   C258      1.0  0.12672  0.99799  0.64973  1.0000
  H   H427      1.0  0.19345  0.14971  0.94506  1.0000
  C   C259      1.0  0.16061  0.15724  0.64143  1.0000
  C   C260      1.0  0.10321  0.25715  0.65687  1.0000
  H   H428      1.0  0.23842  0.15829  0.95031  1.0000
  H   H429      1.0  0.19457  0.13802  0.96929  1.0000
  H   H430      1.0  0.23376  0.00485  0.86953  1.0000
  C   C261      1.0  0.23062  0.03986  0.73572  1.0000
  C   C262      1.0  0.21832  0.48321  0.73084  1.0000
  Fe  Fe54      1.0  0.23437  0.21150  0.95745  1.0000
  C   C263      1.0  0.15105  0.98690  0.76984  1.0000
  H   H431      1.0  0.04662  0.27885  0.67587  1.0000
  H   H432      1.0  0.13057  0.98497  0.74553  1.0000
  C   C264      1.0  0.24078  0.15275  0.88422  1.0000
  C   C265      1.0  0.21134  0.80189  0.03817  1.0000
  H   H433      1.0  0.21504  0.53037  0.29713  1.0000
  H   H434      1.0  0.04920  0.73738  0.26969  1.0000
  S   S109      1.0  0.04364  0.89813  0.30641  1.0000
  S   S110      1.0  0.23189  0.97169  0.20037  1.0000
  C   C266      1.0  0.02085  0.79543  0.25600  1.0000
  C   C267      1.0  0.23533  0.78495  0.12044  1.0000
  S   S111      1.0  0.13227  0.50281  0.20122  1.0000
  H   H435      1.0  0.06488  0.80600  0.24072  1.0000
  Fe  Fe55      1.0  0.17015  0.58122  0.22262  1.0000
  S   S112      1.0  0.15032  0.58617  0.24987  1.0000
  S   S113      1.0  0.18255  0.55064  0.21908  1.0000
  Fe  Fe56      1.0  0.17498  0.62324  0.21032  1.0000
  S   S114      1.0  0.15629  0.63095  0.23718  1.0000
  S   S115      1.0  0.19035  0.64571  0.19012  1.0000
  Fe  Fe57      1.0  0.17091  0.60248  0.25210  1.0000
  S   S116      1.0  0.18425  0.59272  0.27788  1.0000
  Fe  Fe58      1.0  0.13754  0.61407  0.23227  1.0000
  S   S117      1.0  0.10618  0.62473  0.23310  1.0000
  S   S118      1.0  0.19137  0.59633  0.22560  1.0000
  S   S119      1.0  0.15564  0.60767  0.20452  1.0000
  Fe  Fe59      1.0  0.04522  0.72503  0.23386  1.0000
  C   C268      1.0  0.05228  0.75074  0.27137  1.0000
  S   S120      1.0  0.06996  0.70854  0.24748  1.0000
  Fe  Fe60      1.0  0.03636  0.74811  0.19643  1.0000
  S   S121      1.0  0.04954  0.75197  0.16519  1.0000
  S   S122      1.0  0.04829  0.75480  0.21800  1.0000
  Fe  Fe61      1.0  0.18955  0.74977  0.09030  1.0000
  S   S123      1.0  0.16567  0.77379  0.08244  1.0000
  S   S124      1.0  0.21790  0.75840  0.08054  1.0000
  Fe  Fe62      1.0  0.16430  0.72035  0.10402  1.0000
  S   S125      1.0  0.13888  0.74214  0.09619  1.0000
  S   S126      1.0  0.15695  0.69130  0.11712  1.0000
  Fe  Fe63      1.0  0.15888  0.75281  0.06955  1.0000
  S   S127      1.0  0.15219  0.76297  0.04021  1.0000
  Fe  Fe64      1.0  0.14827  0.76059  0.10986  1.0000
  S   S128      1.0  0.12944  0.77615  0.13236  1.0000
  S   S129      1.0  0.18361  0.72936  0.07603  1.0000
  S   S130      1.0  0.17287  0.73833  0.11906  1.0000
  S   S131      1.0  0.00597  0.76025  0.20885  1.0000
  C   C269      1.0  0.20654  0.60176  0.29654  1.0000
  C   C270      1.0  0.22924  0.62414  0.22180  1.0000
  N   N27       1.0  0.21292  0.53883  0.26772  1.0000
  S   S132      1.0  0.03482  0.71769  0.21162  1.0000
  C   C271      1.0  0.17582  0.94404  0.28497  1.0000
  H   H436      1.0  0.21343  0.58675  0.29836  1.0000
  C   C272      1.0  0.15834  0.74699  0.02471  1.0000
  C   C273      1.0  0.16886  0.72840  0.02955  1.0000
  C   C274      1.0  0.17241  0.71549  0.01761  1.0000
  H   H437      1.0  0.23193  0.69530  0.97934  1.0000
  H   H438      1.0  0.19847  0.76891  0.04791  1.0000
  C   C275      1.0  0.15214  0.75282  0.00745  1.0000
  H   H439      1.0  0.17396  0.72386  0.04264  1.0000
  H   H440      1.0  0.18023  0.70099  0.02160  1.0000
  H   H441      1.0  0.19837  0.80976  0.00590  1.0000
  H   H442      1.0  0.14404  0.76722  0.00357  1.0000
  C   C276      1.0  0.07178  0.75863  0.15658  1.0000
  C   C277      1.0  0.08118  0.75759  0.13790  1.0000
  C   C278      1.0  0.09887  0.76286  0.13046  1.0000
  C   C279      1.0  0.10731  0.76927  0.14163  1.0000
  C   C280      1.0  0.09791  0.77037  0.16034  1.0000
  C   C281      1.0  0.08023  0.76495  0.16784  1.0000
  H   H443      1.0  0.07461  0.75296  0.12904  1.0000
  H   H444      1.0  0.10561  0.76263  0.11585  1.0000
  H   H445      1.0  0.10426  0.77551  0.16901  1.0000
  H   H446      1.0  0.07299  0.76610  0.18215  1.0000
  C   C282      1.0  0.18036  0.65879  0.17034  1.0000
  C   C283      1.0  0.16516  0.65382  0.16635  1.0000
  C   C284      1.0  0.15799  0.66392  0.15002  1.0000
  C   C285      1.0  0.16578  0.67924  0.13778  1.0000
  C   C286      1.0  0.18063  0.68456  0.14203  1.0000
  C   C287      1.0  0.18797  0.67428  0.15822  1.0000
  H   H447      1.0  0.15918  0.64193  0.17559  1.0000
  H   H448      1.0  0.14654  0.65970  0.14678  1.0000
  H   H449      1.0  0.18688  0.69621  0.13256  1.0000
  H   H450      1.0  0.19974  0.67819  0.16120  1.0000
  C   C288      1.0  0.09625  0.64804  0.23712  1.0000
  C   C289      1.0  0.10553  0.65718  0.24506  1.0000
  C   C290      1.0  0.09732  0.67574  0.24820  1.0000
  C   C291      1.0  0.07981  0.68528  0.24339  1.0000
  C   C292      1.0  0.07053  0.67620  0.23539  1.0000
  C   C293      1.0  0.07871  0.65759  0.23234  1.0000
  H   H451      1.0  0.11877  0.64978  0.24927  1.0000
  H   H452      1.0  0.10451  0.68263  0.25453  1.0000
  H   H453      1.0  0.05686  0.68330  0.23194  1.0000
  H   H454      1.0  0.07137  0.65051  0.22635  1.0000
  C   C294      1.0  0.14685  0.51610  0.20528  1.0000
  C   C295      1.0  0.16452  0.50721  0.20996  1.0000
  C   C296      1.0  0.17535  0.51798  0.21412  1.0000
  C   C297      1.0  0.16858  0.53766  0.21369  1.0000
  C   C298      1.0  0.15092  0.54655  0.20901  1.0000
  C   C299      1.0  0.14016  0.53582  0.20467  1.0000
  C   C300      1.0  0.22486  0.77037  0.12789  1.0000
  H   H455      1.0  0.18901  0.51103  0.21773  1.0000
  H   H456      1.0  0.14562  0.56174  0.20858  1.0000
  H   H457      1.0  0.12651  0.54280  0.20104  1.0000
  Fe  Fe65      1.0  0.01791  0.76390  0.23209  1.0000
  H   H458      1.0  0.14919  0.49997  0.25142  1.0000
  C   C301      1.0  0.03850  0.79728  0.24419  1.0000
  C   C302      1.0  0.19778  0.77764  0.03333  1.0000
  H   H459      1.0  0.19453  0.65190  0.24824  1.0000
  C   C303      1.0  0.08830  0.70222  0.18043  1.0000
  H   H460      1.0  0.23313  0.76655  0.04030  1.0000
  C   C304      1.0  0.20076  0.64144  0.23884  1.0000
  H   H461      1.0  0.12354  0.48993  0.29078  1.0000
  C   C305      1.0  0.21925  0.76230  0.11572  1.0000
  H   H462      1.0  0.19642  0.62761  0.24650  1.0000
  N   N28       1.0  0.06584  0.74641  0.28403  1.0000
  H   H463      1.0  0.01838  0.86397  0.24539  1.0000
  H   H464      1.0  0.21125  0.75100  0.12155  1.0000
  C   C306      1.0  0.19387  0.95836  0.24782  1.0000
  H   H465      1.0  0.08994  0.74189  0.26128  1.0000
  H   H466      1.0  0.16655  0.97662  0.24495  1.0000
  C   C307      1.0  0.19141  0.60872  0.28700  1.0000
  C   C308      1.0  0.18245  0.62810  0.28490  1.0000
  H   H467      1.0  0.19849  0.76762  0.02426  1.0000
  C   C309      1.0  0.10715  0.71438  0.19448  1.0000
  S   S133      1.0  0.23586  0.85048  0.11432  1.0000
  H   H468      1.0  0.17051  0.63346  0.27790  1.0000
  H   H469      1.0  0.12164  0.71469  0.19566  1.0000
  C   C310      1.0  0.13850  0.49100  0.25387  1.0000
  C   C311      1.0  0.19244  0.53874  0.27162  1.0000
  N   N29       1.0  0.17183  0.80781  0.12985  1.0000
  C   C312      1.0  0.16338  0.81725  0.14614  1.0000
  C   C313      1.0  0.17460  0.78676  0.13674  1.0000
  C   C314      1.0  0.19034  0.81314  0.12031  1.0000
  C   C315      1.0  0.15898  0.81406  0.11627  1.0000
  H   H470      1.0  0.16118  0.83316  0.14148  1.0000
  H   H471      1.0  0.17274  0.81274  0.15668  1.0000
  H   H472      1.0  0.14936  0.81356  0.15364  1.0000
  H   H473      1.0  0.18032  0.77919  0.12475  1.0000
  H   H474      1.0  0.18472  0.78142  0.14654  1.0000
  H   H475      1.0  0.16098  0.78228  0.14449  1.0000
  H   H476      1.0  0.20018  0.80916  0.13035  1.0000
  H   H477      1.0  0.18880  0.82887  0.11449  1.0000
  H   H478      1.0  0.19747  0.80575  0.10835  1.0000
  H   H479      1.0  0.16480  0.80693  0.10398  1.0000
  H   H480      1.0  0.15666  0.82985  0.11062  1.0000
  H   H481      1.0  0.14482  0.81038  0.12309  1.0000
  N   N30       1.0  0.13074  0.69920  0.07072  1.0000
  C   C316      1.0  0.12003  0.69916  0.09042  1.0000
  C   C317      1.0  0.15131  0.69436  0.07052  1.0000
  C   C318      1.0  0.12585  0.71843  0.05856  1.0000
  C   C319      1.0  0.12581  0.68479  0.06340  1.0000
  H   H482      1.0  0.12346  0.70986  0.09636  1.0000
  H   H483      1.0  0.12364  0.68494  0.10005  1.0000
  H   H484      1.0  0.10443  0.70266  0.09124  1.0000
  H   H485      1.0  0.15988  0.69348  0.05605  1.0000
  H   H486      1.0  0.15564  0.70528  0.07537  1.0000
  H   H487      1.0  0.15537  0.68031  0.08022  1.0000
  H   H488      1.0  0.13300  0.71872  0.04342  1.0000
  H   H489      1.0  0.13023  0.72961  0.06302  1.0000
  H   H490      1.0  0.11031  0.72294  0.05903  1.0000
  H   H491      1.0  0.13369  0.68446  0.04853  1.0000
  H   H492      1.0  0.11039  0.68799  0.06334  1.0000
  H   H493      1.0  0.12938  0.67010  0.07221  1.0000
  H   H494      1.0  0.10515  0.51110  0.28756  1.0000
  H   H495      1.0  0.99340  0.88760  0.26062  1.0000
  H   H496      1.0  0.17048  0.49403  0.15043  1.0000
  C   C320      1.0  0.20412  0.94369  0.25975  1.0000
  Fe  Fe66      1.0  0.00541  0.73039  0.22603  1.0000
  H   H497      1.0  0.20949  0.70709  0.99138  1.0000
  H   H498      1.0  0.22581  0.61003  0.22996  1.0000
  H   H499      1.0  0.11936  0.70076  0.15209  1.0000
  H   H500      1.0  0.18190  0.65549  0.29049  1.0000
  H   H501      1.0  0.15079  0.74451  0.98223  1.0000
  C   C321      1.0  0.01613  0.80040  0.27375  1.0000
  H   H502      1.0  0.22973  0.89927  0.18197  1.0000
  S   S134      1.0  0.00446  0.78718  0.24870  1.0000
  C   C322      1.0  0.02894  0.80748  0.27958  1.0000
  Fe  Fe67      1.0  0.05173  0.83039  0.30091  1.0000
  C   C323      1.0  0.21305  0.61417  0.30352  1.0000
  H   H503      1.0  0.21222  0.79408  0.05300  1.0000
  C   C324      1.0  0.21748  0.55429  0.25112  1.0000
  H   H504      1.0  0.11155  0.72466  0.15645  1.0000
  H   H505      1.0  0.20072  0.96383  0.23345  1.0000
  H   H506      1.0  0.18360  0.55261  0.27490  1.0000
  H   H507      1.0  0.05797  0.75863  0.25690  1.0000
  S   S135      1.0  0.14125  0.96748  0.28093  1.0000
  H   H508      1.0  0.22160  0.50834  0.27615  1.0000
  H   H509      1.0  0.07992  0.69666  0.19467  1.0000
  H   H510      1.0  0.23952  0.78748  0.07338  1.0000
  H   H511      1.0  0.01859  0.84812  0.26817  1.0000
  H   H512      1.0  0.11823  0.67257  0.17924  1.0000
  C   C325      1.0  0.21218  0.79945  0.00633  1.0000
  H   H513      1.0  0.19754  0.81231  0.03867  1.0000
  S   S136      1.0  0.17019  0.70425  0.98638  1.0000
  H   H514      1.0  0.00262  0.79863  0.28310  1.0000
  H   H515      1.0  0.08055  0.71700  0.17511  1.0000
  H   H516      1.0  0.22617  0.61901  0.25943  1.0000
  H   H517      1.0  0.06757  0.92569  0.29858  1.0000
  H   H518      1.0  0.22361  0.80788  0.00036  1.0000
  H   H519      1.0  0.22099  0.66886  0.23032  1.0000
  H   H520      1.0  0.07528  0.77313  0.27191  1.0000
  S   S137      1.0  0.02506  0.85280  0.30444  1.0000
  C   C326      1.0  0.18884  0.64051  0.29210  1.0000
  C   C327      1.0  0.22409  0.52019  0.26362  1.0000
  C   C328      1.0  0.17452  0.96557  0.25434  1.0000
  H   H521      1.0  0.14034  0.50811  0.11436  1.0000
  C   C329      1.0  0.21883  0.70626  0.97719  1.0000
  H   H522      1.0  0.11000  0.67615  0.20310  1.0000
  N   N31       1.0  0.21326  0.78848  0.02588  1.0000
  H   H523      1.0  0.22283  0.81027  0.03297  1.0000
  C   C330      1.0  0.06944  0.76451  0.28594  1.0000
  C   C331      1.0  0.11393  0.51946  0.24937  1.0000
  N   N32       1.0  0.11933  0.50073  0.26210  1.0000
  H   H524      1.0  0.16899  0.93847  0.29934  1.0000
  H   H525      1.0  0.22416  0.64361  0.25980  1.0000
  H   H526      1.0  0.05619  0.77368  0.29228  1.0000
  H   H527      1.0  0.12449  0.52866  0.24665  1.0000
  C   C332      1.0  0.22666  0.65734  0.22206  1.0000
  H   H528      1.0  0.09095  0.49541  0.27053  1.0000
  H   H529      1.0  0.23293  0.55436  0.24743  1.0000
  H   H530      1.0  0.23377  0.76457  0.01665  1.0000
  H   H531      1.0  0.23291  0.54287  0.28172  1.0000
  H   H532      1.0  0.03853  0.75973  0.27698  1.0000
  S   S138      1.0  0.01592  0.73465  0.24993  1.0000
  H   H533      1.0  0.13330  0.70985  0.16255  1.0000
  S   S139      1.0  0.06289  0.81817  0.27456  1.0000
  H   H534      1.0  0.22308  0.62815  0.20882  1.0000
  H   H535      1.0  0.04218  0.79356  0.23042  1.0000
  H   H536      1.0  0.12969  0.51287  0.27960  1.0000
  H   H537      1.0  0.20292  0.92528  0.28763  1.0000
  S   S140      1.0  0.22815  0.93380  0.25171  1.0000
  H   H538      1.0  0.20981  0.56857  0.25406  1.0000
  H   H539      1.0  0.01521  0.83986  0.24899  1.0000
  C   C333      1.0  0.04648  0.80963  0.26760  1.0000
  H   H540      1.0  0.08820  0.69314  0.17075  1.0000
  C   C334      1.0  0.05128  0.80440  0.24998  1.0000
  N   N33       1.0  0.10787  0.70213  0.18145  1.0000
  C   C335      1.0  0.19505  0.93658  0.27833  1.0000
  C   C336      1.0  0.23825  0.90650  0.16935  1.0000
  H   H541      1.0  0.18831  0.53657  0.25915  1.0000
  H   H542      1.0  0.05483  0.72201  0.30197  1.0000
  H   H543      1.0  0.22073  0.66223  0.20889  1.0000
  H   H544      1.0  0.07977  0.76186  0.29522  1.0000
  H   H545      1.0  0.09983  0.52755  0.25544  1.0000
  H   H546      1.0  0.02528  0.81123  0.29335  1.0000
  H   H547      1.0  0.16981  0.49203  0.21052  1.0000
  H   H548      1.0  0.08177  0.72054  0.27487  1.0000
  H   H549      1.0  0.15616  0.51578  0.12402  1.0000
  C   C337      1.0  0.22450  0.76848  0.09606  1.0000
  H   H550      1.0  0.18354  0.78737  0.03408  1.0000
  H   H551      1.0  0.18862  0.52699  0.28388  1.0000
  C   C338      1.0  0.08388  0.73460  0.27590  1.0000
  C   C339      1.0  0.01164  0.85246  0.25572  1.0000
  C   C340      1.0  0.11845  0.70969  0.16231  1.0000
  C   C341      1.0  0.16546  0.95837  0.27290  1.0000
  C   C342      1.0  0.16584  0.72118  0.00055  1.0000
  H   H552      1.0  0.13240  0.68163  0.18951  1.0000
  C   C343      1.0  0.15593  0.73998  0.99534  1.0000
  S   S141      1.0  0.23655  0.87811  0.15313  1.0000
  C   C344      1.0  0.20423  0.63357  0.30132  1.0000
  H   H553      1.0  0.13307  0.51289  0.13788  1.0000
  H   H554      1.0  0.19408  0.64685  0.22621  1.0000
  H   H555      1.0  0.22102  0.76539  0.14311  1.0000
  H   H556      1.0  0.09920  0.70911  0.20905  1.0000
  H   H557      1.0  0.09987  0.72945  0.18950  1.0000
  C   C345      1.0  0.11754  0.68228  0.18864  1.0000
  H   H558      1.0  0.22445  0.73338  0.99180  1.0000
  H   H559      1.0  0.23959  0.52000  0.25993  1.0000
  H   H560      1.0  0.14746  0.49070  0.16413  1.0000
  C   C346      1.0  0.11940  0.50379  0.28086  1.0000
  C   C347      1.0  0.05774  0.73575  0.30294  1.0000
  C   C348      1.0  0.21771  0.54210  0.28446  1.0000
  C   C349      1.0  0.14536  0.50672  0.12756  1.0000
  H   H561      1.0  0.09469  0.73154  0.28473  1.0000
  C   C350      1.0  0.23327  0.73188  0.97753  1.0000
  H   H562      1.0  0.21337  0.55266  0.23839  1.0000
  H   H563      1.0  0.11304  0.51759  0.23533  1.0000
  H   H564      1.0  0.20915  0.55583  0.28827  1.0000
  C   C351      1.0  0.23528  0.78279  0.08859  1.0000
  H   H565      1.0  0.19565  0.74058  0.97814  1.0000
  C   C352      1.0  0.23178  0.77493  0.02574  1.0000
  N   N34       1.0  0.22163  0.63894  0.23334  1.0000
  H   H566      1.0  0.21376  0.78983  0.99657  1.0000
  N   N35       1.0  0.15324  0.48649  0.13555  1.0000
  C   C353      1.0  0.15950  0.48536  0.15312  1.0000
  H   H567      1.0  0.22020  0.51687  0.25159  1.0000
  C   C354      1.0  0.22974  0.63286  0.25063  1.0000
  H   H568      1.0  0.13887  0.48796  0.23997  1.0000
  C   C355      1.0  0.10560  0.48861  0.26425  1.0000
  H   H569      1.0  0.18115  0.48697  0.11805  1.0000
  H   H570      1.0  0.99258  0.87168  0.28353  1.0000
  H   H571      1.0  0.10522  0.48618  0.25024  1.0000
  H   H572      1.0  0.11967  0.88179  0.30648  1.0000
  S   S142      1.0  0.24077  0.79574  0.13613  1.0000
  C   C356      1.0  0.24047  0.79121  0.10077  1.0000
  H   H573      1.0  0.23987  0.92850  0.18262  1.0000
  H   H574      1.0  0.14281  0.93724  0.40801  1.0000
  H   H575      1.0  0.04237  0.88683  0.34662  1.0000
  Fe  Fe68      1.0  0.14679  0.93709  0.34828  1.0000
  C   C357      1.0  0.06009  0.90253  0.35233  1.0000
  Fe  Fe69      1.0  0.13495  0.81562  0.46519  1.0000
  S   S143      1.0  0.10683  0.83554  0.47154  1.0000
  S   S144      1.0  0.14705  0.79139  0.48718  1.0000
  Fe  Fe70      1.0  0.14367  0.83651  0.42437  1.0000
  S   S145      1.0  0.11718  0.85924  0.42721  1.0000
  S   S146      1.0  0.16623  0.83455  0.39820  1.0000
  Fe  Fe71      1.0  0.12283  0.85870  0.45546  1.0000
  S   S147      1.0  0.11788  0.88412  0.46862  1.0000
  Fe  Fe72      1.0  0.10340  0.83426  0.44290  1.0000
  S   S148      1.0  0.07543  0.83505  0.43620  1.0000
  S   S149      1.0  0.15104  0.83898  0.45063  1.0000
  S   S150      1.0  0.12972  0.81150  0.43840  1.0000
  Fe  Fe73      1.0  0.16227  0.86595  0.55699  1.0000
  S   S151      1.0  0.17150  0.83531  0.57121  1.0000
  S   S152      1.0  0.17259  0.87090  0.52525  1.0000
  Fe  Fe74      1.0  0.14332  0.87748  0.59483  1.0000
  S   S153      1.0  0.15076  0.84760  0.61192  1.0000
  S   S154      1.0  0.12563  0.89946  0.61170  1.0000
  Fe  Fe75      1.0  0.17915  0.84714  0.59211  1.0000
  S   S155      1.0  0.20710  0.83561  0.60120  1.0000
  Fe  Fe76      1.0  0.14229  0.83880  0.58935  1.0000
  H   H576      1.0  0.08638  0.86482  0.35088  1.0000
  S   S156      1.0  0.17246  0.87774  0.57657  1.0000
  S   S157      1.0  0.13233  0.86866  0.57368  1.0000
  C   C358      1.0  0.10922  0.88208  0.32015  1.0000
  S   S158      1.0  0.08373  0.81827  0.35515  1.0000
  H   H577      1.0  0.16489  0.67211  0.36666  1.0000
  Fe  Fe77      1.0  0.05966  0.82976  0.33935  1.0000
  H   H578      1.0  0.21598  0.65739  0.34603  1.0000
  C   C359      1.0  0.15720  0.90689  0.61879  1.0000
  C   C360      1.0  0.19546  0.78768  0.39833  1.0000
  H   H579      1.0  0.18831  0.90617  0.41869  1.0000
  H   H580      1.0  0.16491  0.90249  0.60571  1.0000
  C   C361      1.0  0.16803  0.85778  0.38545  1.0000
  C   C362      1.0  0.18574  0.86293  0.37988  1.0000
  C   C363      1.0  0.18711  0.88200  0.37141  1.0000
  C   C364      1.0  0.17084  0.89581  0.36803  1.0000
  C   C365      1.0  0.15316  0.89053  0.37292  1.0000
  C   C366      1.0  0.15172  0.87152  0.38189  1.0000
  H   H581      1.0  0.19834  0.85233  0.38268  1.0000
  H   H582      1.0  0.20077  0.88610  0.36759  1.0000
  H   H583      1.0  0.14056  0.90120  0.37033  1.0000
  H   H584      1.0  0.13803  0.86750  0.38607  1.0000
  C   C367      1.0  0.07761  0.83041  0.41367  1.0000
  C   C368      1.0  0.09539  0.82331  0.40330  1.0000
  C   C369      1.0  0.09698  0.81937  0.38551  1.0000
  C   C370      1.0  0.08090  0.82316  0.37764  1.0000
  C   C371      1.0  0.06315  0.83078  0.38775  1.0000
  C   C372      1.0  0.06148  0.83418  0.40585  1.0000
  H   H585      1.0  0.10791  0.82044  0.40912  1.0000
  H   H586      1.0  0.11074  0.81341  0.37780  1.0000
  H   H587      1.0  0.05065  0.83359  0.38184  1.0000
  H   H588      1.0  0.04764  0.83955  0.41382  1.0000
  C   C373      1.0  0.13282  0.88028  0.48467  1.0000
  C   C374      1.0  0.15186  0.87121  0.48028  1.0000
  C   C375      1.0  0.16386  0.86850  0.49285  1.0000
  C   C376      1.0  0.15683  0.87441  0.51014  1.0000
  C   C377      1.0  0.13769  0.88325  0.51475  1.0000
  C   C378      1.0  0.12577  0.88645  0.50187  1.0000
  H   H589      1.0  0.15755  0.86670  0.46697  1.0000
  H   H590      1.0  0.17867  0.86176  0.48917  1.0000
  H   H591      1.0  0.13223  0.88807  0.52798  1.0000
  H   H592      1.0  0.11107  0.89359  0.50530  1.0000
  C   C379      1.0  0.07205  0.91575  0.34472  1.0000
  H   H593      1.0  0.04994  0.86905  0.42400  1.0000
  H   H594      1.0  0.18084  0.91004  0.39676  1.0000
  C   C380      1.0  0.20072  0.78054  0.61863  1.0000
  Fe  Fe78      1.0  0.13247  0.95771  0.31254  1.0000
  C   C381      1.0  0.07699  0.80362  0.62609  1.0000
  H   H595      1.0  0.12066  0.83481  0.34088  1.0000
  H   H596      1.0  0.21915  0.81470  0.55151  1.0000
  H   H597      1.0  0.09457  0.79839  0.59939  1.0000
  C   C382      1.0  0.22490  0.68343  0.56741  1.0000
  C   C383      1.0  0.05986  0.89189  0.61228  1.0000
  H   H598      1.0  0.18247  0.80836  0.61266  1.0000
  H   H599      1.0  0.20005  0.63042  0.35131  1.0000
  H   H600      1.0  0.05624  0.89713  0.44384  1.0000
  C   C384      1.0  0.16659  0.91295  0.62950  1.0000
  C   C385      1.0  0.07464  0.92425  0.32532  1.0000
  H   H601      1.0  0.03428  0.89157  0.42653  1.0000
  C   C386      1.0  0.20125  0.76165  0.47932  1.0000
  C   C387      1.0  0.18153  0.76656  0.48576  1.0000
  C   C388      1.0  0.17200  0.78569  0.48163  1.0000
  C   C389      1.0  0.18249  0.79998  0.47249  1.0000
  C   C390      1.0  0.20212  0.79505  0.46576  1.0000
  H   H602      1.0  0.20851  0.74694  0.48274  1.0000
  H   H603      1.0  0.17362  0.75545  0.49339  1.0000
  H   H604      1.0  0.17561  0.81484  0.47066  1.0000
  H   H605      1.0  0.23742  0.72568  0.50289  1.0000
  H   H606      1.0  0.06760  0.73221  0.31288  1.0000
  H   H607      1.0  0.04350  0.88600  0.40339  1.0000
  S   S159      1.0  0.04512  0.81190  0.32986  1.0000
  C   C391      1.0  0.15850  0.88953  0.42425  1.0000
  N   N36       1.0  0.13373  0.82070  0.53138  1.0000
  C   C392      1.0  0.13156  0.83037  0.51177  1.0000
  C   C393      1.0  0.14415  0.83114  0.53819  1.0000
  C   C394      1.0  0.14441  0.80076  0.53170  1.0000
  C   C395      1.0  0.11477  0.82050  0.54391  1.0000
  H   H608      1.0  0.12387  0.82272  0.50620  1.0000
  H   H609      1.0  0.14559  0.83077  0.50189  1.0000
  H   H610      1.0  0.12348  0.84542  0.51098  1.0000
  H   H611      1.0  0.14628  0.82401  0.55283  1.0000
  H   H612      1.0  0.15837  0.83201  0.52884  1.0000
  H   H613      1.0  0.13628  0.84610  0.53860  1.0000
  H   H614      1.0  0.15852  0.80034  0.52184  1.0000
  H   H615      1.0  0.13666  0.79233  0.52712  1.0000
  H   H616      1.0  0.14672  0.79320  0.54621  1.0000
  H   H617      1.0  0.11590  0.81301  0.55877  1.0000
  H   H618      1.0  0.10640  0.81297  0.53900  1.0000
  H   H619      1.0  0.10646  0.83532  0.54432  1.0000
  C   C396      1.0  0.04709  0.88462  0.41734  1.0000
  Fe  Fe79      1.0  0.01924  0.83534  0.33417  1.0000
  H   H620      1.0  0.08415  0.86830  0.40830  1.0000
  N   N37       1.0  0.19603  0.77338  0.41642  1.0000
  S   S160      1.0  0.03316  0.85158  0.34648  1.0000
  H   H621      1.0  0.20367  0.65712  0.58646  1.0000
  H   H622      1.0  0.10428  0.85444  0.36481  1.0000
  H   H623      1.0  0.14455  0.88598  0.43215  1.0000
  H   H624      1.0  0.13945  0.91306  0.44826  1.0000
  H   H625      1.0  0.10146  0.86650  0.62469  1.0000
  S   S161      1.0  0.17257  0.91985  0.35930  1.0000
  H   H626      1.0  0.17703  0.92980  0.40782  1.0000
  H   H627      1.0  0.09266  0.89041  0.39987  1.0000
  C   C397      1.0  0.08008  0.88392  0.40236  1.0000
  S   S162      1.0  0.14735  0.96649  0.33025  1.0000
  N   N38       1.0  0.19154  0.65223  0.36777  1.0000
  C   C398      1.0  0.17378  0.66345  0.37712  1.0000
  H   H628      1.0  0.12912  0.91877  0.41810  1.0000
  C   C399      1.0  0.20250  0.66545  0.35324  1.0000
  H   H629      1.0  0.05457  0.91664  0.39292  1.0000
  H   H630      1.0  0.13190  0.88038  0.34362  1.0000
  C   C400      1.0  0.23015  0.80049  0.60954  1.0000
  H   H631      1.0  0.21306  0.80058  0.57489  1.0000
  H   H632      1.0  0.08082  0.89653  0.43262  1.0000
  H   H633      1.0  0.10363  0.84645  0.32627  1.0000
  C   C401      1.0  0.17691  0.91423  0.41076  1.0000
  H   H634      1.0  0.19533  0.63061  0.39316  1.0000
  H   H635      1.0  0.16942  0.88050  0.43240  1.0000
  H   H636      1.0  0.17866  0.64704  0.34741  1.0000
  N   N39       1.0  0.06360  0.89323  0.41507  1.0000
  H   H637      1.0  0.07136  0.92083  0.40385  1.0000
  H   H638      1.0  0.07184  0.87477  0.44048  1.0000
  H   H639      1.0  0.23832  0.75372  0.56258  1.0000
  H   H640      1.0  0.17868  0.62881  0.36902  1.0000
  H   H641      1.0  0.17822  0.75748  0.41113  1.0000
  S   S163      1.0  0.13449  0.92725  0.32906  1.0000
  S   S164      1.0  0.08437  0.92025  0.35973  1.0000
  H   H642      1.0  0.13391  0.97357  0.62628  1.0000
  C   C402      1.0  0.21936  0.77038  0.61900  1.0000
  H   H643      1.0  0.20616  0.67572  0.35956  1.0000
  C   C403      1.0  0.07711  0.89851  0.63225  1.0000
  C   C404      1.0  0.10642  0.81475  0.61161  1.0000
  C   C405      1.0  0.06832  0.89034  0.43382  1.0000
  H   H644      1.0  0.04706  0.92167  0.41627  1.0000
  H   H645      1.0  0.07693  0.88538  0.38828  1.0000
  C   C406      1.0  0.18696  0.63905  0.35857  1.0000
  H   H646      1.0  0.17679  0.67355  0.38418  1.0000
  C   C407      1.0  0.21143  0.77580  0.46855  1.0000
  C   C408      1.0  0.15374  0.91548  0.44007  1.0000
  H   H647      1.0  0.16418  0.90676  0.44895  1.0000
  C   C409      1.0  0.05892  0.91400  0.40674  1.0000
  C   C410      1.0  0.21591  0.80048  0.55954  1.0000
  H   H648      1.0  0.22460  0.76523  0.58155  1.0000
  Fe  Fe80      1.0  0.24030  0.70825  0.43628  1.0000
  H   H649      1.0  0.18117  0.79132  0.39472  1.0000
  H   H650      1.0  0.09789  0.88001  0.35744  1.0000
  C   C411      1.0  0.20293  0.64104  0.38213  1.0000
  H   H651      1.0  0.05755  0.89620  0.36730  1.0000
  C   C412      1.0  0.13777  0.90702  0.62478  1.0000
  H   H652      1.0  0.15379  0.93088  0.43848  1.0000
  H   H653      1.0  0.22641  0.76420  0.40962  1.0000
  C   C413      1.0  0.19236  0.75526  0.41464  1.0000
  N   N40       1.0  0.15815  0.91020  0.42140  1.0000
  Fe  Fe81      1.0  0.11837  0.97483  0.34754  1.0000
  N   N41       1.0  0.07312  0.88324  0.62538  1.0000
  C   C414      1.0  0.14345  0.92155  0.41053  1.0000
  H   H654      1.0  0.12835  0.84630  0.31648  1.0000
  C   C415      1.0  0.05416  0.90535  0.32118  1.0000
  S   S165      1.0  0.11907  0.94598  0.36741  1.0000
  H   H655      1.0  0.10806  0.89602  0.32390  1.0000
  C   C416      1.0  0.09103  0.87296  0.61526  1.0000
  S   S166      1.0  0.12586  0.81636  0.59239  1.0000
  H   H656      1.0  0.16516  0.65391  0.38818  1.0000
  N   N42       1.0  0.23167  0.78453  0.55472  1.0000
  H   H657      1.0  0.18367  0.79469  0.43338  1.0000
  H   H658      1.0  0.21811  0.78289  0.42290  1.0000
  H   H659      1.0  0.17831  0.83447  0.63719  1.0000
  C   C417      1.0  0.21495  0.76966  0.42099  1.0000
  C   C418      1.0  0.21158  0.81060  0.60870  1.0000
  H   H660      1.0  0.18155  0.77063  0.44570  1.0000
  Fe  Fe82      1.0  0.23967  0.63521  0.32025  1.0000
  H   H661      1.0  0.19857  0.80137  0.39916  1.0000
  C   C419      1.0  0.06552  0.91919  0.31360  1.0000
  H   H662      1.0  0.16184  0.88506  0.41046  1.0000
  C   C420      1.0  0.19684  0.80063  0.61330  1.0000
  C   C421      1.0  0.11707  0.84753  0.32946  1.0000
  S   S167      1.0  0.22680  0.70695  0.41302  1.0000
  H   H663      1.0  0.19273  0.74417  0.42809  1.0000
  S   S168      1.0  0.23965  0.61195  0.34650  1.0000
  H   H664      1.0  0.20965  0.69005  0.57164  1.0000
  H   H665      1.0  0.22718  0.68088  0.55283  1.0000
  C   C422      1.0  0.23975  0.66775  0.38013  1.0000
  H   H666      1.0  0.22219  0.78262  0.53052  1.0000
  H   H667      1.0  0.22313  0.63768  0.59176  1.0000
  H   H668      1.0  0.21664  0.63271  0.37555  1.0000
  H   H669      1.0  0.08375  0.93458  0.31933  1.0000
  Fe  Fe83      1.0  0.10647  0.93852  0.34670  1.0000
  H   H670      1.0  0.06394  0.90655  0.64005  1.0000
  C   C423      1.0  0.21911  0.65149  0.58173  1.0000
  H   H671      1.0  0.09784  0.88286  0.60283  1.0000
  C   C424      1.0  0.23407  0.78036  0.61449  1.0000
  C   C425      1.0  0.18140  0.78092  0.43177  1.0000
  H   H672      1.0  0.21001  0.80615  0.45799  1.0000
  S   S169      1.0  0.21245  0.64928  0.30982  1.0000
  C   C426      1.0  0.09287  0.80494  0.61124  1.0000
  H   H673      1.0  0.19455  0.67386  0.34191  1.0000
  H   H674      1.0  0.14639  0.91799  0.39633  1.0000
  H   H675      1.0  0.20653  0.65051  0.38948  1.0000
  H   H676      1.0  0.08377  0.90901  0.62035  1.0000
  H   H677      1.0  0.16692  0.78377  0.42886  1.0000
  H   H678      1.0  0.20251  0.79933  0.55638  1.0000
  C   C427      1.0  0.23480  0.68536  0.40496  1.0000
  H   H679      1.0  0.19377  0.87922  0.63542  1.0000
  H   H680      1.0  0.20329  0.74903  0.40334  1.0000
  H   H681      1.0  0.21591  0.75873  0.43442  1.0000
  H   H682      1.0  0.18931  0.77282  0.62213  1.0000
  H   H683      1.0  0.21204  0.67562  0.60535  1.0000
  H   H684      1.0  0.23821  0.79870  0.52531  1.0000
  H   H685      1.0  0.09514  0.88205  0.31758  1.0000
  H   H686      1.0  0.18665  0.86679  0.62162  1.0000
  C   C428      1.0  0.23488  0.78481  0.53426  1.0000
  S   S170      1.0  0.22399  0.74523  0.62446  1.0000
  C   C429      1.0  0.19351  0.86477  0.63380  1.0000
  H   H687      1.0  0.20605  0.78238  0.38633  1.0000
  S   S171      1.0  0.10315  0.96827  0.32843  1.0000
  Fe  Fe84      1.0  0.04144  0.86700  0.31617  1.0000
  H   H688      1.0  0.14458  0.86670  0.32595  1.0000
  C   C430      1.0  0.22722  0.66943  0.60014  1.0000
  C   C431      1.0  0.10020  0.86628  0.35291  1.0000
  H   H689      1.0  0.06597  0.90224  0.59979  1.0000
  H   H690      1.0  0.13795  0.85466  0.35030  1.0000
  S   S172      1.0  0.22409  0.71899  0.46264  1.0000
  N   N43       1.0  0.11494  0.86568  0.33536  1.0000
  S   S173      1.0  0.23538  0.76973  0.45748  1.0000
  C   C432      1.0  0.13315  0.86688  0.33896  1.0000
  H   H691      1.0  0.08864  0.86121  0.60998  1.0000
  S   S174      1.0  0.99134  0.82575  0.34674  1.0000
  N   N44       1.0  0.23051  0.66542  0.58103  1.0000
  H   H692      1.0  0.05654  0.88070  0.60689  1.0000
  H   H693      1.0  0.04620  0.89978  0.61950  1.0000
  C   C433      1.0  0.05145  0.89712  0.34058  1.0000
  S   S175      1.0  0.06871  0.84616  0.30978  1.0000
  H   H694      1.0  0.22119  0.64825  0.56748  1.0000
  C   C434      1.0  0.10421  0.82302  0.62711  1.0000
  C   C435      1.0  0.22681  0.76606  0.56603  1.0000
  H   H695      1.0  0.04410  0.74429  0.30944  1.0000
  H   H696      1.0  0.23572  0.67977  0.60015  1.0000
  H   H697      1.0  0.23150  0.65617  0.61075  1.0000
  H   H698      1.0  0.11487  0.83025  0.62765  1.0000
  H   H699      1.0  0.22488  0.60867  0.31068  1.0000
  H   H700      1.0  0.15736  0.96191  0.63031  1.0000
  H   H701      1.0  0.18154  0.91321  0.62459  1.0000
  H   H702      1.0  0.21358  0.76395  0.56334  1.0000
  H   H703      1.0  0.06148  0.85769  0.63714  1.0000
  H   H704      1.0  0.06651  0.79608  0.62561  1.0000
  H   H705      1.0  0.23334  0.69422  0.56642  1.0000
  H   H706      1.0  0.22780  0.69808  0.37744  1.0000
  C   C436      1.0  0.23348  0.68499  0.38664  1.0000
  H   H707      1.0  0.20850  0.85725  0.62970  1.0000
  H   H708      1.0  0.23898  0.66755  0.36593  1.0000
  C   C437      1.0  0.14340  0.97020  0.63653  1.0000
  H   H709      1.0  0.17222  0.50098  0.86524  1.0000
  S   S176      1.0  0.99889  0.70580  0.85900  1.0000
  C   C438      1.0  0.21498  0.76800  0.91564  1.0000
  N   N45       1.0  0.22244  0.86136  0.89216  1.0000
  C   C439      1.0  0.23735  0.91392  0.89666  1.0000
  H   H710      1.0  0.23084  0.83980  0.87540  1.0000
  S   S177      1.0  0.17220  0.91933  0.75256  1.0000
  Fe  Fe85      1.0  0.18952  0.73405  0.91822  1.0000
  S   S178      1.0  0.19574  0.70445  0.93595  1.0000
  S   S179      1.0  0.21498  0.74816  0.90689  1.0000
  Fe  Fe86      1.0  0.14855  0.73171  0.92194  1.0000
  S   S180      1.0  0.15154  0.70210  0.94078  1.0000
  S   S181      1.0  0.12244  0.74790  0.91022  1.0000
  Fe  Fe87      1.0  0.16809  0.71336  0.95531  1.0000
  Fe  Fe88      1.0  0.17889  0.69606  0.91984  1.0000
  S   S182      1.0  0.19150  0.66999  0.90700  1.0000
  S   S183      1.0  0.16267  0.74364  0.93838  1.0000
  S   S184      1.0  0.17506  0.72494  0.90023  1.0000
  H   H711      1.0  0.19439  0.65647  0.73692  1.0000
  C   C440      1.0  0.22549  0.60047  0.81683  1.0000
  H   H712      1.0  0.15634  0.86533  0.64331  1.0000
  C   C441      1.0  0.22715  0.86478  0.90885  1.0000
  Fe  Fe89      1.0  0.18069  0.58968  0.83955  1.0000
  S   S185      1.0  0.15599  0.58238  0.86293  1.0000
  H   H713      1.0  0.13729  0.96035  0.64949  1.0000
  Fe  Fe90      1.0  0.15772  0.62641  0.82045  1.0000
  S   S186      1.0  0.13101  0.62224  0.84169  1.0000
  S   S187      1.0  0.16002  0.65141  0.79570  1.0000
  Fe  Fe91      1.0  0.14952  0.61387  0.86315  1.0000
  S   S188      1.0  0.13720  0.62718  0.88873  1.0000
  Fe  Fe92      1.0  0.13978  0.59140  0.83949  1.0000
  S   S189      1.0  0.11908  0.57636  0.83513  1.0000
  S   S190      1.0  0.17572  0.62036  0.84188  1.0000
  S   S191      1.0  0.16494  0.59634  0.81610  1.0000
  Fe  Fe93      1.0  0.06468  0.71362  0.85833  1.0000
  S   S192      1.0  0.07451  0.73317  0.83074  1.0000
  S   S193      1.0  0.08286  0.69892  0.88004  1.0000
  Fe  Fe94      1.0  0.02780  0.71336  0.84795  1.0000
  S   S194      1.0  0.03493  0.73222  0.81934  1.0000
  Fe  Fe95      1.0  0.06432  0.71454  0.81795  1.0000
  S   S195      1.0  0.08070  0.70731  0.79020  1.0000
  Fe  Fe96      1.0  0.04416  0.74923  0.83467  1.0000
  S   S196      1.0  0.03210  0.78073  0.82634  1.0000
  S   S197      1.0  0.05643  0.69368  0.84515  1.0000
  S   S198      1.0  0.03524  0.73149  0.86363  1.0000
  Fe  Fe97      1.0  0.05483  0.82433  0.72175  1.0000
  S   S199      1.0  0.03420  0.85195  0.72492  1.0000
  S   S200      1.0  0.07394  0.80742  0.74186  1.0000
  Fe  Fe98      1.0  0.04790  0.82562  0.68319  1.0000
  S   S201      1.0  0.02652  0.85331  0.68285  1.0000
  C   C442      1.0  0.20070  0.51913  0.86074  1.0000
  Fe  Fe99      1.0  0.04707  0.86234  0.69433  1.0000
  S   S202      1.0  0.05746  0.88980  0.68081  1.0000
  H   H714      1.0  0.19770  0.51884  0.72306  1.0000
  S   S203      1.0  0.06934  0.83563  0.69211  1.0000
  S   S204      1.0  0.03523  0.81164  0.71278  1.0000
  H   H715      1.0  0.10483  0.91638  0.69455  1.0000
  C   C443      1.0  0.06694  0.89797  0.69568  1.0000
  C   C444      1.0  0.23850  0.61004  0.80286  1.0000
  C   C445      1.0  0.06501  0.90544  0.72594  1.0000
  C   C446      1.0  0.05756  0.89820  0.71448  1.0000
  H   H716      1.0  0.05746  0.90609  0.74033  1.0000
  H   H717      1.0  0.04429  0.89332  0.72000  1.0000
  C   C447      1.0  0.04385  0.78945  0.80324  1.0000
  C   C448      1.0  0.03384  0.80321  0.79043  1.0000
  C   C449      1.0  0.04301  0.80905  0.77150  1.0000
  C   C450      1.0  0.06228  0.80143  0.76559  1.0000
  C   C451      1.0  0.07240  0.78824  0.77859  1.0000
  C   C452      1.0  0.06313  0.78204  0.79730  1.0000
  H   H718      1.0  0.01889  0.80896  0.79498  1.0000
  H   H719      1.0  0.03511  0.81924  0.76149  1.0000
  H   H720      1.0  0.08734  0.78240  0.77410  1.0000
  H   H721      1.0  0.07098  0.77167  0.80720  1.0000
  Fe  Fe100     1.0  0.15347  0.93210  0.68843  1.0000
  C   C453      1.0  0.13806  0.66723  0.79460  1.0000
  C   C454      1.0  0.12459  0.67001  0.81118  1.0000
  C   C455      1.0  0.10703  0.68264  0.80997  1.0000
  C   C456      1.0  0.10281  0.69212  0.79217  1.0000
  C   C457      1.0  0.11636  0.68946  0.77565  1.0000
  C   C458      1.0  0.13405  0.67723  0.77688  1.0000
  H   H722      1.0  0.12780  0.66266  0.82491  1.0000
  H   H723      1.0  0.09667  0.68481  0.82277  1.0000
  H   H724      1.0  0.11318  0.69683  0.76188  1.0000
  H   H725      1.0  0.14445  0.67520  0.76405  1.0000
  C   C459      1.0  0.13220  0.51094  0.85407  1.0000
  C   C460      1.0  0.13200  0.52245  0.86635  1.0000
  C   C461      1.0  0.12785  0.54256  0.86066  1.0000
  C   C462      1.0  0.12381  0.55123  0.84267  1.0000
  C   C463      1.0  0.12349  0.53972  0.83059  1.0000
  C   C464      1.0  0.12786  0.51960  0.83620  1.0000
  H   H726      1.0  0.13518  0.51581  0.88026  1.0000
  H   H727      1.0  0.12776  0.55137  0.87017  1.0000
  H   H728      1.0  0.12015  0.54639  0.81674  1.0000
  H   H729      1.0  0.12797  0.51083  0.82664  1.0000
  C   C465      1.0  0.17618  0.65767  0.90293  1.0000
  C   C466      1.0  0.15660  0.66167  0.91015  1.0000
  C   C467      1.0  0.14476  0.65187  0.90615  1.0000
  C   C468      1.0  0.15240  0.63835  0.89464  1.0000
  C   C469      1.0  0.17195  0.63432  0.88753  1.0000
  C   C470      1.0  0.18381  0.64387  0.89177  1.0000
  H   H730      1.0  0.15061  0.67227  0.91883  1.0000
  H   H731      1.0  0.12964  0.65494  0.91182  1.0000
  H   H732      1.0  0.16546  0.53683  0.83575  1.0000
  H   H733      1.0  0.19897  0.64063  0.88629  1.0000
  C   C471      1.0  0.11133  0.73426  0.90197  1.0000
  C   C472      1.0  0.11452  0.71426  0.90785  1.0000
  C   C473      1.0  0.10528  0.70365  0.90142  1.0000
  C   C474      1.0  0.09320  0.71290  0.88865  1.0000
  C   C475      1.0  0.09011  0.73287  0.88258  1.0000
  C   C476      1.0  0.09902  0.74354  0.88939  1.0000
  H   H734      1.0  0.12384  0.70698  0.91763  1.0000
  H   H735      1.0  0.10758  0.68823  0.90635  1.0000
  H   H736      1.0  0.08076  0.74013  0.87278  1.0000
  H   H737      1.0  0.09645  0.75901  0.88486  1.0000
  N   N46       1.0  0.21153  0.49702  0.74348  1.0000
  S   S205      1.0  0.14712  0.91132  0.71623  1.0000
  Fe  Fe101     1.0  0.15612  0.93124  0.72877  1.0000
  H   H738      1.0  0.08674  0.82766  0.65420  1.0000
  S   S206      1.0  0.09187  0.91954  0.73391  1.0000
  C   C477      1.0  0.06333  0.75429  0.72904  1.0000
  H   H739      1.0  0.21117  0.70082  0.96943  1.0000
  H   H740      1.0  0.16541  0.53716  0.85979  1.0000
  C   C478      1.0  0.19650  0.96353  0.74984  1.0000
  H   H741      1.0  0.09106  0.90463  0.67393  1.0000
  N   N47       1.0  0.20574  0.63031  0.75502  1.0000
  H   H742      1.0  0.20662  0.53230  0.85751  1.0000
  C   C479      1.0  0.20403  0.61790  0.74320  1.0000
  C   C480      1.0  0.20194  0.62053  0.77528  1.0000
  C   C481      1.0  0.22513  0.63418  0.74956  1.0000
  H   H743      1.0  0.22356  0.92076  0.90358  1.0000
  H   H744      1.0  0.22167  0.52006  0.72189  1.0000
  C   C482      1.0  0.12163  0.98483  0.79259  1.0000
  H   H745      1.0  0.19754  0.73479  0.95582  1.0000
  H   H746      1.0  0.19986  0.82652  0.64579  1.0000
  H   H747      1.0  0.23888  0.62458  0.80288  1.0000
  S   S207      1.0  0.23345  0.97589  0.81540  1.0000
  N   N48       1.0  0.22320  0.72516  0.96671  1.0000
  H   H748      1.0  0.99384  0.82788  0.69169  1.0000
  C   C483      1.0  0.18480  0.83417  0.64912  1.0000
  H   H749      1.0  0.12934  0.97823  0.80444  1.0000
  C   C484      1.0  0.18234  0.50209  0.85125  1.0000
  H   H750      1.0  0.19777  0.97742  0.74071  1.0000
  H   H751      1.0  0.21429  0.60394  0.74516  1.0000
  C   C485      1.0  0.19184  0.64863  0.75202  1.0000
  S   S208      1.0  0.24070  0.93108  0.81090  1.0000
  C   C486      1.0  0.23232  0.77294  0.91427  1.0000
  N   N49       1.0  0.08599  0.85291  0.75621  1.0000
  C   C487      1.0  0.09011  0.86848  0.76251  1.0000
  C   C488      1.0  0.06521  0.85473  0.75958  1.0000
  C   C489      1.0  0.09447  0.83416  0.76706  1.0000
  C   C490      1.0  0.09416  0.85424  0.73571  1.0000
  H   H752      1.0  0.10564  0.86804  0.75955  1.0000
  H   H753      1.0  0.08455  0.86765  0.77800  1.0000
  H   H754      1.0  0.08351  0.88285  0.75505  1.0000
  H   H755      1.0  0.06162  0.84329  0.75484  1.0000
  H   H756      1.0  0.05851  0.85362  0.77491  1.0000
  H   H757      1.0  0.05836  0.86873  0.75162  1.0000
  H   H758      1.0  0.09219  0.82207  0.76226  1.0000
  H   H759      1.0  0.08810  0.83233  0.78252  1.0000
  H   H760      1.0  0.11005  0.83255  0.76528  1.0000
  H   H761      1.0  0.08822  0.86827  0.72710  1.0000
  H   H762      1.0  0.09109  0.84280  0.73047  1.0000
  H   H763      1.0  0.10983  0.85282  0.73261  1.0000
  N   N50       1.0  0.14599  0.69247  0.85122  1.0000
  C   C491      1.0  0.13291  0.67932  0.86140  1.0000
  C   C492      1.0  0.16329  0.68647  0.85927  1.0000
  C   C493      1.0  0.13657  0.71224  0.85344  1.0000
  C   C494      1.0  0.15112  0.69182  0.83086  1.0000
  H   H764      1.0  0.11961  0.68352  0.85583  1.0000
  H   H765      1.0  0.12876  0.67939  0.87681  1.0000
  H   H766      1.0  0.13957  0.66425  0.86010  1.0000
  H   H767      1.0  0.17052  0.67141  0.85838  1.0000
  H   H768      1.0  0.17367  0.69585  0.85180  1.0000
  H   H769      1.0  0.15989  0.68721  0.87453  1.0000
  H   H770      1.0  0.13335  0.71336  0.86858  1.0000
  H   H771      1.0  0.12284  0.71691  0.84856  1.0000
  H   H772      1.0  0.14570  0.72272  0.84532  1.0000
  H   H773      1.0  0.15788  0.67698  0.82873  1.0000
  H   H774      1.0  0.16129  0.70126  0.82274  1.0000
  H   H775      1.0  0.13838  0.69662  0.82432  1.0000
  H   H776      1.0  0.21759  0.89136  0.87853  1.0000
  C   C495      1.0  0.08215  0.91187  0.71884  1.0000
  C   C496      1.0  0.22516  0.58156  0.81708  1.0000
  S   S209      1.0  0.12413  0.95031  0.69142  1.0000
  H   H777      1.0  0.20701  0.62478  0.72780  1.0000
  S   S210      1.0  0.20889  0.56956  0.83451  1.0000
  N   N51       1.0  0.05817  0.75171  0.74995  1.0000
  H   H778      1.0  0.07398  0.86312  0.65204  1.0000
  H   H779      1.0  0.06041  0.64251  0.86755  1.0000
  C   C497      1.0  0.07497  0.75132  0.75719  1.0000
  H   H780      1.0  0.20312  0.62948  0.78463  1.0000
  C   C498      1.0  0.04281  0.76783  0.75512  1.0000
  H   H781      1.0  0.04699  0.78185  0.74814  1.0000
  H   H782      1.0  0.14631  0.95466  0.76314  1.0000
  H   H783      1.0  0.03926  0.76697  0.77074  1.0000
  H   H784      1.0  0.04748  0.73122  0.77424  1.0000
  C   C499      1.0  0.18519  0.93385  0.75708  1.0000
  H   H785      1.0  0.08664  0.73894  0.75411  1.0000
  H   H786      1.0  0.07150  0.74986  0.77290  1.0000
  H   H787      1.0  0.08063  0.76467  0.75069  1.0000
  H   H788      1.0  0.09849  0.64258  0.90157  1.0000
  H   H789      1.0  0.12457  0.95287  0.78012  1.0000
  N   N52       1.0  0.18343  0.85379  0.65144  1.0000
  H   H790      1.0  0.20810  0.75365  0.95673  1.0000
  C   C500      1.0  0.08348  0.64561  0.90002  1.0000
  H   H791      1.0  0.10478  0.61595  0.88471  1.0000
  H   H792      1.0  0.22298  0.87519  0.86276  1.0000
  H   H793      1.0  0.18092  0.95665  0.73271  1.0000
  C   C501      1.0  0.21598  0.79862  0.93084  1.0000
  H   H794      1.0  0.18551  0.80216  0.93856  1.0000
  H   H795      1.0  0.10867  0.98449  0.76245  1.0000
  H   H796      1.0  0.17431  0.50196  0.84062  1.0000
  H   H797      1.0  0.05576  0.66105  0.88058  1.0000
  C   C502      1.0  0.22597  0.49479  0.75466  1.0000
  H   H798      1.0  0.07485  0.74234  0.72464  1.0000
  C   C503      1.0  0.99936  0.69868  0.82455  1.0000
  H   H799      1.0  0.23189  0.48559  0.72093  1.0000
  H   H800      1.0  0.99940  0.69224  0.79801  1.0000
  H   H801      1.0  0.05087  0.87690  0.64953  1.0000
  H   H802      1.0  0.00117  0.76474  0.82239  1.0000
  H   H803      1.0  0.22864  0.64124  0.73425  1.0000
  C   C504      1.0  0.09316  0.65191  0.86582  1.0000
  S   S211      1.0  0.16546  0.95009  0.70059  1.0000
  H   H804      1.0  0.07772  0.66113  0.89995  1.0000
  C   C505      1.0  0.19324  0.92761  0.77326  1.0000
  H   H805      1.0  0.08758  0.66756  0.86450  1.0000
  Fe  Fe102     1.0  0.23468  0.96066  0.79262  1.0000
  Fe  Fe103     1.0  0.11858  0.93104  0.72020  1.0000
  S   S212      1.0  0.21614  0.81793  0.94028  1.0000
  H   H806      1.0  0.19896  0.84837  0.90874  1.0000
  C   C506      1.0  0.19353  0.49325  0.75647  1.0000
  C   C507      1.0  0.08385  0.90477  0.68846  1.0000
  H   H807      1.0  0.17804  0.62359  0.87905  1.0000
  H   H808      1.0  0.05096  0.75487  0.72301  1.0000
  H   H809      1.0  0.19284  0.87387  0.90009  1.0000
  C   C508      1.0  0.20835  0.51676  0.73186  1.0000
  H   H810      1.0  0.06303  0.72091  0.75526  1.0000
  N   N53       1.0  0.19023  0.51964  0.84623  1.0000
  H   H811      1.0  0.18814  0.50306  0.76657  1.0000
  H   H812      1.0  0.23675  0.74614  0.96994  1.0000
  H   H813      1.0  0.18502  0.84451  0.68095  1.0000
  H   H814      1.0  0.23900  0.73735  0.93961  1.0000
  H   H815      1.0  0.20954  0.53376  0.82340  1.0000
  H   H816      1.0  0.08905  0.61587  0.87022  1.0000
  H   H817      1.0  0.07554  0.63725  0.91294  1.0000
  C   C509      1.0  0.06196  0.64554  0.88084  1.0000
  H   H818      1.0  0.18952  0.61479  0.74685  1.0000
  H   H819      1.0  0.19803  0.85787  0.88413  1.0000
  S   S213      1.0  0.13909  0.48584  0.86103  1.0000
  H   H820      1.0  0.99318  0.74402  0.86430  1.0000
  H   H821      1.0  0.20868  0.93454  0.79046  1.0000
  H   H822      1.0  0.18734  0.61759  0.77991  1.0000
  C   C510      1.0  0.19812  0.77859  0.92439  1.0000
  H   H823      1.0  0.18468  0.77504  0.92529  1.0000
  C   C511      1.0  0.20278  0.93935  0.77780  1.0000
  H   H824      1.0  0.21608  0.60755  0.82773  1.0000
  H   H825      1.0  0.15502  0.85529  0.66824  1.0000
  C   C512      1.0  0.23423  0.84301  0.88775  1.0000
  H   H826      1.0  0.12966  0.92290  0.66570  1.0000
  H   H827      1.0  0.22599  0.97253  0.88514  1.0000
  H   H828      1.0  0.21277  0.50658  0.86155  1.0000
  H   H829      1.0  0.01445  0.69835  0.82123  1.0000
  H   H830      1.0  0.19365  0.48886  0.85212  1.0000
  H   H831      1.0  0.03914  0.73303  0.75315  1.0000
  C   C513      1.0  0.22626  0.87727  0.87571  1.0000
  H   H832      1.0  0.21515  0.50801  0.82740  1.0000
  H   H833      1.0  0.08162  0.61109  0.89569  1.0000
  H   H834      1.0  0.19129  0.51825  0.87510  1.0000
  H   H835      1.0  0.09277  0.64836  0.85237  1.0000
  C   C514      1.0  0.23943  0.96879  0.89045  1.0000
  C   C515      1.0  0.19862  0.79396  0.93186  1.0000
  H   H836      1.0  0.06845  0.76794  0.72224  1.0000
  H   H837      1.0  0.02963  0.76811  0.75058  1.0000
  C   C516      1.0  0.09160  0.91148  0.70009  1.0000
  S   S214      1.0  0.05415  0.81006  0.65957  1.0000
  C   C517      1.0  0.20323  0.52072  0.82745  1.0000
  H   H838      1.0  0.17994  0.55023  0.84040  1.0000
  H   H839      1.0  0.05320  0.63715  0.89304  1.0000
  C   C518      1.0  0.20216  0.86036  0.89643  1.0000
  S   S215      1.0  0.16942  0.92442  0.66038  1.0000
  H   H840      1.0  0.19252  0.65822  0.76098  1.0000
  C   C519      1.0  0.20425  0.95743  0.76620  1.0000
  S   S216      1.0  0.12703  0.94960  0.73467  1.0000
  C   C520      1.0  0.18697  0.95179  0.74528  1.0000
  C   C521      1.0  0.05161  0.73345  0.75847  1.0000
  H   H841      1.0  0.10827  0.64910  0.86695  1.0000
  S   S217      1.0  0.23891  0.62813  0.69433  1.0000
  H   H842      1.0  0.23181  0.66577  0.67034  1.0000
  Fe  Fe104     1.0  0.13561  0.96699  0.70543  1.0000
  C   C522      1.0  0.08829  0.82157  0.64213  1.0000
  H   H843      1.0  0.11275  0.91366  0.64599  1.0000
  C   C523      1.0  0.23771  0.57230  0.80318  1.0000
  H   H844      1.0  0.19135  0.86735  0.66955  1.0000
  H   H845      1.0  0.15997  0.98328  0.75637  1.0000
  N   N54       1.0  0.08206  0.64075  0.88251  1.0000
  H   H846      1.0  0.17703  0.64621  0.75595  1.0000
  C   C524      1.0  0.17457  0.53667  0.84550  1.0000
  H   H847      1.0  0.19194  0.91372  0.78240  1.0000
  H   H848      1.0  0.00180  0.76593  0.85500  1.0000
  S   S218      1.0  0.22922  0.93847  0.86377  1.0000
  C   C525      1.0  0.16324  0.86351  0.65542  1.0000
  C   C526      1.0  0.08966  0.62001  0.88332  1.0000
  H   H849      1.0  0.23588  0.62068  0.75187  1.0000
  H   H850      1.0  0.16170  0.87807  0.65795  1.0000
  H   H851      1.0  0.17747  0.82536  0.66215  1.0000
  H   H852      1.0  0.21212  0.60660  0.77810  1.0000
  H   H853      1.0  0.22134  0.50497  0.76439  1.0000
  H   H854      1.0  0.23752  0.55766  0.80336  1.0000
  Fe  Fe105     1.0  0.01548  0.84026  0.71328  1.0000
  S   S219      1.0  0.21456  0.97322  0.77237  1.0000
  H   H855      1.0  0.22351  0.85369  0.92178  1.0000
  H   H856      1.0  0.20315  0.52762  0.74088  1.0000
  C   C527      1.0  0.13765  0.95881  0.77657  1.0000
  H   H857      1.0  0.18216  0.49525  0.74854  1.0000
  H   H858      1.0  0.23187  0.83077  0.90000  1.0000
  H   H859      1.0  0.22806  0.71869  0.93918  1.0000
  C   C528      1.0  0.19221  0.85275  0.66740  1.0000
  H   H860      1.0  0.14604  0.95140  0.78777  1.0000
  C   C529      1.0  0.15681  0.91842  0.64662  1.0000
  C   C530      1.0  0.23535  0.72339  0.94789  1.0000
  H   H861      1.0  0.21919  0.87892  0.91207  1.0000
  C   C531      1.0  0.23286  0.78807  0.92207  1.0000
  H   H862      1.0  0.22699  0.64353  0.75815  1.0000
  C   C532      1.0  0.20536  0.73916  0.96426  1.0000
  H   H863      1.0  0.19563  0.52149  0.81618  1.0000
  C   C533      1.0  0.13736  0.91864  0.65257  1.0000
  H   H864      1.0  0.20749  0.84561  0.66476  1.0000
  N   N55       1.0  0.13319  0.97988  0.77456  1.0000
  H   H865      1.0  0.23605  0.97243  0.90466  1.0000
  H   H866      1.0  0.17252  0.97426  0.64884  1.0000
  H   H867      1.0  0.08707  0.89245  0.64223  1.0000
  H   H868      1.0  0.15238  0.97320  0.66804  1.0000
  C   C534      1.0  0.15831  0.98243  0.65460  1.0000
  H   H869      1.0  0.10805  0.97967  0.79661  1.0000
  H   H870      1.0  0.99284  0.74261  0.83155  1.0000
  H   H871      1.0  0.15966  0.98025  0.78097  1.0000
  C   C535      1.0  0.06449  0.86961  0.64169  1.0000
  C   C536      1.0  0.12782  0.91326  0.64149  1.0000
  H   H872      1.0  0.23970  0.49762  0.74525  1.0000
  C   C537      1.0  0.07457  0.81197  0.64153  1.0000
  H   H873      1.0  0.24884  0.43175  0.26591  1.0000
  H   H874      1.0  0.26462  0.20727  0.18475  1.0000
  H   H875      1.0  0.47657  0.32426  0.23132  1.0000
  C   C538      1.0  0.33456  0.38165  0.28624  1.0000
  C   C539      1.0  0.26943  0.16596  0.13849  1.0000
  Fe  Fe106     1.0  0.38737  0.31453  0.28462  1.0000
  S   S220      1.0  0.39158  0.30649  0.25659  1.0000
  C   C540      1.0  0.32982  0.29891  0.28984  1.0000
  C   C541      1.0  0.32991  0.26494  0.29771  1.0000
  H   H876      1.0  0.38749  0.16474  0.23518  1.0000
  Fe  Fe107     1.0  0.27142  0.44625  0.28550  1.0000
  C   C542      1.0  0.37743  0.14952  0.21130  1.0000
  S   S221      1.0  0.28980  0.42265  0.27098  1.0000
  H   H877      1.0  0.37534  0.16544  0.20677  1.0000
  H   H878      1.0  0.38699  0.14438  0.25471  1.0000
  H   H879      1.0  0.46792  0.29894  0.28245  1.0000
  C   C543      1.0  0.46533  0.31562  0.23588  1.0000
  H   H880      1.0  0.27290  0.99205  0.14397  1.0000
  H   H881      1.0  0.34415  0.14741  0.23689  1.0000
  H   H882      1.0  0.28593  0.05986  0.25232  1.0000
  H   H883      1.0  0.43037  0.31012  0.25462  1.0000
  Fe  Fe108     1.0  0.34733  0.23120  0.21290  1.0000
  S   S222      1.0  0.36072  0.23833  0.18194  1.0000
  S   S223      1.0  0.31770  0.22528  0.22246  1.0000
  Fe  Fe109     1.0  0.38496  0.22414  0.22525  1.0000
  S   S224      1.0  0.40165  0.22757  0.19533  1.0000
  S   S225      1.0  0.39863  0.22125  0.24976  1.0000
  Fe  Fe110     1.0  0.37876  0.25349  0.19029  1.0000
  S   S226      1.0  0.39011  0.27974  0.17339  1.0000
  Fe  Fe111     1.0  0.38224  0.21192  0.18972  1.0000
  S   S227      1.0  0.38967  0.19100  0.17050  1.0000
  S   S228      1.0  0.36205  0.25033  0.22037  1.0000
  S   S229      1.0  0.36888  0.20457  0.22063  1.0000
  H   H884      1.0  0.41504  0.25407  0.10170  1.0000
  H   H885      1.0  0.31703  0.30206  0.28361  1.0000
  C   C544      1.0  0.37958  0.27731  0.13169  1.0000
  S   S230      1.0  0.45724  0.28338  0.20898  1.0000
  Fe  Fe112     1.0  0.31996  0.22247  0.09906  1.0000
  S   S231      1.0  0.29908  0.21221  0.12498  1.0000
  S   S232      1.0  0.35097  0.21953  0.09888  1.0000
  Fe  Fe113     1.0  0.29130  0.23328  0.07324  1.0000
  S   S233      1.0  0.26809  0.22370  0.09713  1.0000
  S   S234      1.0  0.28376  0.24781  0.04460  1.0000
  Fe  Fe114     1.0  0.27841  0.23830  0.11397  1.0000
  S   S235      1.0  0.25608  0.25425  0.13413  1.0000
  Fe  Fe115     1.0  0.29048  0.19860  0.10598  1.0000
  S   S236      1.0  0.28515  0.16875  0.11638  1.0000
  S   S237      1.0  0.30003  0.25007  0.08952  1.0000
  S   S238      1.0  0.31308  0.20662  0.08065  1.0000
  C   C545      1.0  0.25230  0.05335  0.25167  1.0000
  Fe  Fe116     1.0  0.30250  0.12737  0.21622  1.0000
  S   S239      1.0  0.27439  0.13618  0.23499  1.0000
  S   S240      1.0  0.32680  0.14296  0.20679  1.0000
  Fe  Fe117     1.0  0.29000  0.09495  0.20733  1.0000
  S   S241      1.0  0.28072  0.46071  0.30331  1.0000
  S   S242      1.0  0.30065  0.06995  0.19297  1.0000
  H   H886      1.0  0.48499  0.30950  0.26343  1.0000
  H   H887      1.0  0.33806  0.31033  0.28223  1.0000
  Fe  Fe118     1.0  0.27572  0.10446  0.24592  1.0000
  H   H888      1.0  0.29947  0.03621  0.25051  1.0000
  S   S243      1.0  0.29032  0.12549  0.19259  1.0000
  S   S244      1.0  0.30507  0.09587  0.22931  1.0000
  C   C546      1.0  0.24924  0.42340  0.25535  1.0000
  H   H889      1.0  0.39202  0.14352  0.20415  1.0000
  C   C547      1.0  0.34212  0.39056  0.29609  1.0000
  H   H890      1.0  0.27212  0.45029  0.21582  1.0000
  N   N56       1.0  0.46651  0.22401  0.23473  1.0000
  C   C548      1.0  0.45053  0.33153  0.26199  1.0000
  H   H891      1.0  0.37048  0.27319  0.14593  1.0000
  H   H892      1.0  0.26164  0.24210  0.20093  1.0000
  H   H893      1.0  0.46077  0.23083  0.26220  1.0000
  H   H894      1.0  0.39657  0.24602  0.15385  1.0000
  H   H895      1.0  0.27078  0.44998  0.24029  1.0000
  C   C549      1.0  0.28337  0.05725  0.19395  1.0000
  H   H896      1.0  0.35802  0.26487  0.26606  1.0000
  H   H897      1.0  0.25824  0.28645  0.04748  1.0000
  C   C550      1.0  0.34847  0.27891  0.26789  1.0000
  C   C551      1.0  0.27516  0.02703  0.19534  1.0000
  C   C552      1.0  0.28884  0.03770  0.19356  1.0000
  C   C553      1.0  0.24529  0.27653  0.12194  1.0000
  H   H898      1.0  0.43684  0.22621  0.24699  1.0000
  H   H899      1.0  0.27952  0.01187  0.19547  1.0000
  H   H900      1.0  0.30367  0.03071  0.19221  1.0000
  H   H901      1.0  0.37278  0.25334  0.11363  1.0000
  C   C554      1.0  0.25625  0.28763  0.10716  1.0000
  H   H902      1.0  0.27147  0.28282  0.10360  1.0000
  C   C555      1.0  0.28585  0.23289  0.02894  1.0000
  H   H903      1.0  0.44724  0.28793  0.25752  1.0000
  C   C556      1.0  0.24252  0.03165  0.12578  1.0000
  H   H904      1.0  0.27157  0.02503  0.23367  1.0000
  C   C557      1.0  0.29752  0.20232  0.01929  1.0000
  C   C558      1.0  0.29557  0.21378  0.03224  1.0000
  H   H905      1.0  0.30526  0.18760  0.02183  1.0000
  H   H906      1.0  0.30180  0.20787  0.04465  1.0000
  Fe  Fe119     1.0  0.26227  0.13231  0.21214  1.0000
  H   H907      1.0  0.44329  0.22308  0.22299  1.0000
  C   C559      1.0  0.24871  0.16004  0.17603  1.0000
  H   H908      1.0  0.28312  0.01030  0.25240  1.0000
  H   H909      1.0  0.28813  0.05088  0.23164  1.0000
  H   H910      1.0  0.25081  0.06649  0.25702  1.0000
  H   H911      1.0  0.33661  0.28108  0.26057  1.0000
  C   C560      1.0  0.26076  0.18163  0.14711  1.0000
  C   C561      1.0  0.31764  0.41923  0.29039  1.0000
  C   C562      1.0  0.26698  0.14752  0.14833  1.0000
  C   C563      1.0  0.41020  0.28130  0.18095  1.0000
  C   C564      1.0  0.40972  0.29741  0.18763  1.0000
  C   C565      1.0  0.42468  0.29817  0.19540  1.0000
  C   C566      1.0  0.44073  0.28326  0.19577  1.0000
  C   C567      1.0  0.44184  0.26760  0.18797  1.0000
  C   C568      1.0  0.42647  0.26651  0.18079  1.0000
  H   H912      1.0  0.39728  0.30890  0.18780  1.0000
  H   H913      1.0  0.42350  0.31015  0.20169  1.0000
  H   H914      1.0  0.45412  0.25600  0.18812  1.0000
  H   H915      1.0  0.42722  0.25421  0.17521  1.0000
  C   C569      1.0  0.37765  0.19785  0.15141  1.0000
  C   C570      1.0  0.35886  0.20834  0.15296  1.0000
  C   C571      1.0  0.35012  0.21441  0.13714  1.0000
  C   C572      1.0  0.36025  0.21017  0.11963  1.0000
  C   C573      1.0  0.37883  0.19939  0.11819  1.0000
  C   C574      1.0  0.38737  0.19299  0.13406  1.0000
  H   H916      1.0  0.35104  0.21205  0.16618  1.0000
  H   H917      1.0  0.33584  0.22293  0.13829  1.0000
  H   H918      1.0  0.38676  0.19613  0.10466  1.0000
  H   H919      1.0  0.40181  0.18482  0.13267  1.0000
  C   C575      1.0  0.31896  0.20274  0.21787  1.0000
  C   C576      1.0  0.33429  0.19552  0.20463  1.0000
  C   C577      1.0  0.33583  0.17772  0.20057  1.0000
  C   C578      1.0  0.32235  0.16650  0.21025  1.0000
  C   C579      1.0  0.30671  0.17372  0.22339  1.0000
  C   C580      1.0  0.30494  0.19194  0.22709  1.0000
  H   H920      1.0  0.34506  0.20372  0.19744  1.0000
  H   H921      1.0  0.34777  0.17254  0.19011  1.0000
  H   H922      1.0  0.29630  0.16511  0.23110  1.0000
  H   H923      1.0  0.29303  0.19738  0.23746  1.0000
  Fe  Fe120     1.0  0.37440  0.34774  0.30522  1.0000
  C   C581      1.0  0.28936  0.20971  0.00321  1.0000
  H   H924      1.0  0.35280  0.14842  0.25677  1.0000
  H   H925      1.0  0.27011  0.25784  0.16662  1.0000
  C   C582      1.0  0.47321  0.30165  0.26676  1.0000
  S   S245      1.0  0.40216  0.33628  0.28725  1.0000
  N   N57       1.0  0.39290  0.26037  0.12554  1.0000
  H   H926      1.0  0.33838  0.25028  0.29666  1.0000
  C   C583      1.0  0.38205  0.24680  0.12421  1.0000
  S   S246      1.0  0.25557  0.47385  0.27053  1.0000
  H   H927      1.0  0.44472  0.32978  0.27753  1.0000
  C   C584      1.0  0.26686  0.22114  0.17491  1.0000
  H   H928      1.0  0.43648  0.29932  0.27742  1.0000
  H   H929      1.0  0.38729  0.28784  0.13295  1.0000
  H   H930      1.0  0.46625  0.25005  0.24252  1.0000
  C   C585      1.0  0.39653  0.28234  0.25456  1.0000
  C   C586      1.0  0.40028  0.26689  0.26969  1.0000
  C   C587      1.0  0.40142  0.24799  0.26814  1.0000
  C   C588      1.0  0.39921  0.24452  0.25133  1.0000
  C   C589      1.0  0.39704  0.25984  0.23580  1.0000
  C   C590      1.0  0.39535  0.27865  0.23755  1.0000
  H   H931      1.0  0.40173  0.26950  0.28274  1.0000
  H   H932      1.0  0.40354  0.23616  0.28010  1.0000
  H   H933      1.0  0.39653  0.25732  0.22236  1.0000
  H   H934      1.0  0.39262  0.29048  0.22577  1.0000
  H   H935      1.0  0.31168  0.43389  0.29151  1.0000
  H   H936      1.0  0.28605  0.23726  0.20281  1.0000
  H   H937      1.0  0.35675  0.29028  0.26018  1.0000
  C   C591      1.0  0.30996  0.41037  0.28063  1.0000
  C   C592      1.0  0.31854  0.39158  0.27846  1.0000
  C   C593      1.0  0.28643  0.04677  0.24735  1.0000
  N   N58       1.0  0.25143  0.43530  0.23585  1.0000
  H   H938      1.0  0.25610  0.31377  0.08569  1.0000
  C   C594      1.0  0.44233  0.30202  0.26182  1.0000
  H   H939      1.0  0.34121  0.36727  0.28433  1.0000
  C   C595      1.0  0.28378  0.24713  0.16602  1.0000
  H   H940      1.0  0.32505  0.30024  0.30498  1.0000
  H   H941      1.0  0.25453  0.02770  0.28455  1.0000
  H   H942      1.0  0.27206  0.03496  0.13825  1.0000
  H   H943      1.0  0.44234  0.24587  0.22784  1.0000
  H   H944      1.0  0.35263  0.16813  0.23652  1.0000
  S   S247      1.0  0.35896  0.32826  0.29967  1.0000
  S   S248      1.0  0.29287  0.19509  0.98689  1.0000
  H   H945      1.0  0.31741  0.26733  0.29122  1.0000
  H   H946      1.0  0.37003  0.28485  0.12156  1.0000
  H   H947      1.0  0.28193  0.42880  0.23128  1.0000
  N   N59       1.0  0.45786  0.31269  0.25661  1.0000
  H   H948      1.0  0.37449  0.11674  0.25315  1.0000
  H   H949      1.0  0.41339  0.26071  0.14109  1.0000
  C   C596      1.0  0.35522  0.15219  0.24099  1.0000
  C   C597      1.0  0.40485  0.26654  0.10676  1.0000
  H   H950      1.0  0.28878  0.24536  0.15105  1.0000
  C   C598      1.0  0.27787  0.24039  0.01273  1.0000
  H   H951      1.0  0.37274  0.24208  0.13810  1.0000
  C   C599      1.0  0.38875  0.14889  0.23899  1.0000
  N   N60       1.0  0.34147  0.27967  0.28819  1.0000
  H   H952      1.0  0.31282  0.38470  0.27073  1.0000
  H   H953      1.0  0.41534  0.23790  0.13544  1.0000
  H   H954      1.0  0.27043  0.25519  0.01004  1.0000
  C   C600      1.0  0.40513  0.25081  0.13952  1.0000
  C   C601      1.0  0.26747  0.03366  0.27723  1.0000
  H   H955      1.0  0.45391  0.32311  0.22778  1.0000
  H   H956      1.0  0.39605  0.27381  0.09587  1.0000
  C   C602      1.0  0.46978  0.23419  0.24778  1.0000
  H   H957      1.0  0.25231  0.43245  0.20768  1.0000
  H   H958      1.0  0.40347  0.14239  0.23259  1.0000
  H   H959      1.0  0.29428  0.25345  0.16928  1.0000
  H   H960      1.0  0.30463  0.21211  0.16270  1.0000
  H   H961      1.0  0.41324  0.27678  0.10732  1.0000
  H   H962      1.0  0.39162  0.23368  0.11991  1.0000
  H   H963      1.0  0.26129  0.41086  0.25673  1.0000
  H   H964      1.0  0.27366  0.13538  0.14172  1.0000
  H   H965      1.0  0.27997  0.02273  0.28132  1.0000
  C   C603      1.0  0.37666  0.12207  0.23747  1.0000
  N   N61       1.0  0.33065  0.15401  0.14460  1.0000
  C   C604      1.0  0.33947  0.13445  0.15354  1.0000
  C   C605      1.0  0.34110  0.16799  0.14578  1.0000
  C   C606      1.0  0.31074  0.15872  0.15469  1.0000
  C   C607      1.0  0.33120  0.15489  0.12444  1.0000
  H   H966      1.0  0.35454  0.13035  0.14636  1.0000
  H   H967      1.0  0.33180  0.12359  0.15292  1.0000
  H   H968      1.0  0.33913  0.13329  0.16881  1.0000
  H   H969      1.0  0.34095  0.16775  0.16079  1.0000
  H   H970      1.0  0.35621  0.16498  0.13825  1.0000
  H   H971      1.0  0.33471  0.18284  0.13912  1.0000
  H   H972      1.0  0.30338  0.17312  0.14809  1.0000
  H   H973      1.0  0.30975  0.15848  0.16989  1.0000
  H   H974      1.0  0.30256  0.14828  0.15421  1.0000
  H   H975      1.0  0.32473  0.16952  0.11724  1.0000
  H   H976      1.0  0.32304  0.14483  0.12302  1.0000
  H   H977      1.0  0.34598  0.15124  0.11637  1.0000
  N   N62       1.0  0.28142  0.22866  0.17930  1.0000
  H   H978      1.0  0.36668  0.28685  0.29062  1.0000
  H   H979      1.0  0.31098  0.22014  0.18040  1.0000
  C   C608      1.0  0.29970  0.21476  0.17733  1.0000
  H   H980      1.0  0.26226  0.41085  0.22287  1.0000
  H   H981      1.0  0.46865  0.19500  0.23278  1.0000
  N   N63       1.0  0.37452  0.14317  0.23220  1.0000
  H   H982      1.0  0.27318  0.23467  0.98762  1.0000
  N   N64       1.0  0.26916  0.03881  0.25640  1.0000
  H   H983      1.0  0.46207  0.19894  0.25658  1.0000
  C   C609      1.0  0.33363  0.40938  0.29809  1.0000
  H   H984      1.0  0.36607  0.11737  0.23248  1.0000
  C   C610      1.0  0.47884  0.22878  0.21586  1.0000
  H   H985      1.0  0.26652  0.04645  0.28295  1.0000
  H   H986      1.0  0.47170  0.30171  0.23144  1.0000
  H   H987      1.0  0.25328  0.05778  0.23603  1.0000
  C   C611      1.0  0.44641  0.23003  0.23303  1.0000
  H   H988      1.0  0.25782  0.12879  0.27460  1.0000
  C   C612      1.0  0.47105  0.20308  0.24229  1.0000
  H   H989      1.0  0.39103  0.11476  0.23104  1.0000
  H   H990      1.0  0.36730  0.14491  0.20564  1.0000
  C   C613      1.0  0.25074  0.42394  0.22255  1.0000
  C   C614      1.0  0.27944  0.22878  0.99999  1.0000
  C   C615      1.0  0.27538  0.23163  0.19898  1.0000
  H   H991      1.0  0.46193  0.33987  0.25848  1.0000
  H   H992      1.0  0.25060  0.03975  0.15570  1.0000
  C   C616      1.0  0.26985  0.44139  0.23049  1.0000
  H   H993      1.0  0.43895  0.34032  0.25458  1.0000
  S   S249      1.0  0.26645  0.08836  0.27562  1.0000
  C   C617      1.0  0.26419  0.06620  0.19572  1.0000
  C   C618      1.0  0.25053  0.05559  0.19720  1.0000
  Fe  Fe121     1.0  0.24952  0.99093  0.20320  1.0000
  S   S250      1.0  0.26070  0.10153  0.22479  1.0000
  C   C619      1.0  0.26571  0.00254  0.13294  1.0000
  H   H994      1.0  0.26240  0.19596  0.13945  1.0000
  C   C620      1.0  0.26097  0.02825  0.14914  1.0000
  H   H995      1.0  0.48489  0.23019  0.24925  1.0000
  C   C621      1.0  0.25676  0.14454  0.16712  1.0000
  C   C622      1.0  0.24337  0.29437  0.05143  1.0000
  H   H996      1.0  0.29851  0.20069  0.18726  1.0000
  H   H997      1.0  0.26798  0.01836  0.16060  1.0000
  C   C623      1.0  0.24755  0.30517  0.09707  1.0000
  C   C624      1.0  0.25597  0.03595  0.19716  1.0000
  C   C625      1.0  0.35775  0.27592  0.29739  1.0000
  H   H998      1.0  0.27356  0.21797  0.20942  1.0000
  H   H999      1.0  0.25295  0.23146  0.17589  1.0000
  H   H1000     1.0  0.25900  0.99416  0.12709  1.0000
  H   H1001     1.0  0.27091  0.21868  0.16019  1.0000
  H   H1002     1.0  0.25560  0.13012  0.17491  1.0000
  H   H1003     1.0  0.47945  0.28753  0.26273  1.0000
  H   H1004     1.0  0.48621  0.19815  0.24362  1.0000
  H   H1005     1.0  0.27694  0.00831  0.12139  1.0000
  C   C626      1.0  0.25025  0.17868  0.16587  1.0000
  H   H1006     1.0  0.25992  0.08137  0.19563  1.0000
  H   H1007     1.0  0.25318  0.03830  0.11419  1.0000
  H   H1008     1.0  0.47593  0.24447  0.20988  1.0000
  N   N65       1.0  0.25153  0.01801  0.14094  1.0000
  H   H1009     1.0  0.24399  0.19069  0.17271  1.0000
  C   C627      1.0  0.24692  0.10296  0.28719  1.0000
  H   H1010     1.0  0.25074  0.25915  0.07271  1.0000
  H   H1011     1.0  0.24317  0.30287  0.06177  1.0000
  C   C628      1.0  0.27043  0.02153  0.24932  1.0000
  H   H1012     1.0  0.25766  0.01508  0.25583  1.0000
  H   H1013     1.0  0.33959  0.41644  0.30545  1.0000
  H   H1014     1.0  0.36691  0.26154  0.29648  1.0000
  C   C629      1.0  0.24594  0.12273  0.28348  1.0000
  H   H1015     1.0  0.47660  0.22157  0.20554  1.0000
  H   H1016     1.0  0.24478  0.26197  0.04071  1.0000
  S   S251      1.0  0.36196  0.37876  0.30630  1.0000
  S   S252      1.0  0.48745  0.36696  0.30756  1.0000
  S   S253      1.0  0.24559  0.43906  0.30691  1.0000
  H   H1017     1.0  0.24320  0.99941  0.16762  1.0000
  Fe  Fe122     1.0  0.48928  0.27597  0.20074  1.0000
  H   H1018     1.0  0.35304  0.27636  0.31272  1.0000
  C   C630      1.0  0.38301  0.27364  0.63552  1.0000
  C   C631      1.0  0.25088  0.32930  0.53889  1.0000
  C   C632      1.0  0.29517  0.39216  0.34338  1.0000
  H   H1019     1.0  0.42038  0.26234  0.63659  1.0000
  H   H1020     1.0  0.28480  0.36604  0.55948  1.0000
  S   S254      1.0  0.25897  0.44223  0.35387  1.0000
  H   H1021     1.0  0.33946  0.32755  0.39408  1.0000
  N   N66       1.0  0.27247  0.38012  0.53500  1.0000
  H   H1022     1.0  0.29482  0.35698  0.34003  1.0000
  H   H1023     1.0  0.36803  0.27182  0.63870  1.0000
  H   H1024     1.0  0.48655  0.30583  0.34894  1.0000
  H   H1025     1.0  0.26768  0.42834  0.63150  1.0000
  H   H1026     1.0  0.33128  0.36187  0.36305  1.0000
  H   H1027     1.0  0.27904  0.36606  0.37122  1.0000
  S   S255      1.0  0.39440  0.29303  0.31042  1.0000
  Fe  Fe123     1.0  0.27205  0.32663  0.42958  1.0000
  S   S256      1.0  0.25461  0.35480  0.43584  1.0000
  S   S257      1.0  0.30325  0.32604  0.41860  1.0000
  H   H1028     1.0  0.45478  0.31965  0.39263  1.0000
  C   C633      1.0  0.46573  0.31129  0.38295  1.0000
  H   H1029     1.0  0.28804  0.37513  0.50751  1.0000
  H   H1030     1.0  0.29037  0.37855  0.38119  1.0000
  S   S258      1.0  0.25885  0.30897  0.45699  1.0000
  N   N67       1.0  0.30500  0.37363  0.35342  1.0000
  Fe  Fe124     1.0  0.26983  0.35106  0.59886  1.0000
  H   H1031     1.0  0.24309  0.39450  0.53877  1.0000
  C   C634      1.0  0.28472  0.36379  0.54534  1.0000
  Fe  Fe125     1.0  0.27559  0.31912  0.57791  1.0000
  S   S259      1.0  0.26769  0.29772  0.60478  1.0000
  S   S260      1.0  0.28541  0.31174  0.54891  1.0000
  H   H1032     1.0  0.47749  0.30183  0.31544  1.0000
  H   H1033     1.0  0.25163  0.38401  0.56046  1.0000
  Fe  Fe126     1.0  0.28482  0.31013  0.61745  1.0000
  H   H1034     1.0  0.38272  0.28931  0.63016  1.0000
  H   H1035     1.0  0.27029  0.41059  0.52502  1.0000
  S   S261      1.0  0.29523  0.32903  0.58978  1.0000
  C   C635      1.0  0.45137  0.32285  0.31485  1.0000
  C   C636      1.0  0.26383  0.39324  0.61161  1.0000
  H   H1036     1.0  0.29129  0.30368  0.39873  1.0000
  H   H1037     1.0  0.33275  0.38019  0.34167  1.0000
  H   H1038     1.0  0.30359  0.39688  0.32893  1.0000
  S   S262      1.0  0.34323  0.29423  0.34411  1.0000
  H   H1039     1.0  0.28104  0.39123  0.34171  1.0000
  Fe  Fe127     1.0  0.40774  0.31548  0.31411  1.0000
  H   H1040     1.0  0.32155  0.38661  0.36418  1.0000
  C   C637      1.0  0.29310  0.36777  0.37234  1.0000
  C   C638      1.0  0.33103  0.31428  0.62189  1.0000
  H   H1041     1.0  0.31560  0.34462  0.34956  1.0000
  C   C639      1.0  0.24282  0.41628  0.63757  1.0000
  C   C640      1.0  0.29836  0.47038  0.34345  1.0000
  H   H1042     1.0  0.30197  0.37070  0.62948  1.0000
  C   C641      1.0  0.47097  0.31692  0.31392  1.0000
  H   H1043     1.0  0.24530  0.32978  0.55366  1.0000
  H   H1044     1.0  0.27863  0.40075  0.54688  1.0000
  H   H1045     1.0  0.48789  0.33807  0.63167  1.0000
  C   C642      1.0  0.32344  0.37569  0.35570  1.0000
  C   C643      1.0  0.48224  0.33041  0.31099  1.0000
  H   H1046     1.0  0.35385  0.32948  0.60890  1.0000
  H   H1047     1.0  0.32720  0.31543  0.60857  1.0000
  H   H1048     1.0  0.26845  0.36323  0.51746  1.0000
  H   H1049     1.0  0.29967  0.36145  0.53733  1.0000
  H   H1050     1.0  0.27971  0.35027  0.54781  1.0000
  C   C644      1.0  0.24653  0.39415  0.39151  1.0000
  C   C645      1.0  0.27190  0.40657  0.61552  1.0000
  Fe  Fe128     1.0  0.36718  0.30844  0.32597  1.0000
  C   C646      1.0  0.24854  0.42227  0.36569  1.0000
  H   H1051     1.0  0.28477  0.46865  0.34115  1.0000
  H   H1052     1.0  0.26556  0.41324  0.38704  1.0000
  S   S263      1.0  0.30310  0.29336  0.63864  1.0000
  H   H1053     1.0  0.46093  0.33525  0.34970  1.0000
  C   C647      1.0  0.26480  0.32749  0.50059  1.0000
  C   C648      1.0  0.27682  0.32007  0.51370  1.0000
  C   C649      1.0  0.26991  0.32096  0.53288  1.0000
  H   H1054     1.0  0.29413  0.39691  0.52476  1.0000
  Fe  Fe129     1.0  0.24407  0.32206  0.61226  1.0000
  H   H1055     1.0  0.27027  0.32675  0.48582  1.0000
  H   H1056     1.0  0.29155  0.31364  0.50895  1.0000
  N   N68       1.0  0.47907  0.32308  0.36995  1.0000
  S   S264      1.0  0.38121  0.32869  0.33257  1.0000
  H   H1057     1.0  0.29854  0.46436  0.35877  1.0000
  H   H1058     1.0  0.29265  0.40375  0.35127  1.0000
  H   H1059     1.0  0.24700  0.36900  0.54744  1.0000
  H   H1060     1.0  0.47821  0.34889  0.34809  1.0000
  C   C650      1.0  0.30836  0.35883  0.34225  1.0000
  H   H1061     1.0  0.39108  0.26638  0.62371  1.0000
  H   H1062     1.0  0.30005  0.35386  0.38036  1.0000
  C   C651      1.0  0.47397  0.34993  0.30926  1.0000
  H   H1063     1.0  0.25121  0.38505  0.40404  1.0000
  Fe  Fe130     1.0  0.25408  0.45491  0.32415  1.0000
  C   C652      1.0  0.25465  0.41016  0.38186  1.0000
  C   C653      1.0  0.24574  0.33571  0.50665  1.0000
  H   H1064     1.0  0.47330  0.29849  0.39189  1.0000
  C   C654      1.0  0.27918  0.39791  0.53277  1.0000
  C   C655      1.0  0.24406  0.28777  0.51071  1.0000
  C   C656      1.0  0.33221  0.30281  0.36498  1.0000
  C   C657      1.0  0.31414  0.29951  0.37464  1.0000
  C   C658      1.0  0.30509  0.30651  0.39120  1.0000
  C   C659      1.0  0.31420  0.31665  0.39822  1.0000
  C   C660      1.0  0.33229  0.31985  0.38860  1.0000
  C   C661      1.0  0.34124  0.31301  0.37200  1.0000
  H   H1065     1.0  0.30716  0.29146  0.36938  1.0000
  H   H1066     1.0  0.35533  0.31520  0.36497  1.0000
  S   S265      1.0  0.27649  0.38026  0.59405  1.0000
  H   H1067     1.0  0.28606  0.40840  0.60805  1.0000
  H   H1068     1.0  0.31760  0.36270  0.32801  1.0000
  S   S266      1.0  0.43773  0.30542  0.31889  1.0000
  S   S267      1.0  0.26041  0.33276  0.62734  1.0000
  H   H1069     1.0  0.33215  0.39009  0.63339  1.0000
  C   C662      1.0  0.34620  0.32213  0.62209  1.0000
  C   C663      1.0  0.35160  0.32035  0.63919  1.0000
  S   S268      1.0  0.25285  0.32278  0.41291  1.0000
  H   H1070     1.0  0.45816  0.30604  0.37490  1.0000
  H   H1071     1.0  0.31008  0.46134  0.33503  1.0000
  H   H1072     1.0  0.42797  0.34712  0.31318  1.0000
  C   C664      1.0  0.44310  0.34241  0.31256  1.0000
  C   C665      1.0  0.24545  0.39105  0.62111  1.0000
  H   H1073     1.0  0.24268  0.21833  0.62564  1.0000
  H   H1074     1.0  0.30740  0.40084  0.63436  1.0000
  H   H1075     1.0  0.47862  0.33874  0.39067  1.0000
  H   H1076     1.0  0.25557  0.27540  0.50736  1.0000
  H   H1077     1.0  0.24409  0.25283  0.61567  1.0000
  H   H1078     1.0  0.32458  0.26509  0.31309  1.0000
  H   H1079     1.0  0.45773  0.34911  0.36714  1.0000
  C   C666      1.0  0.45439  0.35590  0.30983  1.0000
  C   C667      1.0  0.46851  0.33981  0.35825  1.0000
  C   C668      1.0  0.26154  0.41783  0.62878  1.0000
  S   S269      1.0  0.25093  0.34288  0.58465  1.0000
  H   H1080     1.0  0.32674  0.36025  0.62853  1.0000
  H   H1081     1.0  0.26408  0.38862  0.50795  1.0000
  C   C669      1.0  0.31266  0.36262  0.63832  1.0000
  C   C670      1.0  0.32139  0.30429  0.63876  1.0000
  C   C671      1.0  0.27331  0.37669  0.51613  1.0000
  H   H1082     1.0  0.24585  0.30012  0.49852  1.0000
  H   H1083     1.0  0.24632  0.29172  0.52325  1.0000
  H   H1084     1.0  0.44787  0.37099  0.30844  1.0000
  C   C672      1.0  0.25268  0.38201  0.54590  1.0000
  S   S270      1.0  0.37125  0.32968  0.63865  1.0000
  C   C673      1.0  0.48883  0.32981  0.38106  1.0000
  H   H1085     1.0  0.33050  0.48412  0.33325  1.0000
  H   H1086     1.0  0.29366  0.38382  0.67618  1.0000
  H   H1087     1.0  0.34891  0.40826  0.68069  1.0000
  S   S271      1.0  0.39955  0.32106  0.71152  1.0000
  C   C674      1.0  0.32716  0.36160  0.66412  1.0000
  Fe  Fe131     1.0  0.39795  0.29817  0.69773  1.0000
  S   S272      1.0  0.40921  0.26695  0.70850  1.0000
  Fe  Fe132     1.0  0.37078  0.33502  0.70489  1.0000
  S   S273      1.0  0.34509  0.34684  0.72518  1.0000
  H   H1088     1.0  0.46558  0.22808  0.77872  1.0000
  H   H1089     1.0  0.45538  0.23003  0.80284  1.0000
  S   S274      1.0  0.26355  0.45183  0.70804  1.0000
  H   H1090     1.0  0.33238  0.45976  0.65950  1.0000
  C   C675      1.0  0.28014  0.03157  0.80776  1.0000
  H   H1091     1.0  0.27035  0.16378  0.76897  1.0000
  S   S275      1.0  0.24491  0.21435  0.92601  1.0000
  Fe  Fe133     1.0  0.36326  0.22315  0.80700  1.0000
  S   S276      1.0  0.37948  0.19270  0.81273  1.0000
  S   S277      1.0  0.35046  0.23845  0.78151  1.0000
  Fe  Fe134     1.0  0.36235  0.22910  0.84586  1.0000
  S   S278      1.0  0.37801  0.19915  0.85536  1.0000
  S   S279      1.0  0.35316  0.25196  0.86289  1.0000
  Fe  Fe135     1.0  0.39668  0.20428  0.82631  1.0000
  S   S280      1.0  0.42871  0.19631  0.82214  1.0000
  Fe  Fe136     1.0  0.35943  0.19026  0.84113  1.0000
  S   S281      1.0  0.34346  0.16640  0.85627  1.0000
  S   S282      1.0  0.38222  0.23501  0.81774  1.0000
  S   S283      1.0  0.34204  0.21997  0.83444  1.0000
  H   H1092     1.0  0.26566  0.14451  0.74894  1.0000
  H   H1093     1.0  0.34168  0.35924  0.65509  1.0000
  S   S284      1.0  0.31087  0.42754  0.67861  1.0000
  H   H1094     1.0  0.41095  0.28538  0.64274  1.0000
  C   C676      1.0  0.25239  0.01768  0.82227  1.0000
  S   S285      1.0  0.46421  0.23256  0.86935  1.0000
  H   H1095     1.0  0.47079  0.24475  0.81967  1.0000
  Fe  Fe137     1.0  0.27922  0.43653  0.68457  1.0000
  Fe  Fe138     1.0  0.26461  0.23056  0.92985  1.0000
  S   S286      1.0  0.26945  0.25866  0.91092  1.0000
  S   S287      1.0  0.28763  0.20471  0.93511  1.0000
  Fe  Fe139     1.0  0.27994  0.12077  0.82281  1.0000
  S   S288      1.0  0.30879  0.12815  0.80978  1.0000
  H   H1096     1.0  0.29259  0.39928  0.70793  1.0000
  H   H1097     1.0  0.29391  0.03124  0.79830  1.0000
  H   H1098     1.0  0.28055  0.05709  0.81656  1.0000
  H   H1099     1.0  0.26509  0.13118  0.87610  1.0000
  H   H1100     1.0  0.40101  0.23731  0.64769  1.0000
  C   C677      1.0  0.32974  0.25354  0.87568  1.0000
  C   C678      1.0  0.31975  0.27089  0.88074  1.0000
  C   C679      1.0  0.30105  0.27249  0.89112  1.0000
  C   C680      1.0  0.29245  0.25659  0.89694  1.0000
  C   C681      1.0  0.30250  0.23910  0.89215  1.0000
  C   C682      1.0  0.32110  0.23762  0.88132  1.0000
  H   H1101     1.0  0.32645  0.28318  0.87644  1.0000
  H   H1102     1.0  0.29336  0.28600  0.89488  1.0000
  H   H1103     1.0  0.29591  0.22678  0.89660  1.0000
  H   H1104     1.0  0.32890  0.22412  0.87760  1.0000
  C   C683      1.0  0.33406  0.15580  0.84312  1.0000
  C   C684      1.0  0.32058  0.14441  0.85272  1.0000
  C   C685      1.0  0.31230  0.13636  0.84259  1.0000
  C   C686      1.0  0.31797  0.13910  0.82282  1.0000
  C   C687      1.0  0.33152  0.15041  0.81323  1.0000
  C   C688      1.0  0.33933  0.15899  0.82331  1.0000
  H   H1105     1.0  0.31645  0.14186  0.86805  1.0000
  H   H1106     1.0  0.30193  0.12760  0.85013  1.0000
  H   H1107     1.0  0.33602  0.15255  0.79795  1.0000
  H   H1108     1.0  0.34969  0.16775  0.81578  1.0000
  C   C689      1.0  0.43823  0.20541  0.83634  1.0000
  C   C690      1.0  0.42679  0.21862  0.84711  1.0000
  C   C691      1.0  0.43488  0.22661  0.85742  1.0000
  C   C692      1.0  0.45447  0.22167  0.85682  1.0000
  C   C693      1.0  0.46589  0.20824  0.84627  1.0000
  C   C694      1.0  0.45776  0.20002  0.83619  1.0000
  H   H1109     1.0  0.41171  0.22283  0.84737  1.0000
  H   H1110     1.0  0.42594  0.23690  0.86565  1.0000
  C   C695      1.0  0.38001  0.27570  0.66789  1.0000
  H   H1111     1.0  0.46660  0.18964  0.82803  1.0000
  Fe  Fe140     1.0  0.41062  0.33595  0.68169  1.0000
  H   H1112     1.0  0.36239  0.37721  0.69975  1.0000
  H   H1113     1.0  0.26048  0.20135  0.87850  1.0000
  C   C696      1.0  0.32678  0.30252  0.65589  1.0000
  H   H1114     1.0  0.47548  0.27394  0.78178  1.0000
  H   H1115     1.0  0.28974  0.36203  0.67280  1.0000
  C   C697      1.0  0.39309  0.25738  0.72816  1.0000
  C   C698      1.0  0.37362  0.26285  0.72845  1.0000
  C   C699      1.0  0.36067  0.25601  0.74456  1.0000
  C   C700      1.0  0.36710  0.24410  0.76061  1.0000
  C   C701      1.0  0.38659  0.23825  0.76023  1.0000
  C   C702      1.0  0.39960  0.24474  0.74389  1.0000
  H   H1116     1.0  0.36851  0.27224  0.71624  1.0000
  H   H1117     1.0  0.34560  0.26036  0.74478  1.0000
  H   H1118     1.0  0.39160  0.22898  0.77262  1.0000
  H   H1119     1.0  0.41468  0.24040  0.74365  1.0000
  C   C703      1.0  0.44867  0.34998  0.68915  1.0000
  C   C704      1.0  0.44552  0.33851  0.70744  1.0000
  C   C705      1.0  0.45672  0.33762  0.72029  1.0000
  C   C706      1.0  0.47142  0.34783  0.71474  1.0000
  C   C707      1.0  0.47457  0.35932  0.69647  1.0000
  C   C708      1.0  0.46306  0.36058  0.68380  1.0000
  H   H1120     1.0  0.43456  0.33024  0.71168  1.0000
  H   H1121     1.0  0.45418  0.32877  0.73443  1.0000
  H   H1122     1.0  0.32275  0.20132  0.95046  1.0000
  C   C709      1.0  0.25505  0.04645  0.83069  1.0000
  C   C710      1.0  0.33527  0.37000  0.71380  1.0000
  C   C711      1.0  0.31553  0.37648  0.71644  1.0000
  C   C712      1.0  0.30781  0.39438  0.70596  1.0000
  C   C713      1.0  0.31986  0.40573  0.69286  1.0000
  H   H1123     1.0  0.30625  0.36752  0.72630  1.0000
  C   C714      1.0  0.27019  0.01707  0.81007  1.0000
  H   H1124     1.0  0.29737  0.46733  0.69040  1.0000
  C   C715      1.0  0.30770  0.12638  0.76339  1.0000
  C   C716      1.0  0.33096  0.21136  0.93948  1.0000
  H   H1125     1.0  0.35367  0.23696  0.92788  1.0000
  C   C717      1.0  0.32149  0.47319  0.65683  1.0000
  C   C718      1.0  0.27257  0.04628  0.81800  1.0000
  C   C719      1.0  0.29946  0.15525  0.74012  1.0000
  H   H1126     1.0  0.24426  0.00420  0.88883  1.0000
  Fe  Fe141     1.0  0.26668  0.18819  0.93432  1.0000
  N   N69       1.0  0.28798  0.20146  0.86016  1.0000
  C   C720      1.0  0.26864  0.19755  0.86478  1.0000
  C   C721      1.0  0.28682  0.22213  0.85841  1.0000
  C   C722      1.0  0.29831  0.19590  0.84201  1.0000
  C   C723      1.0  0.29811  0.19020  0.87547  1.0000
  Fe  Fe142     1.0  0.27378  0.20296  0.96584  1.0000
  N   N70       1.0  0.39159  0.26602  0.65251  1.0000
  H   H1127     1.0  0.29779  0.22952  0.95739  1.0000
  H   H1128     1.0  0.27881  0.22683  0.87177  1.0000
  H   H1129     1.0  0.30121  0.22544  0.85529  1.0000
  H   H1130     1.0  0.37938  0.29142  0.66343  1.0000
  H   H1131     1.0  0.29177  0.20488  0.82990  1.0000
  H   H1132     1.0  0.29838  0.18069  0.84253  1.0000
  H   H1133     1.0  0.31340  0.19728  0.83870  1.0000
  H   H1134     1.0  0.31268  0.19297  0.87263  1.0000
  H   H1135     1.0  0.29964  0.17447  0.87701  1.0000
  H   H1136     1.0  0.29055  0.19371  0.88945  1.0000
  H   H1137     1.0  0.25778  0.00791  0.86495  1.0000
  S   S289      1.0  0.28056  0.99805  0.79809  1.0000
  H   H1138     1.0  0.48092  0.20418  0.84585  1.0000
  H   H1139     1.0  0.31929  0.29486  0.66900  1.0000
  H   H1140     1.0  0.47631  0.34012  0.65545  1.0000
  Fe  Fe143     1.0  0.24227  0.13038  0.84953  1.0000
  H   H1141     1.0  0.48258  0.31717  0.64938  1.0000
  H   H1142     1.0  0.30200  0.24103  0.93270  1.0000
  H   H1143     1.0  0.27958  0.23109  0.84675  1.0000
  H   H1144     1.0  0.28790  0.16710  0.73529  1.0000
  H   H1145     1.0  0.30250  0.11602  0.77643  1.0000
  S   S290      1.0  0.25221  0.23018  0.96063  1.0000
  H   H1146     1.0  0.30307  0.25307  0.95020  1.0000
  C   C724      1.0  0.24714  0.99985  0.87501  1.0000
  C   C725      1.0  0.46906  0.22807  0.79234  1.0000
  C   C726      1.0  0.29394  0.37596  0.66524  1.0000
  H   H1147     1.0  0.47959  0.34652  0.77341  1.0000
  Fe  Fe144     1.0  0.24437  0.44172  0.66877  1.0000
  H   H1148     1.0  0.26910  0.18205  0.86611  1.0000
  C   C727      1.0  0.26297  0.15990  0.90580  1.0000
  C   C728      1.0  0.34719  0.38171  0.70120  1.0000
  H   H1149     1.0  0.33550  0.25744  0.93293  1.0000
  S   S291      1.0  0.26717  0.10559  0.85202  1.0000
  C   C729      1.0  0.33237  0.22762  0.96300  1.0000
  S   S292      1.0  0.26846  0.10515  0.80758  1.0000
  H   H1150     1.0  0.27198  0.12312  0.76594  1.0000
  Fe  Fe145     1.0  0.25041  0.47333  0.68515  1.0000
  Fe  Fe146     1.0  0.25313  0.09253  0.83653  1.0000
  H   H1151     1.0  0.48563  0.36755  0.69223  1.0000
  H   H1152     1.0  0.24445  0.00683  0.82393  1.0000
  S   S293      1.0  0.25792  0.41822  0.69001  1.0000
  C   C730      1.0  0.33953  0.39944  0.69062  1.0000
  S   S294      1.0  0.43560  0.35074  0.67229  1.0000
  N   N71       1.0  0.35795  0.29983  0.77288  1.0000
  C   C731      1.0  0.34716  0.29879  0.79267  1.0000
  C   C732      1.0  0.37501  0.28420  0.77248  1.0000
  C   C733      1.0  0.36376  0.31856  0.76537  1.0000
  C   C734      1.0  0.34586  0.29772  0.76101  1.0000
  H   H1153     1.0  0.33419  0.31038  0.79355  1.0000
  H   H1154     1.0  0.35590  0.30016  0.80210  1.0000
  H   H1155     1.0  0.34256  0.28478  0.79868  1.0000
  H   H1156     1.0  0.38490  0.28583  0.78054  1.0000
  H   H1157     1.0  0.37113  0.26996  0.77905  1.0000
  H   H1158     1.0  0.38294  0.28375  0.75766  1.0000
  H   H1159     1.0  0.37186  0.31977  0.75043  1.0000
  H   H1160     1.0  0.37286  0.32078  0.77394  1.0000
  H   H1161     1.0  0.35121  0.33069  0.76526  1.0000
  H   H1162     1.0  0.35368  0.29805  0.74605  1.0000
  H   H1163     1.0  0.33312  0.30958  0.76057  1.0000
  H   H1164     1.0  0.34089  0.28389  0.76652  1.0000
  H   H1165     1.0  0.49090  0.33226  0.81234  1.0000
  H   H1166     1.0  0.47235  0.15923  0.90646  1.0000
  H   H1167     1.0  0.48205  0.31872  0.80100  1.0000
  H   H1168     1.0  0.33440  0.24519  0.91558  1.0000
  H   H1169     1.0  0.39854  0.23912  0.67182  1.0000
  C   C735      1.0  0.39228  0.24516  0.65889  1.0000
  H   H1170     1.0  0.32119  0.45821  0.69374  1.0000
  H   H1171     1.0  0.32679  0.48189  0.64268  1.0000
  S   S295      1.0  0.36798  0.31056  0.69421  1.0000
  H   H1172     1.0  0.45430  0.26494  0.79402  1.0000
  H   H1173     1.0  0.32768  0.36894  0.67516  1.0000
  H   H1174     1.0  0.30857  0.46878  0.65600  1.0000
  C   C736      1.0  0.33815  0.24302  0.92963  1.0000
  H   H1175     1.0  0.48669  0.18611  0.90606  1.0000
  H   H1176     1.0  0.27712  0.14241  0.78584  1.0000
  S   S296      1.0  0.25596  0.14629  0.82156  1.0000
  C   C737      1.0  0.46792  0.26219  0.78361  1.0000
  H   H1177     1.0  0.29272  0.15884  0.77637  1.0000
  H   H1178     1.0  0.32713  0.21277  0.92563  1.0000
  S   S297      1.0  0.41108  0.31191  0.66837  1.0000
  C   C738      1.0  0.27794  0.13331  0.75320  1.0000
  H   H1179     1.0  0.28453  0.13724  0.89531  1.0000
  C   C739      1.0  0.27031  0.14569  0.89511  1.0000
  H   H1180     1.0  0.37780  0.24195  0.66252  1.0000
  H   H1181     1.0  0.38605  0.27040  0.68096  1.0000
  Fe  Fe147     1.0  0.38113  0.32616  0.66572  1.0000
  H   H1182     1.0  0.36517  0.27341  0.67178  1.0000
  S   S298      1.0  0.27697  0.16346  0.91966  1.0000
  C   C740      1.0  0.24469  0.17091  0.90531  1.0000
  H   H1183     1.0  0.34622  0.47666  0.67572  1.0000
  H   H1184     1.0  0.31833  0.39994  0.65346  1.0000
  H   H1185     1.0  0.31519  0.11813  0.75218  1.0000
  H   H1186     1.0  0.46533  0.36978  0.66980  1.0000
  H   H1187     1.0  0.34773  0.22120  0.96231  1.0000
  H   H1188     1.0  0.34539  0.30966  0.66947  1.0000
  H   H1189     1.0  0.47222  0.16830  0.88166  1.0000
  H   H1190     1.0  0.31004  0.16189  0.74286  1.0000
  S   S299      1.0  0.25474  0.18396  0.96560  1.0000
  N   N72       1.0  0.32703  0.23023  0.94460  1.0000
  C   C741      1.0  0.28263  0.15228  0.77271  1.0000
  H   H1191     1.0  0.47739  0.21354  0.79738  1.0000
  H   H1192     1.0  0.41765  0.26473  0.66062  1.0000
  H   H1193     1.0  0.32935  0.24150  0.96750  1.0000
  C   C742      1.0  0.30658  0.23886  0.94628  1.0000
  H   H1194     1.0  0.24559  0.29616  0.91966  1.0000
  N   N73       1.0  0.29195  0.14180  0.75733  1.0000
  S   S300      1.0  0.48570  0.34602  0.73080  1.0000
  S   S301      1.0  0.38182  0.35174  0.67596  1.0000
  S   S302      1.0  0.26725  0.45878  0.66131  1.0000
  C   C743      1.0  0.34164  0.31081  0.65616  1.0000
  H   H1195     1.0  0.28436  0.12529  0.74163  1.0000
  H   H1196     1.0  0.46437  0.26321  0.76973  1.0000
  Fe  Fe148     1.0  0.24358  0.12981  0.80832  1.0000
  C   C744      1.0  0.31053  0.47170  0.69047  1.0000
  C   C745      1.0  0.25931  0.14225  0.88420  1.0000
  C   C746      1.0  0.41103  0.26973  0.64789  1.0000
  H   H1197     1.0  0.34626  0.20440  0.93816  1.0000
  N   N74       1.0  0.47962  0.24320  0.79013  1.0000
  N   N75       1.0  0.31291  0.37298  0.65268  1.0000
  H   H1198     1.0  0.48696  0.19484  0.88121  1.0000
  H   H1199     1.0  0.31834  0.13227  0.76701  1.0000
  H   H1200     1.0  0.26053  0.20580  0.85357  1.0000
  H   H1201     1.0  0.30659  0.14783  0.72820  1.0000
  H   H1202     1.0  0.32398  0.34721  0.67151  1.0000
  H   H1203     1.0  0.24275  0.02887  0.73042  1.0000
  C   C747      1.0  0.31792  0.39180  0.64302  1.0000
  H   H1204     1.0  0.48340  0.14381  0.88990  1.0000
  N   N76       1.0  0.31736  0.48396  0.67202  1.0000
  H   H1205     1.0  0.30737  0.47925  0.70234  1.0000
  C   C748      1.0  0.48745  0.33083  0.64686  1.0000
  S   S303      1.0  0.24621  0.06285  0.84581  1.0000
  H   H1206     1.0  0.30912  0.34823  0.64508  1.0000
  C   C749      1.0  0.48099  0.15872  0.89192  1.0000
  C   C750      1.0  0.24487  0.03229  0.83254  1.0000
  C   C751      1.0  0.48395  0.24250  0.80857  1.0000
  H   H1207     1.0  0.28286  0.38449  0.65702  1.0000
  H   H1208     1.0  0.24247  0.10390  0.78498  1.0000
  H   H1209     1.0  0.48860  0.36001  0.78472  1.0000
  H   H1210     1.0  0.32426  0.21787  0.97450  1.0000
  S   S304      1.0  0.26556  0.61961  0.30314  1.0000
  H   H1211     1.0  0.41428  0.77524  0.28738  1.0000
  S   S305      1.0  0.33572  0.76249  0.27728  1.0000
  H   H1212     1.0  0.47846  0.74838  0.30097  1.0000
  N   N77       1.0  0.29884  0.89534  0.24898  1.0000
  H   H1213     1.0  0.29033  0.89106  0.22527  1.0000
  H   H1214     1.0  0.24233  0.65604  0.21766  1.0000
  H   H1215     1.0  0.34103  0.82216  0.29087  1.0000
  C   C752      1.0  0.39156  0.81851  0.26583  1.0000
  H   H1216     1.0  0.32836  0.76221  0.24046  1.0000
  C   C753      1.0  0.25997  0.92542  0.13676  1.0000
  C   C754      1.0  0.29470  0.87694  0.26125  1.0000
  C   C755      1.0  0.43366  0.74149  0.30642  1.0000
  H   H1217     1.0  0.27883  0.91220  0.26787  1.0000
  H   H1218     1.0  0.26281  0.85657  0.99714  1.0000
  C   C756      1.0  0.29182  0.89346  0.16837  1.0000
  H   H1219     1.0  0.30679  0.86476  0.25860  1.0000
  H   H1220     1.0  0.33663  0.78837  0.30028  1.0000
  H   H1221     1.0  0.38311  0.79193  0.25242  1.0000
  H   H1222     1.0  0.47607  0.82061  0.25922  1.0000
  H   H1223     1.0  0.38697  0.82471  0.25205  1.0000
  Fe  Fe149     1.0  0.40208  0.83765  0.19973  1.0000
  S   S306      1.0  0.38441  0.86487  0.20801  1.0000
  S   S307      1.0  0.43217  0.82662  0.20447  1.0000
  Fe  Fe150     1.0  0.36834  0.82691  0.19139  1.0000
  S   S308      1.0  0.34824  0.85323  0.19915  1.0000
  S   S309      1.0  0.35528  0.80528  0.18563  1.0000
  Fe  Fe151     1.0  0.37198  0.86812  0.18265  1.0000
  S   S310      1.0  0.36269  0.89562  0.16279  1.0000
  Fe  Fe152     1.0  0.36255  0.84732  0.22351  1.0000
  S   S311      1.0  0.34703  0.84741  0.25358  1.0000
  S   S312      1.0  0.39135  0.84216  0.17290  1.0000
  S   S313      1.0  0.38095  0.81966  0.21715  1.0000
  H   H1224     1.0  0.33281  0.77594  0.21641  1.0000
  H   H1225     1.0  0.42803  0.80525  0.25168  1.0000
  S   S314      1.0  0.27584  0.97885  0.18402  1.0000
  H   H1226     1.0  0.29678  0.89436  0.18088  1.0000
  S   S315      1.0  0.31138  0.94926  0.21737  1.0000
  H   H1227     1.0  0.45948  0.73633  0.28560  1.0000
  Fe  Fe153     1.0  0.28970  0.83812  0.11486  1.0000
  S   S316      1.0  0.27408  0.86812  0.10554  1.0000
  S   S317      1.0  0.32101  0.83629  0.11133  1.0000
  H   H1228     1.0  0.25396  0.81009  0.04520  1.0000
  C   C757      1.0  0.27627  0.54793  0.28725  1.0000
  H   H1229     1.0  0.47268  0.85276  0.17314  1.0000
  H   H1230     1.0  0.24378  0.78262  0.02026  1.0000
  H   H1231     1.0  0.42590  0.78123  0.25266  1.0000
  S   S318      1.0  0.47751  0.88803  0.20569  1.0000
  S   S319      1.0  0.27777  0.82506  0.09777  1.0000
  S   S320      1.0  0.26791  0.83177  0.14138  1.0000
  H   H1232     1.0  0.25459  0.83020  0.06673  1.0000
  H   H1233     1.0  0.47747  0.86184  0.14808  1.0000
  S   S321      1.0  0.26063  0.86898  0.05914  1.0000
  H   H1234     1.0  0.31305  0.84716  0.16657  1.0000
  H   H1235     1.0  0.36449  0.77723  0.21831  1.0000
  C   C758      1.0  0.48191  0.79326  0.29071  1.0000
  H   H1236     1.0  0.28298  0.57103  0.29536  1.0000
  H   H1237     1.0  0.28420  0.55110  0.27281  1.0000
  S   S322      1.0  0.25733  0.81715  0.00520  1.0000
  H   H1238     1.0  0.32849  0.88781  0.25009  1.0000
  H   H1239     1.0  0.40103  0.82745  0.26687  1.0000
  H   H1240     1.0  0.47827  0.78761  0.28000  1.0000
  Fe  Fe154     1.0  0.35103  0.74626  0.30085  1.0000
  H   H1241     1.0  0.37514  0.78804  0.27751  1.0000
  H   H1242     1.0  0.31346  0.90004  0.26815  1.0000
  C   C759      1.0  0.34929  0.91200  0.17682  1.0000
  C   C760      1.0  0.35519  0.91281  0.19286  1.0000
  C   C761      1.0  0.34384  0.92488  0.20491  1.0000
  C   C762      1.0  0.32643  0.93594  0.20109  1.0000
  C   C763      1.0  0.32055  0.93526  0.18496  1.0000
  C   C764      1.0  0.33208  0.92342  0.17272  1.0000
  H   H1243     1.0  0.36867  0.90437  0.19581  1.0000
  H   H1244     1.0  0.34846  0.92543  0.21731  1.0000
  H   H1245     1.0  0.30711  0.94378  0.18193  1.0000
  H   H1246     1.0  0.32749  0.92285  0.16031  1.0000
  C   C765      1.0  0.34555  0.81408  0.16512  1.0000
  C   C766      1.0  0.33001  0.80747  0.16380  1.0000
  C   C767      1.0  0.32207  0.81455  0.14750  1.0000
  C   C768      1.0  0.33009  0.82772  0.13223  1.0000
  C   C769      1.0  0.34573  0.83416  0.13351  1.0000
  C   C770      1.0  0.35321  0.82765  0.15006  1.0000
  H   H1247     1.0  0.32398  0.79703  0.17544  1.0000
  H   H1248     1.0  0.31003  0.80946  0.14658  1.0000
  H   H1249     1.0  0.35201  0.84431  0.12172  1.0000
  H   H1250     1.0  0.36523  0.83276  0.15095  1.0000
  C   C771      1.0  0.44398  0.84383  0.20598  1.0000
  C   C772      1.0  0.43708  0.86348  0.20003  1.0000
  C   C773      1.0  0.44730  0.87689  0.20039  1.0000
  C   C774      1.0  0.46455  0.87077  0.20657  1.0000
  H   H1251     1.0  0.46577  0.83048  0.28010  1.0000
  C   C775      1.0  0.46108  0.83768  0.21246  1.0000
  H   H1252     1.0  0.42409  0.86841  0.19472  1.0000
  H   H1253     1.0  0.44193  0.89206  0.19559  1.0000
  S   S323      1.0  0.26233  0.95314  0.15369  1.0000
  H   H1254     1.0  0.27692  0.89135  0.17327  1.0000
  C   C776      1.0  0.40718  0.79065  0.28575  1.0000
  C   C777      1.0  0.36602  0.76244  0.22728  1.0000
  H   H1255     1.0  0.34774  0.72307  0.23320  1.0000
  C   C778      1.0  0.28234  0.91103  0.25274  1.0000
  H   H1256     1.0  0.30566  0.90785  0.21923  1.0000
  C   C779      1.0  0.31570  0.89923  0.25304  1.0000
  H   H1257     1.0  0.39480  0.79172  0.29788  1.0000
  C   C780      1.0  0.25600  0.82465  0.03938  1.0000
  C   C781      1.0  0.25832  0.83199  0.01972  1.0000
  H   H1258     1.0  0.29205  0.87721  0.27657  1.0000
  S   S324      1.0  0.26839  0.93617  0.20761  1.0000
  C   C782      1.0  0.30269  0.89412  0.22884  1.0000
  C   C783      1.0  0.25447  0.90869  0.13646  1.0000
  H   H1259     1.0  0.39472  0.77129  0.26749  1.0000
  C   C784      1.0  0.34008  0.82526  0.26156  1.0000
  C   C785      1.0  0.33913  0.81538  0.28050  1.0000
  C   C786      1.0  0.33681  0.79623  0.28578  1.0000
  C   C787      1.0  0.33520  0.78720  0.27215  1.0000
  C   C788      1.0  0.33462  0.79771  0.25365  1.0000
  C   C789      1.0  0.33733  0.81657  0.24830  1.0000
  S   S325      1.0  0.27111  0.51633  0.27814  1.0000
  H   H1260     1.0  0.37859  0.82033  0.27721  1.0000
  H   H1261     1.0  0.33282  0.79118  0.24314  1.0000
  H   H1262     1.0  0.33764  0.82423  0.23374  1.0000
  N   N78       1.0  0.30419  0.87780  0.15930  1.0000
  S   S326      1.0  0.25796  0.97211  0.22988  1.0000
  C   C790      1.0  0.27550  0.55930  0.29995  1.0000
  H   H1263     1.0  0.32951  0.88134  0.16552  1.0000
  C   C791      1.0  0.47135  0.85110  0.21272  1.0000
  Fe  Fe155     1.0  0.26067  0.85476  0.08998  1.0000
  C   C792      1.0  0.32515  0.67480  0.29952  1.0000
  Fe  Fe156     1.0  0.26232  0.48777  0.29055  1.0000
  C   C793      1.0  0.30387  0.85923  0.17302  1.0000
  H   H1264     1.0  0.36059  0.76313  0.19294  1.0000
  H   H1265     1.0  0.26353  0.87675  0.01876  1.0000
  N   N79       1.0  0.35462  0.75110  0.22292  1.0000
  H   H1266     1.0  0.33362  0.86961  0.14629  1.0000
  Fe  Fe157     1.0  0.25900  0.95820  0.18291  1.0000
  C   C794      1.0  0.38802  0.78682  0.26607  1.0000
  N   N80       1.0  0.40120  0.79812  0.26731  1.0000
  H   H1267     1.0  0.28262  0.87442  0.14680  1.0000
  H   H1268     1.0  0.30911  0.85890  0.18578  1.0000
  C   C795      1.0  0.25911  0.85480  0.04421  1.0000
  C   C796      1.0  0.33448  0.76111  0.22540  1.0000
  C   C797      1.0  0.41802  0.79639  0.25167  1.0000
  H   H1269     1.0  0.30649  0.86601  0.13517  1.0000
  C   C798      1.0  0.32382  0.88109  0.15323  1.0000
  C   C799      1.0  0.29724  0.87739  0.14260  1.0000
  Fe  Fe158     1.0  0.25119  0.86089  0.13067  1.0000
  C   C800      1.0  0.26770  0.53191  0.29348  1.0000
  H   H1270     1.0  0.37123  0.72402  0.23456  1.0000
  H   H1271     1.0  0.32464  0.89505  0.14297  1.0000
  C   C801      1.0  0.36172  0.74889  0.20304  1.0000
  H   H1272     1.0  0.29680  0.89133  0.13212  1.0000
  H   H1273     1.0  0.41729  0.79863  0.28723  1.0000
  C   C802      1.0  0.26142  0.86219  0.02453  1.0000
  H   H1274     1.0  0.46653  0.82249  0.21701  1.0000
  H   H1275     1.0  0.36154  0.76382  0.24234  1.0000
  H   H1276     1.0  0.48645  0.83772  0.26404  1.0000
  H   H1277     1.0  0.25840  0.90329  0.12357  1.0000
  N   N81       1.0  0.32030  0.84236  0.05192  1.0000
  C   C803      1.0  0.33532  0.84898  0.03603  1.0000
  C   C804      1.0  0.30997  0.85832  0.06149  1.0000
  C   C805      1.0  0.32896  0.82617  0.06566  1.0000
  C   C806      1.0  0.30691  0.83604  0.04451  1.0000
  H   H1278     1.0  0.34342  0.83729  0.02848  1.0000
  H   H1279     1.0  0.34560  0.85392  0.04117  1.0000
  H   H1280     1.0  0.32919  0.86120  0.02544  1.0000
  H   H1281     1.0  0.29837  0.85387  0.07330  1.0000
  H   H1282     1.0  0.31944  0.86321  0.06773  1.0000
  H   H1283     1.0  0.30320  0.87085  0.05161  1.0000
  H   H1284     1.0  0.31803  0.82094  0.07794  1.0000
  H   H1285     1.0  0.33902  0.83049  0.07168  1.0000
  H   H1286     1.0  0.33682  0.81380  0.05902  1.0000
  H   H1287     1.0  0.29532  0.83106  0.05613  1.0000
  H   H1288     1.0  0.31410  0.82399  0.03718  1.0000
  H   H1289     1.0  0.29998  0.84797  0.03423  1.0000
  H   H1290     1.0  0.35347  0.74043  0.19919  1.0000
  H   H1291     1.0  0.32564  0.75334  0.22145  1.0000
  H   H1292     1.0  0.29156  0.90768  0.15833  1.0000
  H   H1293     1.0  0.41391  0.80139  0.23757  1.0000
  H   H1294     1.0  0.28925  0.85626  0.17785  1.0000
  C   C807      1.0  0.25479  0.93256  0.15341  1.0000
  H   H1295     1.0  0.31530  0.88264  0.22547  1.0000
  H   H1296     1.0  0.34234  0.69328  0.30178  1.0000
  H   H1297     1.0  0.37690  0.74147  0.20056  1.0000
  H   H1298     1.0  0.48458  0.84618  0.21749  1.0000
  C   C808      1.0  0.26107  0.85079  0.01227  1.0000
  C   C809      1.0  0.45286  0.74170  0.29842  1.0000
  S   S327      1.0  0.37289  0.71951  0.29693  1.0000
  H   H1299     1.0  0.31914  0.91308  0.24410  1.0000
  H   H1300     1.0  0.32341  0.68231  0.28531  1.0000
  S   S328      1.0  0.42098  0.73173  0.29582  1.0000
  C   C810      1.0  0.35624  0.73202  0.23596  1.0000
  H   H1301     1.0  0.38137  0.75565  0.22486  1.0000
  H   H1302     1.0  0.26938  0.90883  0.24949  1.0000
  H   H1303     1.0  0.28512  0.92518  0.24395  1.0000
  H   H1304     1.0  0.28192  0.87368  0.25871  1.0000
  Fe  Fe159     1.0  0.28263  0.95817  0.21037  1.0000
  H   H1305     1.0  0.47401  0.83757  0.15756  1.0000
  H   H1306     1.0  0.35096  0.73334  0.25109  1.0000
  S   S329      1.0  0.30366  0.65113  0.29641  1.0000
  H   H1307     1.0  0.26828  0.93279  0.12408  1.0000
  C   C811      1.0  0.47942  0.82523  0.27080  1.0000
  H   H1308     1.0  0.24494  0.62205  0.21710  1.0000
  H   H1309     1.0  0.48297  0.82122  0.30682  1.0000
  H   H1310     1.0  0.24684  0.72169  0.97963  1.0000
  C   C812      1.0  0.46363  0.74846  0.30714  1.0000
  C   C813      1.0  0.48042  0.84883  0.15940  1.0000
  C   C814      1.0  0.24399  0.92303  0.16974  1.0000
  C   C815      1.0  0.24358  0.89920  0.15278  1.0000
  Fe  Fe160     1.0  0.25412  0.82169  0.12339  1.0000
  H   H1311     1.0  0.24853  0.80245  0.09495  1.0000
  C   C816      1.0  0.25640  0.83600  0.05160  1.0000
  H   H1312     1.0  0.46854  0.79751  0.30091  1.0000
  H   H1313     1.0  0.24549  0.63088  0.24708  1.0000
  Fe  Fe161     1.0  0.24289  0.95157  0.22541  1.0000
  H   H1314     1.0  0.47856  0.70523  0.30567  1.0000
  H   H1315     1.0  0.49098  0.78114  0.29892  1.0000
  H   H1316     1.0  0.31247  0.63703  0.33399  1.0000
  H   H1317     1.0  0.33159  0.68149  0.63541  1.0000
  H   H1318     1.0  0.31319  0.68980  0.49729  1.0000
  C   C817      1.0  0.30108  0.70055  0.36144  1.0000
  H   H1319     1.0  0.31012  0.69337  0.34986  1.0000
  H   H1320     1.0  0.47108  0.67596  0.36398  1.0000
  H   H1321     1.0  0.26832  0.67615  0.53557  1.0000
  H   H1322     1.0  0.29803  0.66381  0.36723  1.0000
  H   H1323     1.0  0.28703  0.66112  0.39201  1.0000
  H   H1324     1.0  0.41021  0.74875  0.32899  1.0000
  H   H1325     1.0  0.24925  0.53577  0.33938  1.0000
  C   C818      1.0  0.31799  0.49257  0.34146  1.0000
  Fe  Fe162     1.0  0.28148  0.63451  0.31485  1.0000
  H   H1326     1.0  0.29482  0.73718  0.63966  1.0000
  H   H1327     1.0  0.25584  0.64415  0.58523  1.0000
  C   C819      1.0  0.45243  0.70014  0.33753  1.0000
  H   H1328     1.0  0.44306  0.69204  0.34935  1.0000
  H   H1329     1.0  0.33400  0.70610  0.45728  1.0000
  H   H1330     1.0  0.27212  0.70367  0.39169  1.0000
  H   H1331     1.0  0.32632  0.71246  0.50686  1.0000
  H   H1332     1.0  0.29167  0.74005  0.47655  1.0000
  S   S330      1.0  0.27375  0.66042  0.60860  1.0000
  H   H1333     1.0  0.30391  0.69703  0.47601  1.0000
  Fe  Fe163     1.0  0.27842  0.70812  0.44290  1.0000
  S   S331      1.0  0.26116  0.68542  0.45142  1.0000
  S   S332      1.0  0.30989  0.69891  0.43415  1.0000
  H   H1334     1.0  0.45147  0.71412  0.34112  1.0000
  Fe  Fe164     1.0  0.24408  0.73926  0.45372  1.0000
  H   H1335     1.0  0.24576  0.67869  0.63674  1.0000
  S   S333      1.0  0.26601  0.71966  0.46898  1.0000
  S   S334      1.0  0.25866  0.73022  0.42623  1.0000
  Fe  Fe165     1.0  0.29569  0.72013  0.60491  1.0000
  C   C820      1.0  0.24810  0.65119  0.41041  1.0000
  S   S335      1.0  0.32382  0.71902  0.61167  1.0000
  Fe  Fe166     1.0  0.27624  0.72714  0.57183  1.0000
  C   C821      1.0  0.28388  0.50214  0.34909  1.0000
  S   S336      1.0  0.27496  0.73868  0.54107  1.0000
  C   C822      1.0  0.33008  0.65516  0.33602  1.0000
  Fe  Fe167     1.0  0.25770  0.62720  0.35456  1.0000
  Fe  Fe168     1.0  0.27345  0.69180  0.60350  1.0000
  H   H1336     1.0  0.32654  0.73626  0.49251  1.0000
  S   S337      1.0  0.27588  0.74573  0.59135  1.0000
  S   S338      1.0  0.29808  0.70292  0.58338  1.0000
  C   C823      1.0  0.33532  0.71098  0.46972  1.0000
  H   H1337     1.0  0.25037  0.74678  0.51472  1.0000
  Fe  Fe169     1.0  0.39027  0.73130  0.30990  1.0000
  C   C824      1.0  0.28649  0.69682  0.39477  1.0000
  N   N82       1.0  0.31643  0.71800  0.48090  1.0000
  H   H1338     1.0  0.30413  0.72998  0.45616  1.0000
  C   C825      1.0  0.24685  0.65077  0.39213  1.0000
  Fe  Fe170     1.0  0.24702  0.69867  0.47679  1.0000
  C   C826      1.0  0.26372  0.65155  0.63230  1.0000
  S   S339      1.0  0.46847  0.76335  0.33526  1.0000
  N   N83       1.0  0.47225  0.68927  0.33441  1.0000
  C   C827      1.0  0.29984  0.49793  0.31742  1.0000
  C   C828      1.0  0.26379  0.69154  0.53166  1.0000
  C   C829      1.0  0.27035  0.70355  0.53919  1.0000
  C   C830      1.0  0.26573  0.72351  0.53292  1.0000
  H   H1339     1.0  0.38591  0.72538  0.64031  1.0000
  C   C831      1.0  0.24677  0.71942  0.51286  1.0000
  H   H1340     1.0  0.27008  0.50117  0.34663  1.0000
  H   H1341     1.0  0.27957  0.69737  0.54927  1.0000
  H   H1342     1.0  0.28684  0.49605  0.31406  1.0000
  H   H1343     1.0  0.31586  0.66777  0.39904  1.0000
  C   C832      1.0  0.26617  0.55460  0.31889  1.0000
  C   C833      1.0  0.30602  0.73431  0.46864  1.0000
  S   S340      1.0  0.25535  0.65197  0.32973  1.0000
  C   C834      1.0  0.25667  0.53928  0.32477  1.0000
  H   H1344     1.0  0.25374  0.65334  0.56081  1.0000
  H   H1345     1.0  0.29916  0.67028  0.62515  1.0000
  Fe  Fe171     1.0  0.35662  0.74345  0.34017  1.0000
  C   C835      1.0  0.42506  0.74875  0.32279  1.0000
  C   C836      1.0  0.31860  0.72440  0.49724  1.0000
  C   C837      1.0  0.43577  0.75583  0.33132  1.0000
  H   H1346     1.0  0.30817  0.71189  0.36201  1.0000
  H   H1347     1.0  0.44632  0.70334  0.32462  1.0000
  S   S341      1.0  0.28508  0.61070  0.34048  1.0000
  C   C838      1.0  0.25203  0.69946  0.51841  1.0000
  H   H1348     1.0  0.31960  0.50783  0.33729  1.0000
  S   S342      1.0  0.37915  0.71659  0.33976  1.0000
  C   C839      1.0  0.33557  0.74198  0.38446  1.0000
  C   C840      1.0  0.34484  0.72272  0.38803  1.0000
  C   C841      1.0  0.33718  0.70969  0.40374  1.0000
  C   C842      1.0  0.31984  0.71573  0.41544  1.0000
  C   C843      1.0  0.31049  0.73498  0.41191  1.0000
  C   C844      1.0  0.31852  0.74817  0.39657  1.0000
  H   H1349     1.0  0.35809  0.71792  0.37884  1.0000
  H   H1350     1.0  0.34449  0.69483  0.40652  1.0000
  H   H1351     1.0  0.29715  0.73975  0.42101  1.0000
  H   H1352     1.0  0.31133  0.76307  0.39378  1.0000
  H   H1353     1.0  0.42910  0.76130  0.34409  1.0000
  C   C845      1.0  0.47292  0.67117  0.32909  1.0000
  Fe  Fe172     1.0  0.26676  0.59728  0.33030  1.0000
  S   S343      1.0  0.25174  0.71448  0.59009  1.0000
  S   S344      1.0  0.33630  0.73312  0.32973  1.0000
  C   C846      1.0  0.33860  0.67101  0.32699  1.0000
  H   H1354     1.0  0.32638  0.66898  0.37427  1.0000
  H   H1355     1.0  0.33225  0.64727  0.35000  1.0000
  C   C847      1.0  0.31725  0.67754  0.38476  1.0000
  H   H1356     1.0  0.28727  0.70777  0.35724  1.0000
  H   H1357     1.0  0.38411  0.75727  0.61820  1.0000
  H   H1358     1.0  0.25045  0.51586  0.31696  1.0000
  H   H1359     1.0  0.34361  0.69861  0.47842  1.0000
  H   H1360     1.0  0.34377  0.72245  0.46406  1.0000
  H   H1361     1.0  0.48486  0.71409  0.32296  1.0000
  H   H1362     1.0  0.31374  0.74636  0.46299  1.0000
  H   H1363     1.0  0.30018  0.51353  0.31283  1.0000
  H   H1364     1.0  0.32375  0.66504  0.61431  1.0000
  S   S345      1.0  0.25361  0.62864  0.38519  1.0000
  H   H1365     1.0  0.32506  0.68845  0.38485  1.0000
  H   H1366     1.0  0.26134  0.77500  0.55548  1.0000
  C   C848      1.0  0.28932  0.67180  0.37835  1.0000
  H   H1367     1.0  0.27524  0.67824  0.37449  1.0000
  C   C849      1.0  0.47953  0.68493  0.35204  1.0000
  C   C850      1.0  0.48416  0.70085  0.31896  1.0000
  H   H1368     1.0  0.29299  0.70825  0.39613  1.0000
  Fe  Fe173     1.0  0.35968  0.70732  0.32696  1.0000
  C   C851      1.0  0.25398  0.73140  0.51971  1.0000
  S   S346      1.0  0.27254  0.70700  0.62609  1.0000
  H   H1369     1.0  0.30450  0.72976  0.50590  1.0000
  S   S347      1.0  0.34500  0.75816  0.36462  1.0000
  H   H1370     1.0  0.29138  0.70709  0.49637  1.0000
  S   S348      1.0  0.26889  0.56520  0.33622  1.0000
  H   H1371     1.0  0.34715  0.64748  0.63362  1.0000
  S   S349      1.0  0.24502  0.68450  0.50784  1.0000
  C   C852      1.0  0.39174  0.76156  0.62690  1.0000
  C   C853      1.0  0.45517  0.75529  0.32377  1.0000
  S   S350      1.0  0.35232  0.67807  0.33891  1.0000
  C   C854      1.0  0.30577  0.70230  0.48795  1.0000
  N   N84       1.0  0.29853  0.68667  0.37983  1.0000
  H   H1372     1.0  0.25349  0.63806  0.41977  1.0000
  H   H1373     1.0  0.40719  0.75829  0.62059  1.0000
  H   H1374     1.0  0.47897  0.69833  0.35653  1.0000
  H   H1375     1.0  0.28451  0.68682  0.40890  1.0000
  Fe  Fe174     1.0  0.25287  0.73105  0.61075  1.0000
  C   C855      1.0  0.31887  0.64934  0.32697  1.0000
  C   C856      1.0  0.31267  0.65975  0.62640  1.0000
  H   H1376     1.0  0.25983  0.66770  0.57348  1.0000
  C   C857      1.0  0.25085  0.65728  0.57483  1.0000
  H   H1377     1.0  0.35371  0.70939  0.63213  1.0000
  H   H1378     1.0  0.24844  0.77258  0.61506  1.0000
  H   H1379     1.0  0.46765  0.67403  0.31573  1.0000
  H   H1380     1.0  0.28349  0.49706  0.36460  1.0000
  H   H1381     1.0  0.38725  0.77740  0.62542  1.0000
  H   H1382     1.0  0.46397  0.66211  0.34036  1.0000
  H   H1383     1.0  0.31078  0.64593  0.62458  1.0000
  C   C858      1.0  0.32418  0.72300  0.63379  1.0000
  H   H1384     1.0  0.27968  0.62270  0.63219  1.0000
  C   C859      1.0  0.25736  0.52798  0.31210  1.0000
  C   C860      1.0  0.34116  0.71670  0.64051  1.0000
  H   H1385     1.0  0.28468  0.51763  0.34531  1.0000
  C   C861      1.0  0.26933  0.63216  0.64051  1.0000
  H   H1386     1.0  0.24155  0.80820  0.60604  1.0000
  H   H1387     1.0  0.31858  0.48740  0.35678  1.0000
  H   H1388     1.0  0.48770  0.66259  0.32672  1.0000
  N   N85       1.0  0.30003  0.49074  0.33786  1.0000
  H   H1389     1.0  0.25317  0.80062  0.55092  1.0000
  C   C862      1.0  0.24913  0.78677  0.55906  1.0000
  H   H1390     1.0  0.24728  0.78645  0.57441  1.0000
  H   H1391     1.0  0.24307  0.66854  0.43096  1.0000
  H   H1392     1.0  0.31218  0.49015  0.30841  1.0000
  S   S351      1.0  0.36938  0.75902  0.31145  1.0000
  H   H1393     1.0  0.24702  0.77324  0.53007  1.0000
  C   C863      1.0  0.24229  0.66846  0.41674  1.0000
  C   C864      1.0  0.33589  0.68100  0.30881  1.0000
  C   C865      1.0  0.31658  0.65897  0.30857  1.0000
  S   S352      1.0  0.39126  0.69314  0.73209  1.0000
  S   S353      1.0  0.36472  0.72672  0.76610  1.0000
  S   S354      1.0  0.36835  0.64982  0.73629  1.0000
  H   H1394     1.0  0.29402  0.77935  0.80246  1.0000
  N   N86       1.0  0.32863  0.94878  0.76856  1.0000
  Fe  Fe175     1.0  0.36715  0.71727  0.73903  1.0000
  H   H1395     1.0  0.33890  0.74343  0.80577  1.0000
  Fe  Fe176     1.0  0.30434  0.60273  0.70779  1.0000
  S   S355      1.0  0.27881  0.62378  0.71811  1.0000
  S   S356      1.0  0.32990  0.61477  0.69076  1.0000
  Fe  Fe177     1.0  0.28412  0.56939  0.72356  1.0000
  S   S357      1.0  0.25674  0.58767  0.73549  1.0000
  S   S358      1.0  0.28723  0.53732  0.72815  1.0000
  H   H1396     1.0  0.29928  0.51004  0.67916  1.0000
  Fe  Fe178     1.0  0.27529  0.60135  0.74481  1.0000
  C   C866      1.0  0.46654  0.80643  0.74243  1.0000
  S   S359      1.0  0.30241  0.58129  0.73553  1.0000
  Fe  Fe179     1.0  0.37222  0.79340  0.83366  1.0000
  S   S360      1.0  0.38510  0.81170  0.84437  1.0000
  S   S361      1.0  0.34834  0.77781  0.84845  1.0000
  Fe  Fe180     1.0  0.39231  0.80531  0.79278  1.0000
  S   S362      1.0  0.40617  0.82576  0.79944  1.0000
  S   S363      1.0  0.39704  0.79884  0.76375  1.0000
  Fe  Fe181     1.0  0.41223  0.80199  0.82436  1.0000
  S   S364      1.0  0.44211  0.79053  0.82935  1.0000
  Fe  Fe182     1.0  0.37804  0.83418  0.81876  1.0000
  S   S365      1.0  0.36356  0.86341  0.82508  1.0000
  S   S366      1.0  0.40004  0.78108  0.81655  1.0000
  S   S367      1.0  0.36362  0.81640  0.80928  1.0000
  H   H1397     1.0  0.31142  0.79035  0.78421  1.0000
  C   C867      1.0  0.34065  0.96327  0.76285  1.0000
  Fe  Fe183     1.0  0.27142  0.93283  0.79990  1.0000
  S   S368      1.0  0.29264  0.90857  0.78844  1.0000
  S   S369      1.0  0.27360  0.94594  0.82287  1.0000
  H   H1398     1.0  0.26616  0.91489  0.85299  1.0000
  H   H1399     1.0  0.36331  0.74826  0.66978  1.0000
  H   H1400     1.0  0.48953  0.83165  0.91282  1.0000
  Fe  Fe184     1.0  0.28696  0.80594  0.94026  1.0000
  S   S370      1.0  0.26998  0.82532  0.91920  1.0000
  S   S371      1.0  0.31422  0.78483  0.93369  1.0000
  Fe  Fe185     1.0  0.27142  0.84856  0.93261  1.0000
  S   S372      1.0  0.28249  0.87352  0.91179  1.0000
  C   C868      1.0  0.30797  0.73229  0.64474  1.0000
  H   H1401     1.0  0.39988  0.69849  0.76684  1.0000
  S   S373      1.0  0.29002  0.82932  0.95240  1.0000
  C   C869      1.0  0.31724  0.94934  0.78791  1.0000
  Fe  Fe186     1.0  0.26247  0.60863  0.70787  1.0000
  C   C870      1.0  0.26704  0.89084  0.89862  1.0000
  S   S374      1.0  0.37443  0.69590  0.69467  1.0000
  H   H1402     1.0  0.30710  0.51087  0.65416  1.0000
  C   C871      1.0  0.36704  0.75624  0.65485  1.0000
  H   H1403     1.0  0.37994  0.75543  0.73419  1.0000
  C   C872      1.0  0.26710  0.50173  0.70912  1.0000
  H   H1404     1.0  0.32692  0.75503  0.83564  1.0000
  S   S375      1.0  0.28837  0.58930  0.69488  1.0000
  C   C873      1.0  0.25025  0.66370  0.64306  1.0000
  H   H1405     1.0  0.34998  0.92522  0.77899  1.0000
  H   H1406     1.0  0.41646  0.72518  0.77961  1.0000
  H   H1407     1.0  0.30304  0.75865  0.83239  1.0000
  C   C874      1.0  0.48736  0.81284  0.82635  1.0000
  H   H1408     1.0  0.28008  0.64729  0.77781  1.0000
  H   H1409     1.0  0.35098  0.59721  0.72057  1.0000
  C   C875      1.0  0.27320  0.89670  0.87897  1.0000
  C   C876      1.0  0.33481  0.48951  0.67273  1.0000
  H   H1410     1.0  0.24435  0.89518  0.92270  1.0000
  H   H1411     1.0  0.30650  0.94231  0.75919  1.0000
  H   H1412     1.0  0.28712  0.89028  0.87201  1.0000
  H   H1413     1.0  0.24540  0.76482  0.90742  1.0000
  C   C877      1.0  0.33889  0.77997  0.87205  1.0000
  C   C878      1.0  0.35084  0.77645  0.88477  1.0000
  C   C879      1.0  0.34307  0.77783  0.90373  1.0000
  C   C880      1.0  0.32340  0.78325  0.90988  1.0000
  C   C881      1.0  0.31145  0.78717  0.89705  1.0000
  C   C882      1.0  0.31918  0.78519  0.87823  1.0000
  H   H1414     1.0  0.36605  0.77229  0.88010  1.0000
  H   H1415     1.0  0.35232  0.77470  0.91367  1.0000
  H   H1416     1.0  0.29625  0.79112  0.90181  1.0000
  H   H1417     1.0  0.30990  0.78783  0.86843  1.0000
  C   C883      1.0  0.34335  0.87530  0.81547  1.0000
  C   C884      1.0  0.33944  0.86960  0.80072  1.0000
  C   C885      1.0  0.32351  0.87963  0.79292  1.0000
  C   C886      1.0  0.31126  0.89522  0.79998  1.0000
  C   C887      1.0  0.31495  0.90069  0.81501  1.0000
  C   C888      1.0  0.33112  0.89092  0.82253  1.0000
  H   H1418     1.0  0.34894  0.85779  0.79497  1.0000
  H   H1419     1.0  0.32082  0.87544  0.78119  1.0000
  H   H1420     1.0  0.30556  0.91259  0.82066  1.0000
  H   H1421     1.0  0.33418  0.89548  0.83384  1.0000
  C   C889      1.0  0.45620  0.80688  0.82799  1.0000
  H   H1422     1.0  0.24802  0.54369  0.68216  1.0000
  H   H1423     1.0  0.24631  0.79162  0.92119  1.0000
  H   H1424     1.0  0.34039  0.49878  0.65903  1.0000
  C   C890      1.0  0.45972  0.83868  0.82802  1.0000
  C   C891      1.0  0.44820  0.82618  0.82832  1.0000
  H   H1425     1.0  0.34437  0.78503  0.78896  1.0000
  H   H1426     1.0  0.33341  0.75843  0.78389  1.0000
  H   H1427     1.0  0.45342  0.85353  0.82853  1.0000
  H   H1428     1.0  0.43311  0.83139  0.82909  1.0000
  H   H1429     1.0  0.26609  0.60997  0.66587  1.0000
  Fe  Fe187     1.0  0.35132  0.71960  0.70449  1.0000
  S   S376      1.0  0.46978  0.73710  0.73065  1.0000
  H   H1430     1.0  0.26801  0.48650  0.71186  1.0000
  H   H1431     1.0  0.26405  0.55664  0.69986  1.0000
  H   H1432     1.0  0.31441  0.66657  0.76948  1.0000
  H   H1433     1.0  0.30764  0.93899  0.79237  1.0000
  H   H1434     1.0  0.40322  0.69586  0.79031  1.0000
  H   H1435     1.0  0.34934  0.96342  0.74823  1.0000
  H   H1436     1.0  0.29647  0.74344  0.67024  1.0000
  C   C892      1.0  0.27519  0.52884  0.71574  1.0000
  C   C893      1.0  0.27616  0.50905  0.71909  1.0000
  C   C894      1.0  0.31575  0.95307  0.75521  1.0000
  H   H1437     1.0  0.29144  0.62429  0.78932  1.0000
  H   H1438     1.0  0.28402  0.49937  0.72941  1.0000
  C   C895      1.0  0.34195  0.71968  0.65808  1.0000
  C   C896      1.0  0.26139  0.91087  0.86817  1.0000
  C   C897      1.0  0.37500  0.74611  0.76466  1.0000
  C   C898      1.0  0.37678  0.74970  0.78151  1.0000
  C   C899      1.0  0.38374  0.76569  0.78119  1.0000
  C   C900      1.0  0.38928  0.77813  0.76402  1.0000
  C   C901      1.0  0.38832  0.77409  0.74700  1.0000
  C   C902      1.0  0.38109  0.75814  0.74731  1.0000
  H   H1439     1.0  0.37260  0.74019  0.79494  1.0000
  H   H1440     1.0  0.38445  0.76852  0.79435  1.0000
  N   N87       1.0  0.31011  0.63972  0.76693  1.0000
  C   C903      1.0  0.34076  0.92946  0.76835  1.0000
  C   C904      1.0  0.35816  0.64025  0.72305  1.0000
  C   C905      1.0  0.34825  0.65225  0.70928  1.0000
  C   C906      1.0  0.33938  0.64439  0.69956  1.0000
  C   C907      1.0  0.34025  0.62454  0.70366  1.0000
  C   C908      1.0  0.35008  0.61256  0.71750  1.0000
  C   C909      1.0  0.35907  0.62040  0.72711  1.0000
  H   H1441     1.0  0.34729  0.66760  0.70621  1.0000
  H   H1442     1.0  0.33172  0.65375  0.68900  1.0000
  H   H1443     1.0  0.29474  0.64567  0.79415  1.0000
  C   C910      1.0  0.43568  0.72256  0.69554  1.0000
  C   C911      1.0  0.42663  0.73356  0.70921  1.0000
  C   C912      1.0  0.43742  0.73915  0.71888  1.0000
  C   C913      1.0  0.45724  0.73325  0.71544  1.0000
  C   C914      1.0  0.46636  0.72282  0.70131  1.0000
  C   C915      1.0  0.45558  0.71763  0.69125  1.0000
  H   H1444     1.0  0.32971  0.63422  0.78534  1.0000
  C   C916      1.0  0.30680  0.78557  0.79986  1.0000
  H   H1445     1.0  0.48166  0.71827  0.69849  1.0000
  H   H1446     1.0  0.46266  0.70925  0.68059  1.0000
  C   C917      1.0  0.44609  0.79244  0.77079  1.0000
  H   H1447     1.0  0.26959  0.97646  0.89831  1.0000
  S   S377      1.0  0.42223  0.71455  0.68410  1.0000
  H   H1448     1.0  0.41354  0.72760  0.75597  1.0000
  S   S378      1.0  0.37095  0.73543  0.70955  1.0000
  H   H1449     1.0  0.43487  0.79898  0.73764  1.0000
  H   H1450     1.0  0.31148  0.77793  0.83597  1.0000
  Fe  Fe188     1.0  0.39369  0.71037  0.70227  1.0000
  H   H1451     1.0  0.48279  0.76987  0.74138  1.0000
  N   N88       1.0  0.38765  0.75142  0.64700  1.0000
  C   C918      1.0  0.42342  0.72077  0.76589  1.0000
  H   H1452     1.0  0.33205  0.91834  0.77179  1.0000
  H   H1453     1.0  0.30052  0.63656  0.65981  1.0000
  H   H1454     1.0  0.39517  0.75023  0.67327  1.0000
  N   N89       1.0  0.32217  0.77151  0.80818  1.0000
  C   C919      1.0  0.30228  0.65090  0.66041  1.0000
  H   H1455     1.0  0.43974  0.77373  0.74756  1.0000
  H   H1456     1.0  0.34069  0.64271  0.65896  1.0000
  H   H1457     1.0  0.43642  0.72694  0.76006  1.0000
  C   C920      1.0  0.32728  0.62839  0.77409  1.0000
  C   C921      1.0  0.39368  0.73049  0.64824  1.0000
  N   N90       1.0  0.45814  0.78940  0.75224  1.0000
  S   S379      1.0  0.26533  0.96122  0.77986  1.0000
  H   H1458     1.0  0.39272  0.78355  0.73360  1.0000
  S   S380      1.0  0.32694  0.73521  0.68991  1.0000
  H   H1459     1.0  0.32637  0.94559  0.79855  1.0000
  H   H1460     1.0  0.46785  0.75917  0.76241  1.0000
  H   H1461     1.0  0.47560  0.80900  0.75087  1.0000
  H   H1462     1.0  0.32620  0.61310  0.78010  1.0000
  C   C922      1.0  0.30741  0.63140  0.75212  1.0000
  H   H1463     1.0  0.31924  0.63237  0.73956  1.0000
  H   H1464     1.0  0.32499  0.66054  0.74684  1.0000
  S   S381      1.0  0.24581  0.50532  0.68267  1.0000
  Fe  Fe189     1.0  0.26459  0.97431  0.80392  1.0000
  H   H1465     1.0  0.24257  0.86442  0.90661  1.0000
  C   C923      1.0  0.27176  0.97291  0.88421  1.0000
  H   H1466     1.0  0.34019  0.62855  0.76256  1.0000
  S   S382      1.0  0.34516  0.70377  0.73491  1.0000
  C   C924      1.0  0.32768  0.75456  0.79947  1.0000
  C   C925      1.0  0.31553  0.76550  0.82892  1.0000
  C   C926      1.0  0.30892  0.73580  0.66204  1.0000
  H   H1467     1.0  0.41132  0.73774  0.71238  1.0000
  C   C927      1.0  0.29339  0.63928  0.78277  1.0000
  S   S383      1.0  0.26141  0.79941  0.96252  1.0000
  H   H1468     1.0  0.29407  0.63897  0.74706  1.0000
  H   H1469     1.0  0.36677  0.61104  0.73771  1.0000
  H   H1470     1.0  0.41383  0.75331  0.65290  1.0000
  H   H1471     1.0  0.30662  0.61597  0.75747  1.0000
  H   H1472     1.0  0.31543  0.74772  0.80151  1.0000
  N   N91       1.0  0.42796  0.69968  0.76823  1.0000
  C   C928      1.0  0.41031  0.69220  0.77627  1.0000
  C   C929      1.0  0.43672  0.69462  0.74955  1.0000
  C   C930      1.0  0.44140  0.69120  0.78116  1.0000
  H   H1473     1.0  0.41307  0.67633  0.77812  1.0000
  H   H1474     1.0  0.45013  0.69999  0.74308  1.0000
  H   H1475     1.0  0.44016  0.67882  0.75069  1.0000
  H   H1476     1.0  0.42707  0.70097  0.73932  1.0000
  H   H1477     1.0  0.44516  0.67528  0.78326  1.0000
  H   H1478     1.0  0.43530  0.69482  0.79537  1.0000
  H   H1479     1.0  0.45486  0.69663  0.77536  1.0000
  H   H1480     1.0  0.24428  0.95292  0.89244  1.0000
  H   H1481     1.0  0.39105  0.72247  0.66322  1.0000
  H   H1482     1.0  0.35505  0.71475  0.66314  1.0000
  H   H1483     1.0  0.33211  0.49767  0.68409  1.0000
  H   H1484     1.0  0.26005  0.57487  0.77814  1.0000
  S   S384      1.0  0.26655  0.61330  0.77113  1.0000
  H   H1485     1.0  0.30670  0.68753  0.64525  1.0000
  C   C931      1.0  0.39819  0.75736  0.65799  1.0000
  H   H1486     1.0  0.29975  0.66869  0.75297  1.0000
  H   H1487     1.0  0.43940  0.77993  0.77852  1.0000
  H   H1488     1.0  0.28302  0.98025  0.87433  1.0000
  C   C932      1.0  0.44651  0.78632  0.74044  1.0000
  N   N92       1.0  0.31760  0.65760  0.64488  1.0000
  H   H1489     1.0  0.48205  0.78537  0.82669  1.0000
  H   H1490     1.0  0.30240  0.79860  0.80605  1.0000
  C   C933      1.0  0.47354  0.77239  0.75521  1.0000
  H   H1491     1.0  0.47902  0.81984  0.87143  1.0000
  N   N93       1.0  0.33421  0.84173  0.88137  1.0000
  C   C934      1.0  0.33657  0.82896  0.86834  1.0000
  C   C935      1.0  0.32133  0.86002  0.87526  1.0000
  C   C936      1.0  0.35290  0.84549  0.88084  1.0000
  C   C937      1.0  0.32604  0.83250  0.90093  1.0000
  H   H1492     1.0  0.34667  0.81528  0.87219  1.0000
  H   H1493     1.0  0.34227  0.83569  0.85337  1.0000
  H   H1494     1.0  0.32287  0.82534  0.86872  1.0000
  H   H1495     1.0  0.31940  0.87018  0.88459  1.0000
  H   H1496     1.0  0.32694  0.86718  0.86045  1.0000
  H   H1497     1.0  0.30701  0.85768  0.87583  1.0000
  H   H1498     1.0  0.35166  0.85508  0.89052  1.0000
  H   H1499     1.0  0.35941  0.85249  0.86625  1.0000
  H   H1500     1.0  0.36302  0.83192  0.88518  1.0000
  H   H1501     1.0  0.31222  0.82888  0.90173  1.0000
  H   H1502     1.0  0.32336  0.84207  0.91103  1.0000
  H   H1503     1.0  0.33561  0.81888  0.90625  1.0000
  H   H1504     1.0  0.45525  0.78351  0.72650  1.0000
  H   H1505     1.0  0.33500  0.79337  0.81077  1.0000
  C   C938      1.0  0.32591  0.72955  0.66875  1.0000
  C   C939      1.0  0.25754  0.97389  0.85832  1.0000
  H   H1506     1.0  0.39436  0.77313  0.65710  1.0000
  C   C940      1.0  0.33870  0.78048  0.80446  1.0000
  C   C941      1.0  0.47580  0.80027  0.82700  1.0000
  H   H1507     1.0  0.43032  0.74784  0.72927  1.0000
  C   C942      1.0  0.25703  0.51414  0.69567  1.0000
  Fe  Fe190     1.0  0.36963  0.68110  0.72541  1.0000
  C   C943      1.0  0.26490  0.54133  0.70250  1.0000
  H   H1508     1.0  0.35043  0.77041  0.81089  1.0000
  C   C944      1.0  0.31236  0.65978  0.75873  1.0000
  C   C945      1.0  0.26175  0.62497  0.65960  1.0000
  H   H1509     1.0  0.28836  0.66098  0.65966  1.0000
  C   C946      1.0  0.33567  0.64354  0.64593  1.0000
  C   C947      1.0  0.47932  0.83205  0.82705  1.0000
  C   C948      1.0  0.48656  0.82336  0.90385  1.0000
  C   C949      1.0  0.25039  0.58206  0.78888  1.0000
  H   H1510     1.0  0.35055  0.96036  0.77264  1.0000
  C   C950      1.0  0.25584  0.53397  0.69250  1.0000
  H   H1511     1.0  0.30818  0.96382  0.78869  1.0000
  H   H1512     1.0  0.32379  0.95282  0.74043  1.0000
  H   H1513     1.0  0.47584  0.80452  0.72842  1.0000
  H   H1514     1.0  0.28908  0.49772  0.66782  1.0000
  H   H1515     1.0  0.30621  0.96746  0.75518  1.0000
  H   H1516     1.0  0.32308  0.67550  0.66058  1.0000
  H   H1517     1.0  0.35008  0.92870  0.75415  1.0000
  N   N94       1.0  0.25396  0.97888  0.87701  1.0000
  H   H1518     1.0  0.47117  0.82785  0.90349  1.0000
  H   H1519     1.0  0.45538  0.81960  0.73991  1.0000
  C   C951      1.0  0.25087  0.60088  0.78883  1.0000
  C   C952      1.0  0.31982  0.67632  0.64663  1.0000
  H   H1520     1.0  0.30533  0.64949  0.67459  1.0000
  C   C953      1.0  0.24819  0.63705  0.67037  1.0000
  H   H1521     1.0  0.27731  0.95714  0.88586  1.0000
  H   H1522     1.0  0.43434  0.80521  0.76897  1.0000
  H   H1523     1.0  0.40919  0.72629  0.64254  1.0000
  H   H1524     1.0  0.33186  0.97798  0.76306  1.0000
  C   C954      1.0  0.30258  0.50140  0.66811  1.0000
  H   H1525     1.0  0.45438  0.79471  0.78017  1.0000
  H   H1526     1.0  0.47938  0.85215  0.87354  1.0000
  H   H1527     1.0  0.48280  0.77424  0.76387  1.0000
  H   H1528     1.0  0.26269  0.95815  0.85941  1.0000
  H   H1529     1.0  0.24885  0.71278  0.94913  1.0000
  Fe  Fe191     1.0  0.24457  0.82118  0.94274  1.0000
  H   H1530     1.0  0.33414  0.62883  0.64629  1.0000
  C   C955      1.0  0.24906  0.89944  0.90747  1.0000
  H   H1531     1.0  0.36205  0.77181  0.65482  1.0000
  H   H1532     1.0  0.35859  0.75251  0.64655  1.0000
  H   H1533     1.0  0.48930  0.80792  0.91109  1.0000
  S   S385      1.0  0.24439  0.84626  0.95451  1.0000
  Fe  Fe192     1.0  0.26295  0.82462  0.97311  1.0000
  H   H1534     1.0  0.24963  0.84326  0.88434  1.0000
  C   C956      1.0  0.24358  0.91975  0.87700  1.0000
  H   H1535     1.0  0.24434  0.97796  0.85258  1.0000
  H   H1536     1.0  0.26832  0.98132  0.84766  1.0000
  Fe  Fe193     1.0  0.24238  0.94628  0.83261  1.0000
  C   C957      1.0  0.24229  0.65639  0.66203  1.0000
  H   H1537     1.0  0.24142  0.87848  0.87231  1.0000
  H   H1538     1.0  0.67734  0.17882  0.01395  1.0000
  Fe  Fe194     1.0  0.52789  0.27933  0.17420  1.0000
  S   S386      1.0  0.51066  0.25634  0.18342  1.0000
  S   S387      1.0  0.54152  0.28848  0.14342  1.0000
  Fe  Fe195     1.0  0.51974  0.28739  0.21371  1.0000
  Fe  Fe196     1.0  0.52537  0.24671  0.20810  1.0000
  S   S388      1.0  0.53431  0.21472  0.21815  1.0000
  S   S389      1.0  0.54397  0.26858  0.19782  1.0000
  C   C958      1.0  0.64917  0.18346  0.04439  1.0000
  Fe  Fe197     1.0  0.64604  0.26624  0.09383  1.0000
  S   S390      1.0  0.63415  0.25197  0.07779  1.0000
  S   S391      1.0  0.63120  0.27490  0.12159  1.0000
  Fe  Fe198     1.0  0.68526  0.26127  0.06824  1.0000
  S   S392      1.0  0.67697  0.24550  0.05082  1.0000
  S   S393      1.0  0.71345  0.27044  0.05707  1.0000
  Fe  Fe199     1.0  0.65056  0.26831  0.05154  1.0000
  S   S394      1.0  0.64438  0.28214  0.02243  1.0000
  Fe  Fe200     1.0  0.66152  0.23041  0.07842  1.0000
  S   S395      1.0  0.65805  0.19985  0.08493  1.0000
  S   S396      1.0  0.65962  0.28506  0.06751  1.0000
  S   S397      1.0  0.67262  0.24362  0.09599  1.0000
  H   H1539     1.0  0.66116  0.21490  0.04409  1.0000
  H   H1540     1.0  0.67512  0.30617  0.01428  1.0000
  H   H1541     1.0  0.69615  0.30464  0.02287  1.0000
  C   C959      1.0  0.70741  0.43957  0.27616  1.0000
  H   H1542     1.0  0.69725  0.42364  0.24190  1.0000
  S   S398      1.0  0.67317  0.10804  0.20044  1.0000
  S   S399      1.0  0.63875  0.14254  0.18508  1.0000
  Fe  Fe201     1.0  0.64134  0.11428  0.20647  1.0000
  Fe  Fe202     1.0  0.67039  0.13739  0.18142  1.0000
  S   S400      1.0  0.69173  0.14596  0.15493  1.0000
  S   S401      1.0  0.66957  0.15198  0.20434  1.0000
  H   H1543     1.0  0.60342  0.22422  0.17211  1.0000
  S   S402      1.0  0.66285  0.01502  0.18085  1.0000
  H   H1544     1.0  0.61425  0.19148  0.16650  1.0000
  C   C960      1.0  0.69801  0.01985  0.21260  1.0000
  H   H1545     1.0  0.73329  0.16263  0.20434  1.0000
  H   H1546     1.0  0.70610  0.12695  0.20453  1.0000
  C   C961      1.0  0.72514  0.15088  0.17677  1.0000
  H   H1547     1.0  0.55652  0.29056  0.23165  1.0000
  H   H1548     1.0  0.67945  0.14987  0.24405  1.0000
  H   H1549     1.0  0.73222  0.16336  0.17100  1.0000
  H   H1550     1.0  0.61833  0.24153  0.16143  1.0000
  H   H1551     1.0  0.61622  0.05372  0.22326  1.0000
  C   C962      1.0  0.70506  0.30865  0.98486  1.0000
  C   C963      1.0  0.70076  0.15526  0.25570  1.0000
  Fe  Fe203     1.0  0.66970  0.12318  0.22386  1.0000
  H   H1552     1.0  0.68433  0.46766  0.24029  1.0000
  S   S403      1.0  0.62444  0.09137  0.21114  1.0000
  H   H1553     1.0  0.65606  0.21326  0.15697  1.0000
  H   H1554     1.0  0.61351  0.34260  0.25246  1.0000
  H   H1555     1.0  0.64838  0.23350  0.13905  1.0000
  H   H1556     1.0  0.64672  0.21244  0.00081  1.0000
  H   H1557     1.0  0.67124  0.47849  0.22173  1.0000
  H   H1558     1.0  0.60366  0.21925  0.14058  1.0000
  S   S404      1.0  0.51694  0.31002  0.22999  1.0000
  H   H1559     1.0  0.63539  0.18555  0.14910  1.0000
  C   C964      1.0  0.71698  0.14728  0.26354  1.0000
  C   C965      1.0  0.63603  0.06994  0.20344  1.0000
  C   C966      1.0  0.65208  0.06934  0.18872  1.0000
  C   C967      1.0  0.66023  0.05236  0.18198  1.0000
  C   C968      1.0  0.65262  0.03582  0.19015  1.0000
  C   C969      1.0  0.63697  0.03623  0.20531  1.0000
  C   C970      1.0  0.62854  0.05333  0.21175  1.0000
  H   H1560     1.0  0.65786  0.08212  0.18215  1.0000
  H   H1561     1.0  0.67236  0.05214  0.17025  1.0000
  H   H1562     1.0  0.63124  0.02349  0.21197  1.0000
  C   C971      1.0  0.55891  0.31808  0.26096  1.0000
  C   C972      1.0  0.72257  0.27729  0.07318  1.0000
  C   C973      1.0  0.71437  0.27418  0.09256  1.0000
  H   H1563     1.0  0.70851  0.01308  0.24628  1.0000
  C   C974      1.0  0.68900  0.29688  0.01683  1.0000
  C   C975      1.0  0.60167  0.43117  0.28366  1.0000
  C   C976      1.0  0.57973  0.41019  0.28797  1.0000
  H   H1564     1.0  0.70259  0.26687  0.09800  1.0000
  H   H1565     1.0  0.68580  0.28405  0.02794  1.0000
  S   S405      1.0  0.50267  0.26450  0.22624  1.0000
  N   N95       1.0  0.62847  0.21490  0.15204  1.0000
  C   C977      1.0  0.63494  0.26862  0.01238  1.0000
  C   C978      1.0  0.64187  0.26768  0.99323  1.0000
  C   C979      1.0  0.61844  0.22593  0.16689  1.0000
  H   H1566     1.0  0.52159  0.33305  0.19176  1.0000
  C   C980      1.0  0.61267  0.24882  0.01459  1.0000
  C   C981      1.0  0.62041  0.25904  0.02311  1.0000
  H   H1567     1.0  0.65803  0.18085  0.05514  1.0000
  C   C982      1.0  0.62881  0.19425  0.16009  1.0000
  H   H1568     1.0  0.60122  0.24170  0.02287  1.0000
  H   H1569     1.0  0.61486  0.25987  0.03785  1.0000
  C   C983      1.0  0.66711  0.18537  0.10473  1.0000
  C   C984      1.0  0.65820  0.17054  0.11638  1.0000
  C   C985      1.0  0.66535  0.15875  0.13220  1.0000
  C   C986      1.0  0.68177  0.16139  0.13604  1.0000
  C   C987      1.0  0.69075  0.17614  0.12430  1.0000
  C   C988      1.0  0.68327  0.18830  0.10883  1.0000
  H   H1570     1.0  0.64574  0.16817  0.11321  1.0000
  H   H1571     1.0  0.65851  0.14722  0.14107  1.0000
  H   H1572     1.0  0.70353  0.17815  0.12715  1.0000
  H   H1573     1.0  0.69034  0.19959  0.09977  1.0000
  C   C989      1.0  0.56650  0.28390  0.13760  1.0000
  C   C990      1.0  0.57590  0.28325  0.11881  1.0000
  C   C991      1.0  0.59581  0.28023  0.11375  1.0000
  C   C992      1.0  0.60632  0.27834  0.12740  1.0000
  C   C993      1.0  0.59692  0.27922  0.14612  1.0000
  C   C994      1.0  0.57708  0.28174  0.15126  1.0000
  H   H1574     1.0  0.56777  0.28505  0.10815  1.0000
  H   H1575     1.0  0.60296  0.27975  0.09924  1.0000
  H   H1576     1.0  0.60500  0.27789  0.15669  1.0000
  H   H1577     1.0  0.57001  0.28248  0.16567  1.0000
  C   C995      1.0  0.55904  0.20647  0.21621  1.0000
  C   C996      1.0  0.56731  0.18720  0.21561  1.0000
  C   C997      1.0  0.58704  0.18054  0.21409  1.0000
  C   C998      1.0  0.59846  0.19313  0.21345  1.0000
  C   C999      1.0  0.59016  0.21232  0.21416  1.0000
  C   C1000     1.0  0.57056  0.21898  0.21548  1.0000
  H   H1578     1.0  0.55846  0.17742  0.21627  1.0000
  H   H1579     1.0  0.59335  0.16568  0.21362  1.0000
  H   H1580     1.0  0.56431  0.23366  0.21651  1.0000
  H   H1581     1.0  0.69463  0.17043  0.25448  1.0000
  C   C1001     1.0  0.53341  0.31209  0.24213  1.0000
  H   H1582     1.0  0.70222  0.12849  0.30143  1.0000
  H   H1583     1.0  0.67947  0.20352  0.00615  1.0000
  H   H1584     1.0  0.71318  0.99115  0.23831  1.0000
  C   C1002     1.0  0.72590  0.44206  0.26740  1.0000
  H   H1585     1.0  0.69594  0.36798  0.06687  1.0000
  H   H1586     1.0  0.74017  0.35056  0.98492  1.0000
  H   H1587     1.0  0.58452  0.37019  0.28847  1.0000
  H   H1588     1.0  0.57169  0.40389  0.28203  1.0000
  C   C1003     1.0  0.55200  0.30127  0.24023  1.0000
  C   C1004     1.0  0.62130  0.37282  0.27573  1.0000
  H   H1589     1.0  0.55701  0.36048  0.15938  1.0000
  C   C1005     1.0  0.52765  0.32574  0.25348  1.0000
  H   H1590     1.0  0.65078  0.16958  0.04037  1.0000
  H   H1591     1.0  0.53552  0.33916  0.27173  1.0000
  H   H1592     1.0  0.61861  0.36620  0.24276  1.0000
  H   H1593     1.0  0.66280  0.03344  0.23032  1.0000
  H   H1594     1.0  0.70410  0.36731  0.04206  1.0000
  C   C1006     1.0  0.61855  0.22141  0.13597  1.0000
  C   C1007     1.0  0.71648  0.11618  0.25882  1.0000
  C   C1008     1.0  0.73635  0.29050  0.09802  1.0000
  C   C1009     1.0  0.69219  0.14367  0.24975  1.0000
  H   H1595     1.0  0.62088  0.01909  0.15951  1.0000
  H   H1596     1.0  0.63716  0.22133  0.04100  1.0000
  S   S406      1.0  0.57469  0.32217  0.27276  1.0000
  S   S407      1.0  0.63793  0.12762  0.23136  1.0000
  N   N96       1.0  0.55026  0.33374  0.17653  1.0000
  C   C1010     1.0  0.56303  0.34758  0.16939  1.0000
  C   C1011     1.0  0.53182  0.34285  0.18694  1.0000
  C   C1012     1.0  0.55896  0.31677  0.18948  1.0000
  C   C1013     1.0  0.54722  0.32774  0.16035  1.0000
  H   H1597     1.0  0.57714  0.34101  0.16169  1.0000
  H   H1598     1.0  0.56543  0.35254  0.18126  1.0000
  H   H1599     1.0  0.69973  0.27624  0.97872  1.0000
  H   H1600     1.0  0.66519  0.02013  0.25387  1.0000
  H   H1601     1.0  0.53339  0.34651  0.19993  1.0000
  H   H1602     1.0  0.52516  0.35620  0.17793  1.0000
  H   H1603     1.0  0.57247  0.30893  0.18196  1.0000
  H   H1604     1.0  0.54926  0.30651  0.19587  1.0000
  H   H1605     1.0  0.56209  0.32086  0.20149  1.0000
  H   H1606     1.0  0.73748  0.12149  0.27097  1.0000
  H   H1607     1.0  0.51330  0.33416  0.25504  1.0000
  S   S408      1.0  0.65307  0.47497  0.27509  1.0000
  Fe  Fe204     1.0  0.66584  0.45645  0.29964  1.0000
  H   H1608     1.0  0.64409  0.18797  0.00896  1.0000
  S   S409      1.0  0.61776  0.44543  0.26897  1.0000
  C   C1014     1.0  0.65210  0.21659  0.03379  1.0000
  H   H1609     1.0  0.62589  0.21348  0.12442  1.0000
  C   C1015     1.0  0.70006  0.12411  0.25131  1.0000
  Fe  Fe205     1.0  0.63799  0.15530  0.20947  1.0000
  N   N97       1.0  0.68794  0.01119  0.23155  1.0000
  S   S410      1.0  0.68969  0.10916  0.24412  1.0000
  C   C1016     1.0  0.70164  0.00231  0.24419  1.0000
  C   C1017     1.0  0.72347  0.43195  0.23992  1.0000
  H   H1610     1.0  0.65302  0.27510  0.98478  1.0000
  H   H1611     1.0  0.65610  0.20989  0.13402  1.0000
  H   H1612     1.0  0.59891  0.22205  0.21392  1.0000
  C   C1018     1.0  0.63454  0.25699  0.98491  1.0000
  C   C1019     1.0  0.73787  0.28673  0.06630  1.0000
  Fe  Fe206     1.0  0.55767  0.33704  0.29645  1.0000
  H   H1613     1.0  0.72604  0.11256  0.21415  1.0000
  H   H1614     1.0  0.69104  0.09567  0.29045  1.0000
  H   H1615     1.0  0.72006  0.35743  0.05801  1.0000
  H   H1616     1.0  0.54008  0.34003  0.15057  1.0000
  H   H1617     1.0  0.72779  0.32615  0.04852  1.0000
  S   S411      1.0  0.61018  0.23439  0.98526  1.0000
  H   H1618     1.0  0.49414  0.22434  0.21662  1.0000
  H   H1619     1.0  0.71649  0.32774  0.08226  1.0000
  H   H1620     1.0  0.69467  0.99515  0.25850  1.0000
  C   C1020     1.0  0.69871  0.09252  0.30226  1.0000
  H   H1621     1.0  0.70480  0.03129  0.21339  1.0000
  H   H1622     1.0  0.70911  0.31466  0.04921  1.0000
  H   H1623     1.0  0.69387  0.46249  0.21712  1.0000
  H   H1624     1.0  0.68278  0.43099  0.27371  1.0000
  C   C1021     1.0  0.61974  0.24775  0.99547  1.0000
  S   S412      1.0  0.72717  0.16215  0.27106  1.0000
  H   H1625     1.0  0.72867  0.27430  0.99051  1.0000
  C   C1022     1.0  0.70526  0.42879  0.24900  1.0000
  N   N98       1.0  0.69996  0.34018  0.06063  1.0000
  C   C1023     1.0  0.68016  0.34286  0.05866  1.0000
  C   C1024     1.0  0.71282  0.32889  0.04697  1.0000
  C   C1025     1.0  0.70177  0.32984  0.08019  1.0000
  C   C1026     1.0  0.70515  0.35907  0.05673  1.0000
  H   H1626     1.0  0.67008  0.35137  0.06876  1.0000
  H   H1627     1.0  0.67585  0.32880  0.06166  1.0000
  H   H1628     1.0  0.67829  0.35054  0.04405  1.0000
  C   C1027     1.0  0.72148  0.28049  0.10500  1.0000
  H   H1629     1.0  0.53818  0.31680  0.16525  1.0000
  H   H1630     1.0  0.71238  0.33650  0.03202  1.0000
  C   C1028     1.0  0.59211  0.42202  0.27593  1.0000
  H   H1631     1.0  0.69827  0.31537  0.08356  1.0000
  H   H1632     1.0  0.69220  0.33784  0.09094  1.0000
  H   H1633     1.0  0.72304  0.47221  0.21616  1.0000
  H   H1634     1.0  0.72271  0.10106  0.25985  1.0000
  H   H1635     1.0  0.61977  0.38616  0.26444  1.0000
  C   C1029     1.0  0.71460  0.48384  0.22365  1.0000
  H   H1636     1.0  0.59406  0.42433  0.26067  1.0000
  H   H1637     1.0  0.57920  0.29614  0.24801  1.0000
  H   H1638     1.0  0.71328  0.09507  0.29584  1.0000
  C   C1030     1.0  0.56482  0.30445  0.24948  1.0000
  C   C1031     1.0  0.73383  0.43852  0.24914  1.0000
  C   C1032     1.0  0.67322  0.02624  0.23966  1.0000
  H   H1639     1.0  0.61802  0.23697  0.12965  1.0000
  H   H1640     1.0  0.63412  0.18772  0.05163  1.0000
  C   C1033     1.0  0.64814  0.21803  0.14522  1.0000
  N   N99       1.0  0.70105  0.29129  0.99925  1.0000
  H   H1641     1.0  0.56084  0.32123  0.15183  1.0000
  H   H1642     1.0  0.61493  0.37719  0.28960  1.0000
  S   S413      1.0  0.73270  0.42815  0.21685  1.0000
  N   N100      1.0  0.73134  0.13866  0.19416  1.0000
  H   H1643     1.0  0.72823  0.14268  0.16539  1.0000
  S   S414      1.0  0.61190  0.47753  0.30524  1.0000
  H   H1644     1.0  0.59066  0.03664  0.15018  1.0000
  H   H1645     1.0  0.63714  0.18866  0.17152  1.0000
  C   C1034     1.0  0.68576  0.47410  0.22483  1.0000
  C   C1035     1.0  0.71910  0.27870  0.00347  1.0000
  H   H1646     1.0  0.63673  0.36709  0.27524  1.0000
  H   H1647     1.0  0.60678  0.33032  0.28745  1.0000
  Fe  Fe207     1.0  0.63023  0.45757  0.28658  1.0000
  C   C1036     1.0  0.59851  0.42878  0.30333  1.0000
  S   S415      1.0  0.50511  0.29991  0.18915  1.0000
  H   H1648     1.0  0.62530  0.22099  0.17944  1.0000
  C   C1037     1.0  0.72486  0.12770  0.26509  1.0000
  H   H1649     1.0  0.68074  0.12899  0.29456  1.0000
  H   H1650     1.0  0.59153  0.00594  0.17467  1.0000
  S   S416      1.0  0.62316  0.18566  0.21164  1.0000
  S   S417      1.0  0.69698  0.44539  0.29828  1.0000
  H   H1651     1.0  0.65578  0.22839  0.02153  1.0000
  C   C1038     1.0  0.54026  0.32860  0.26298  1.0000
  N   N101      1.0  0.59645  0.03230  0.17793  1.0000
  C   C1039     1.0  0.61718  0.02683  0.17131  1.0000
  C   C1040     1.0  0.59242  0.04314  0.19306  1.0000
  C   C1041     1.0  0.58844  0.01475  0.18553  1.0000
  C   C1042     1.0  0.58784  0.04441  0.16185  1.0000
  H   H1652     1.0  0.62397  0.01715  0.18296  1.0000
  H   H1653     1.0  0.73918  0.37319  0.00479  1.0000
  H   H1654     1.0  0.57689  0.04797  0.19808  1.0000
  H   H1655     1.0  0.59827  0.03420  0.20563  1.0000
  H   H1656     1.0  0.59889  0.05611  0.18807  1.0000
  H   H1657     1.0  0.57277  0.01818  0.19058  1.0000
  H   H1658     1.0  0.59455  0.00542  0.19782  1.0000
  H   H1659     1.0  0.57217  0.04883  0.16632  1.0000
  H   H1660     1.0  0.59370  0.05771  0.15580  1.0000
  S   S418      1.0  0.73164  0.03001  0.29951  1.0000
  H   H1661     1.0  0.72698  0.28609  0.00916  1.0000
  C   C1043     1.0  0.67485  0.19245  0.01878  1.0000
  H   H1662     1.0  0.68815  0.02638  0.20261  1.0000
  C   C1044     1.0  0.72176  0.12215  0.20100  1.0000
  S   S419      1.0  0.54240  0.36794  0.29081  1.0000
  C   C1045     1.0  0.69707  0.43296  0.26697  1.0000
  H   H1663     1.0  0.57083  0.27392  0.97998  1.0000
  C   C1046     1.0  0.67890  0.99637  0.22969  1.0000
  N   N102      1.0  0.65470  0.19846  0.02767  1.0000
  H   H1664     1.0  0.67173  0.98897  0.24377  1.0000
  H   H1665     1.0  0.62399  0.03957  0.16617  1.0000
  H   H1666     1.0  0.62743  0.20634  0.01979  1.0000
  H   H1667     1.0  0.69174  0.31867  0.98157  1.0000
  C   C1047     1.0  0.59150  0.36677  0.27431  1.0000
  H   H1668     1.0  0.67749  0.29026  0.98825  1.0000
  C   C1048     1.0  0.62039  0.35341  0.25458  1.0000
  H   H1669     1.0  0.68722  0.26804  0.00253  1.0000
  H   H1670     1.0  0.71513  0.27798  0.12002  1.0000
  H   H1671     1.0  0.63584  0.34716  0.25321  1.0000
  H   H1672     1.0  0.67955  0.03760  0.24143  1.0000
  H   H1673     1.0  0.66808  0.00265  0.22070  1.0000
  H   H1674     1.0  0.70931  0.00888  0.20614  1.0000
  H   H1675     1.0  0.58404  0.35663  0.27200  1.0000
  C   C1049     1.0  0.64273  0.20139  0.01374  1.0000
  C   C1050     1.0  0.61437  0.34108  0.28848  1.0000
  H   H1676     1.0  0.73386  0.44725  0.27451  1.0000
  C   C1051     1.0  0.69100  0.28095  0.99186  1.0000
  H   H1677     1.0  0.58908  0.38019  0.26331  1.0000
  N   N103      1.0  0.61193  0.35852  0.27327  1.0000
  H   H1678     1.0  0.68427  0.19011  0.02894  1.0000
  H   H1679     1.0  0.62959  0.33404  0.28776  1.0000
  C   C1052     1.0  0.72633  0.15005  0.20895  1.0000
  H   H1680     1.0  0.71659  0.26549  0.01437  1.0000
  H   H1681     1.0  0.71073  0.15561  0.21246  1.0000
  H   H1682     1.0  0.73491  0.40580  0.15523  1.0000
  H   H1683     1.0  0.71321  0.31652  0.98964  1.0000
  H   H1684     1.0  0.60864  0.34451  0.30281  1.0000
  H   H1685     1.0  0.72490  0.11340  0.19010  1.0000
  H   H1686     1.0  0.71397  0.47801  0.23912  1.0000
  H   H1687     1.0  0.70954  0.15665  0.17959  1.0000
  S   S420      1.0  0.73677  0.38718  0.12542  1.0000
  H   H1688     1.0  0.73072  0.14129  0.22234  1.0000
  S   S421      1.0  0.73725  0.35416  0.09093  1.0000
  Fe  Fe208     1.0  0.65142  0.98773  0.19314  1.0000
  C   C1053     1.0  0.68783  0.12505  0.30689  1.0000
  C   C1054     1.0  0.57738  0.40709  0.30771  1.0000
  H   H1689     1.0  0.68953  0.98519  0.22293  1.0000
  N   N104      1.0  0.56442  0.38670  0.38023  1.0000
  Fe  Fe209     1.0  0.59268  0.33337  0.43430  1.0000
  S   S422      1.0  0.61902  0.31849  0.41723  1.0000
  S   S423      1.0  0.56360  0.32867  0.43586  1.0000
  Fe  Fe210     1.0  0.61406  0.35651  0.44684  1.0000
  S   S424      1.0  0.64205  0.34408  0.43004  1.0000
  S   S425      1.0  0.61511  0.37873  0.46196  1.0000
  Fe  Fe211     1.0  0.62594  0.34781  0.40742  1.0000
  S   S426      1.0  0.63475  0.36016  0.37644  1.0000
  Fe  Fe212     1.0  0.63233  0.31620  0.44173  1.0000
  S   S427      1.0  0.65158  0.29075  0.45585  1.0000
  S   S428      1.0  0.59875  0.36290  0.42300  1.0000
  S   S429      1.0  0.60524  0.32832  0.46005  1.0000
  Fe  Fe213     1.0  0.64570  0.33603  0.59874  1.0000
  S   S430      1.0  0.62139  0.36050  0.59361  1.0000
  H   H1690     1.0  0.69027  0.39102  0.62414  1.0000
  Fe  Fe214     1.0  0.66990  0.34890  0.56021  1.0000
  S   S431      1.0  0.64781  0.37503  0.55202  1.0000
  S   S432      1.0  0.69609  0.33806  0.53983  1.0000
  Fe  Fe215     1.0  0.64378  0.37828  0.58217  1.0000
  S   S433      1.0  0.63625  0.40596  0.59265  1.0000
  Fe  Fe216     1.0  0.62754  0.35496  0.56428  1.0000
  S   S434      1.0  0.60495  0.35135  0.55122  1.0000
  S   S435      1.0  0.66788  0.35393  0.58915  1.0000
  S   S436      1.0  0.64988  0.32862  0.57063  1.0000
  Fe  Fe217     1.0  0.54237  0.33116  0.33920  1.0000
  C   C1055     1.0  0.73731  0.04465  0.31150  1.0000
  C   C1056     1.0  0.67817  0.38893  0.36510  1.0000
  H   H1691     1.0  0.68645  0.37429  0.36376  1.0000
  H   H1692     1.0  0.70445  0.00786  0.63263  1.0000
  C   C1057     1.0  0.66645  0.39686  0.61065  1.0000
  Fe  Fe218     1.0  0.62794  0.45855  0.32721  1.0000
  S   S437      1.0  0.61395  0.45021  0.35787  1.0000
  C   C1058     1.0  0.70285  0.40393  0.34301  1.0000
  C   C1059     1.0  0.64943  0.42360  0.63375  1.0000
  S   S438      1.0  0.73595  0.17872  0.34936  1.0000
  N   N105      1.0  0.66855  0.48370  0.61922  1.0000
  C   C1060     1.0  0.58843  0.31858  0.63450  1.0000
  H   H1693     1.0  0.69063  0.27743  0.58411  1.0000
  H   H1694     1.0  0.66279  0.45848  0.61432  1.0000
  H   H1695     1.0  0.53799  0.40685  0.37828  1.0000
  H   H1696     1.0  0.66678  0.45612  0.63756  1.0000
  H   H1697     1.0  0.71192  0.38977  0.34100  1.0000
  Fe  Fe219     1.0  0.55192  0.36929  0.31656  1.0000
  H   H1698     1.0  0.70135  0.31153  0.59178  1.0000
  S   S439      1.0  0.72880  0.14021  0.32419  1.0000
  S   S440      1.0  0.73870  0.21727  0.44233  1.0000
  N   N106      1.0  0.69898  0.28296  0.60729  1.0000
  H   H1699     1.0  0.52197  0.32244  0.62459  1.0000
  C   C1061     1.0  0.67101  0.42247  0.34989  1.0000
  H   H1700     1.0  0.55536  0.40766  0.35644  1.0000
  C   C1062     1.0  0.60762  0.31830  0.62605  1.0000
  C   C1063     1.0  0.57885  0.37427  0.36853  1.0000
  S   S441      1.0  0.52567  0.36123  0.33671  1.0000
  C   C1064     1.0  0.71565  0.32820  0.55074  1.0000
  C   C1065     1.0  0.62962  0.36652  0.63977  1.0000
  H   H1701     1.0  0.70682  0.40795  0.35459  1.0000
  H   H1702     1.0  0.57810  0.32182  0.62566  1.0000
  C   C1066     1.0  0.68489  0.27327  0.62197  1.0000
  C   C1067     1.0  0.67379  0.28478  0.44123  1.0000
  C   C1068     1.0  0.67718  0.29295  0.42176  1.0000
  C   C1069     1.0  0.69491  0.28735  0.41022  1.0000
  C   C1070     1.0  0.70928  0.27376  0.41820  1.0000
  C   C1071     1.0  0.70599  0.26603  0.43774  1.0000
  C   C1072     1.0  0.68822  0.27137  0.44919  1.0000
  H   H1703     1.0  0.66605  0.30337  0.41558  1.0000
  H   H1704     1.0  0.69742  0.29342  0.39512  1.0000
  H   H1705     1.0  0.70141  0.08426  0.33868  1.0000
  H   H1706     1.0  0.68567  0.26512  0.46426  1.0000
  C   C1073     1.0  0.61102  0.37206  0.48690  1.0000
  C   C1074     1.0  0.61917  0.38036  0.49684  1.0000
  C   C1075     1.0  0.61725  0.37424  0.51663  1.0000
  C   C1076     1.0  0.60668  0.36019  0.52662  1.0000
  C   C1077     1.0  0.59800  0.35238  0.51675  1.0000
  C   C1078     1.0  0.60037  0.35810  0.49690  1.0000
  H   H1707     1.0  0.62733  0.39125  0.48918  1.0000
  H   H1708     1.0  0.62379  0.38050  0.52416  1.0000
  H   H1709     1.0  0.58972  0.34159  0.52443  1.0000
  H   H1710     1.0  0.59378  0.35186  0.48939  1.0000
  C   C1079     1.0  0.62662  0.38501  0.37225  1.0000
  C   C1080     1.0  0.62365  0.39496  0.35420  1.0000
  C   C1081     1.0  0.61857  0.41499  0.35024  1.0000
  C   C1082     1.0  0.61679  0.42518  0.36411  1.0000
  C   C1083     1.0  0.61904  0.41521  0.38243  1.0000
  C   C1084     1.0  0.62399  0.39509  0.38650  1.0000
  H   H1711     1.0  0.62543  0.38721  0.34322  1.0000
  H   H1712     1.0  0.61609  0.42257  0.33639  1.0000
  H   H1713     1.0  0.61771  0.42301  0.39325  1.0000
  H   H1714     1.0  0.62649  0.38745  0.40046  1.0000
  H   H1715     1.0  0.68112  0.40863  0.31798  1.0000
  H   H1716     1.0  0.61201  0.32116  0.61073  1.0000
  C   C1085     1.0  0.67125  0.46265  0.62229  1.0000
  C   C1086     1.0  0.66769  0.41278  0.63492  1.0000
  S   S442      1.0  0.73079  0.26534  0.40361  1.0000
  H   H1717     1.0  0.67387  0.42681  0.36187  1.0000
  H   H1718     1.0  0.54814  0.36499  0.39509  1.0000
  H   H1719     1.0  0.66294  0.38809  0.36877  1.0000
  H   H1720     1.0  0.57684  0.48385  0.36557  1.0000
  H   H1721     1.0  0.70655  0.41468  0.32970  1.0000
  H   H1722     1.0  0.72749  0.28671  0.60371  1.0000
  H   H1723     1.0  0.73908  0.22178  0.53068  1.0000
  C   C1087     1.0  0.54618  0.31670  0.38627  1.0000
  C   C1088     1.0  0.53580  0.31268  0.40488  1.0000
  C   C1089     1.0  0.54142  0.31642  0.41979  1.0000
  C   C1090     1.0  0.55793  0.32350  0.41648  1.0000
  C   C1091     1.0  0.56880  0.32702  0.39793  1.0000
  C   C1092     1.0  0.56268  0.32402  0.38273  1.0000
  H   H1724     1.0  0.52328  0.30672  0.40783  1.0000
  H   H1725     1.0  0.53304  0.31357  0.43407  1.0000
  H   H1726     1.0  0.58172  0.33223  0.39530  1.0000
  H   H1727     1.0  0.57098  0.32680  0.36843  1.0000
  Fe  Fe220     1.0  0.73328  0.99796  0.31030  1.0000
  H   H1728     1.0  0.73284  0.02605  0.33919  1.0000
  S   S443      1.0  0.65059  0.47566  0.31977  1.0000
  C   C1093     1.0  0.67782  0.39814  0.33161  1.0000
  H   H1729     1.0  0.67407  0.43373  0.33686  1.0000
  H   H1730     1.0  0.71358  0.28584  0.62739  1.0000
  S   S444      1.0  0.64479  0.31514  0.62681  1.0000
  H   H1731     1.0  0.66175  0.10964  0.33511  1.0000
  H   H1732     1.0  0.69574  0.48252  0.62495  1.0000
  H   H1733     1.0  0.65556  0.42264  0.35293  1.0000
  H   H1734     1.0  0.49731  0.32565  0.31011  1.0000
  C   C1094     1.0  0.64003  0.42154  0.62057  1.0000
  S   S445      1.0  0.64478  0.43742  0.30927  1.0000
  H   H1735     1.0  0.71708  0.25581  0.44408  1.0000
  H   H1736     1.0  0.67319  0.38666  0.60167  1.0000
  H   H1737     1.0  0.69043  0.25750  0.62584  1.0000
  H   H1738     1.0  0.67802  0.30669  0.59677  1.0000
  H   H1739     1.0  0.59041  0.36566  0.37610  1.0000
  H   H1740     1.0  0.74004  0.04798  0.35532  1.0000
  H   H1741     1.0  0.68598  0.38369  0.32948  1.0000
  H   H1742     1.0  0.58453  0.41475  0.33052  1.0000
  H   H1743     1.0  0.51254  0.35403  0.63387  1.0000
  H   H1744     1.0  0.67145  0.27557  0.61701  1.0000
  H   H1745     1.0  0.50198  0.29890  0.36571  1.0000
  H   H1746     1.0  0.70940  0.25937  0.59307  1.0000
  H   H1747     1.0  0.68132  0.39245  0.37741  1.0000
  H   H1748     1.0  0.68638  0.45574  0.61780  1.0000
  H   H1749     1.0  0.70972  0.35003  0.56691  1.0000
  C   C1095     1.0  0.69967  0.09976  0.33162  1.0000
  C   C1096     1.0  0.54948  0.39789  0.36961  1.0000
  S   S446      1.0  0.53260  0.32577  0.31545  1.0000
  H   H1750     1.0  0.72268  0.26423  0.61847  1.0000
  C   C1097     1.0  0.49331  0.31138  0.35745  1.0000
  C   C1098     1.0  0.69104  0.30375  0.60258  1.0000
  C   C1099     1.0  0.57355  0.39998  0.38476  1.0000
  C   C1100     1.0  0.55578  0.37467  0.39800  1.0000
  S   S447      1.0  0.53827  0.31167  0.36814  1.0000
  H   H1751     1.0  0.66246  0.39782  0.33438  1.0000
  H   H1752     1.0  0.54541  0.38350  0.40761  1.0000
  S   S448      1.0  0.56307  0.39162  0.32364  1.0000
  H   H1753     1.0  0.56667  0.36537  0.40606  1.0000
  H   H1754     1.0  0.71420  0.10284  0.32599  1.0000
  N   N107      1.0  0.68246  0.40336  0.34741  1.0000
  H   H1755     1.0  0.72539  0.30469  0.53634  1.0000
  Fe  Fe221     1.0  0.51780  0.35663  0.31148  1.0000
  H   H1756     1.0  0.68707  0.31019  0.61532  1.0000
  H   H1757     1.0  0.57245  0.36409  0.36477  1.0000
  H   H1758     1.0  0.58013  0.40931  0.37163  1.0000
  C   C1101     1.0  0.67612  0.39939  0.62337  1.0000
  C   C1102     1.0  0.71897  0.33679  0.56384  1.0000
  H   H1759     1.0  0.49915  0.33858  0.37158  1.0000
  C   C1103     1.0  0.71645  0.27980  0.61454  1.0000
  N   N108      1.0  0.69110  0.23142  0.40160  1.0000
  C   C1104     1.0  0.68762  0.21524  0.39574  1.0000
  C   C1105     1.0  0.70275  0.22384  0.41628  1.0000
  C   C1106     1.0  0.67283  0.24313  0.40945  1.0000
  C   C1107     1.0  0.70129  0.24350  0.38494  1.0000
  H   H1760     1.0  0.67878  0.22040  0.38472  1.0000
  H   H1761     1.0  0.68011  0.20569  0.40798  1.0000
  H   H1762     1.0  0.70118  0.20623  0.38962  1.0000
  H   H1763     1.0  0.71658  0.21480  0.41097  1.0000
  H   H1764     1.0  0.70591  0.23567  0.42077  1.0000
  H   H1765     1.0  0.69540  0.21490  0.42920  1.0000
  H   H1766     1.0  0.67507  0.25528  0.41427  1.0000
  H   H1767     1.0  0.66465  0.23447  0.42197  1.0000
  H   H1768     1.0  0.66374  0.24940  0.39870  1.0000
  H   H1769     1.0  0.70350  0.25626  0.38868  1.0000
  H   H1770     1.0  0.69326  0.24888  0.37328  1.0000
  H   H1771     1.0  0.71556  0.23543  0.37922  1.0000
  S   S449      1.0  0.56920  0.33919  0.32069  1.0000
  C   C1108     1.0  0.64846  0.40809  0.60905  1.0000
  H   H1772     1.0  0.63065  0.37200  0.62422  1.0000
  H   H1773     1.0  0.54292  0.38832  0.36512  1.0000
  C   C1109     1.0  0.58659  0.41666  0.31531  1.0000
  N   N109      1.0  0.65829  0.32116  0.50039  1.0000
  C   C1110     1.0  0.66019  0.30194  0.49681  1.0000
  C   C1111     1.0  0.64468  0.32311  0.51848  1.0000
  C   C1112     1.0  0.65130  0.33596  0.48463  1.0000
  C   C1113     1.0  0.67693  0.32369  0.50165  1.0000
  H   H1774     1.0  0.64635  0.29972  0.49559  1.0000
  H   H1775     1.0  0.66533  0.29033  0.50840  1.0000
  H   H1776     1.0  0.67031  0.29999  0.48322  1.0000
  H   H1777     1.0  0.64319  0.33733  0.52177  1.0000
  H   H1778     1.0  0.63030  0.32173  0.51800  1.0000
  H   H1779     1.0  0.64931  0.31202  0.53067  1.0000
  H   H1780     1.0  0.64987  0.35069  0.48667  1.0000
  H   H1781     1.0  0.63710  0.33467  0.48347  1.0000
  H   H1782     1.0  0.66101  0.33471  0.47070  1.0000
  H   H1783     1.0  0.67590  0.33808  0.50443  1.0000
  H   H1784     1.0  0.68760  0.32235  0.48828  1.0000
  H   H1785     1.0  0.68256  0.31286  0.51351  1.0000
  C   C1114     1.0  0.72818  0.21035  0.63805  1.0000
  C   C1115     1.0  0.73677  0.03945  0.33103  1.0000
  H   H1786     1.0  0.58557  0.38288  0.35495  1.0000
  H   H1787     1.0  0.68104  0.27899  0.63515  1.0000
  H   H1788     1.0  0.58503  0.39202  0.39257  1.0000
  H   H1789     1.0  0.56320  0.40945  0.39376  1.0000
  H   H1790     1.0  0.62611  0.43029  0.61937  1.0000
  C   C1116     1.0  0.62104  0.31420  0.63738  1.0000
  C   C1117     1.0  0.66958  0.10085  0.32439  1.0000
  S   S450      1.0  0.72733  0.22518  0.61556  1.0000
  H   H1791     1.0  0.49710  0.31753  0.38990  1.0000
  H   H1792     1.0  0.69259  0.10828  0.34271  1.0000
  C   C1118     1.0  0.73436  0.32828  0.57292  1.0000
  H   H1793     1.0  0.68686  0.99326  0.63926  1.0000
  C   C1119     1.0  0.72787  0.31129  0.54655  1.0000
  H   H1794     1.0  0.66117  0.10435  0.31312  1.0000
  H   H1795     1.0  0.71418  0.28198  0.57874  1.0000
  H   H1796     1.0  0.50337  0.31998  0.34735  1.0000
  C   C1120     1.0  0.70350  0.27509  0.59003  1.0000
  H   H1797     1.0  0.60741  0.40067  0.63075  1.0000
  C   C1121     1.0  0.52045  0.31535  0.63991  1.0000
  H   H1798     1.0  0.73888  0.16485  0.47997  1.0000
  H   H1799     1.0  0.59601  0.37225  0.62955  1.0000
  H   H1800     1.0  0.66998  0.08547  0.33151  1.0000
  H   H1801     1.0  0.73306  0.16055  0.51506  1.0000
  H   H1802     1.0  0.60523  0.43641  0.30927  1.0000
  C   C1122     1.0  0.74081  0.05189  0.34013  1.0000
  N   N110      1.0  0.68893  0.10455  0.31631  1.0000
  H   H1803     1.0  0.67988  0.13461  0.31686  1.0000
  H   H1804     1.0  0.73690  0.33496  0.58304  1.0000
  H   H1805     1.0  0.73825  0.20661  0.36819  1.0000
  H   H1806     1.0  0.70003  0.07692  0.30885  1.0000
  S   S451      1.0  0.62498  0.00360  0.81587  1.0000
  Fe  Fe222     1.0  0.54913  0.36838  0.69937  1.0000
  S   S452      1.0  0.57100  0.34104  0.69990  1.0000
  S   S453      1.0  0.55856  0.39625  0.68463  1.0000
  Fe  Fe223     1.0  0.55046  0.33121  0.68927  1.0000
  C   C1123     1.0  0.58258  0.31524  0.65428  1.0000
  Fe  Fe224     1.0  0.55381  0.33104  0.72882  1.0000
  S   S454      1.0  0.72961  0.17183  0.69676  1.0000
  S   S455      1.0  0.52949  0.35916  0.68680  1.0000
  Fe  Fe225     1.0  0.67099  0.43838  0.71045  1.0000
  S   S456      1.0  0.68049  0.45264  0.68004  1.0000
  S   S457      1.0  0.68638  0.42771  0.73476  1.0000
  Fe  Fe226     1.0  0.63212  0.43816  0.70523  1.0000
  S   S458      1.0  0.63753  0.45298  0.67441  1.0000
  S   S459      1.0  0.60738  0.42594  0.72441  1.0000
  Fe  Fe227     1.0  0.66607  0.43306  0.67274  1.0000
  C   C1124     1.0  0.68682  0.98903  0.73403  1.0000
  C   C1125     1.0  0.49755  0.24009  0.77599  1.0000
  N   N111      1.0  0.50610  0.32747  0.65197  1.0000
  S   S460      1.0  0.65963  0.41684  0.70275  1.0000
  S   S461      1.0  0.64304  0.45888  0.71475  1.0000
  Fe  Fe228     1.0  0.53489  0.21093  0.86640  1.0000
  S   S462      1.0  0.55022  0.18480  0.88393  1.0000
  H   H1807     1.0  0.63865  0.09153  0.78482  1.0000
  S   S463      1.0  0.54941  0.23404  0.84678  1.0000
  Fe  Fe229     1.0  0.62360  0.24686  0.91389  1.0000
  S   S464      1.0  0.65052  0.22697  0.90343  1.0000
  S   S465      1.0  0.60738  0.27215  0.89607  1.0000
  Fe  Fe230     1.0  0.52890  0.23652  0.82851  1.0000
  C   C1126     1.0  0.54430  0.26077  0.78531  1.0000
  Fe  Fe231     1.0  0.66172  0.23319  0.92607  1.0000
  S   S466      1.0  0.69083  0.23881  0.92366  1.0000
  Fe  Fe232     1.0  0.62558  0.10840  0.84183  1.0000
  S   S467      1.0  0.63981  0.09572  0.86685  1.0000
  S   S468      1.0  0.59492  0.11916  0.84031  1.0000
  Fe  Fe233     1.0  0.66250  0.10304  0.81272  1.0000
  S   S469      1.0  0.68002  0.09029  0.83486  1.0000
  S   S470      1.0  0.67300  0.10749  0.78116  1.0000
  Fe  Fe234     1.0  0.65700  0.07365  0.84966  1.0000
  S   S471      1.0  0.66500  0.04126  0.85757  1.0000
  Fe  Fe235     1.0  0.66148  0.11356  0.84972  1.0000
  S   S472      1.0  0.67551  0.13347  0.85729  1.0000
  S   S473      1.0  0.64084  0.08504  0.82633  1.0000
  S   S474      1.0  0.64585  0.12766  0.82605  1.0000
  C   C1127     1.0  0.61587  0.18285  0.86577  1.0000
  H   H1808     1.0  0.50853  0.18966  0.88983  1.0000
  N   N112      1.0  0.61048  0.37346  0.65051  1.0000
  Fe  Fe236     1.0  0.73631  0.47743  0.77909  1.0000
  S   S475      1.0  0.69707  0.31898  0.93492  1.0000
  S   S476      1.0  0.50630  0.25830  0.84189  1.0000
  H   H1809     1.0  0.58598  0.39595  0.73788  1.0000
  H   H1810     1.0  0.60590  0.18125  0.90327  1.0000
  H   H1811     1.0  0.56698  0.38393  0.72243  1.0000
  H   H1812     1.0  0.58349  0.26083  0.93298  1.0000
  H   H1813     1.0  0.59866  0.21813  0.84962  1.0000
  H   H1814     1.0  0.65197  0.05137  0.80740  1.0000
  C   C1128     1.0  0.69771  0.10277  0.77337  1.0000
  C   C1129     1.0  0.70955  0.08832  0.78391  1.0000
  C   C1130     1.0  0.72930  0.08472  0.77696  1.0000
  C   C1131     1.0  0.51012  0.16376  0.86967  1.0000
  Fe  Fe237     1.0  0.49549  0.23278  0.86129  1.0000
  C   C1132     1.0  0.70562  0.11384  0.75624  1.0000
  H   H1815     1.0  0.70348  0.07970  0.79718  1.0000
  S   S477      1.0  0.56495  0.31641  0.75548  1.0000
  C   C1133     1.0  0.59170  0.21181  0.86426  1.0000
  H   H1816     1.0  0.69654  0.12522  0.74818  1.0000
  C   C1134     1.0  0.65388  0.03062  0.84615  1.0000
  C   C1135     1.0  0.66410  0.01483  0.83819  1.0000
  C   C1136     1.0  0.65526  0.00615  0.82916  1.0000
  C   C1137     1.0  0.63622  0.01342  0.82791  1.0000
  C   C1138     1.0  0.62608  0.02930  0.83572  1.0000
  C   C1139     1.0  0.63483  0.03779  0.84494  1.0000
  H   H1817     1.0  0.67893  0.00952  0.83876  1.0000
  H   H1818     1.0  0.69777  0.21551  0.64744  1.0000
  H   H1819     1.0  0.61135  0.03500  0.83477  1.0000
  H   H1820     1.0  0.62678  0.04984  0.85124  1.0000
  C   C1140     1.0  0.69163  0.26074  0.92837  1.0000
  C   C1141     1.0  0.70753  0.26223  0.93420  1.0000
  C   C1142     1.0  0.70921  0.27992  0.93663  1.0000
  C   C1143     1.0  0.69494  0.29625  0.93331  1.0000
  C   C1144     1.0  0.67882  0.29464  0.92799  1.0000
  C   C1145     1.0  0.67724  0.27700  0.92537  1.0000
  H   H1821     1.0  0.71866  0.24967  0.93666  1.0000
  H   H1822     1.0  0.72156  0.28087  0.94100  1.0000
  H   H1823     1.0  0.58138  0.20395  0.86294  1.0000
  H   H1824     1.0  0.66518  0.27622  0.92036  1.0000
  C   C1146     1.0  0.64623  0.16396  0.90652  1.0000
  C   C1147     1.0  0.66124  0.17044  0.89274  1.0000
  C   C1148     1.0  0.67017  0.16089  0.87776  1.0000
  C   C1149     1.0  0.66398  0.14501  0.87632  1.0000
  C   C1150     1.0  0.64887  0.13864  0.89002  1.0000
  C   C1151     1.0  0.64014  0.14800  0.90515  1.0000
  H   H1825     1.0  0.68193  0.16582  0.86727  1.0000
  H   H1826     1.0  0.64405  0.12636  0.88909  1.0000
  H   H1827     1.0  0.62854  0.14290  0.91580  1.0000
  C   C1152     1.0  0.55237  0.27561  0.87766  1.0000
  C   C1153     1.0  0.55983  0.29188  0.87491  1.0000
  C   C1154     1.0  0.57676  0.29035  0.88051  1.0000
  C   C1155     1.0  0.58624  0.27262  0.88939  1.0000
  C   C1156     1.0  0.57861  0.25624  0.89274  1.0000
  C   C1157     1.0  0.56175  0.25770  0.88662  1.0000
  C   C1158     1.0  0.70760  0.47434  0.73060  1.0000
  H   H1828     1.0  0.58254  0.30305  0.87789  1.0000
  H   H1829     1.0  0.58564  0.24256  0.89996  1.0000
  H   H1830     1.0  0.55577  0.24515  0.88914  1.0000
  C   C1159     1.0  0.56385  0.16744  0.87111  1.0000
  C   C1160     1.0  0.56199  0.16880  0.85263  1.0000
  C   C1161     1.0  0.57169  0.15393  0.84316  1.0000
  C   C1162     1.0  0.58395  0.13817  0.85181  1.0000
  C   C1163     1.0  0.58656  0.13730  0.86993  1.0000
  C   C1164     1.0  0.57622  0.15177  0.87972  1.0000
  H   H1831     1.0  0.55274  0.18103  0.84575  1.0000
  H   H1832     1.0  0.56979  0.15465  0.82908  1.0000
  H   H1833     1.0  0.59598  0.12508  0.87666  1.0000
  H   H1834     1.0  0.57771  0.15068  0.89404  1.0000
  C   C1165     1.0  0.69660  0.44435  0.73964  1.0000
  C   C1166     1.0  0.70316  0.43993  0.75659  1.0000
  C   C1167     1.0  0.69858  0.46171  0.72676  1.0000
  H   H1835     1.0  0.70157  0.42655  0.76663  1.0000
  H   H1836     1.0  0.69350  0.46523  0.71367  1.0000
  C   C1168     1.0  0.52258  0.33623  0.78567  1.0000
  H   H1837     1.0  0.58520  0.18322  0.89443  1.0000
  H   H1838     1.0  0.70866  0.16617  0.77317  1.0000
  H   H1839     1.0  0.64072  0.37145  0.64367  1.0000
  H   H1840     1.0  0.49996  0.35648  0.76118  1.0000
  S   S478      1.0  0.53370  0.35946  0.72938  1.0000
  S   S479      1.0  0.53455  0.24043  0.79688  1.0000
  C   C1169     1.0  0.50484  0.31765  0.67218  1.0000
  H   H1841     1.0  0.69279  0.00168  0.65706  1.0000
  C   C1170     1.0  0.72465  0.40365  0.87153  1.0000
  H   H1842     1.0  0.51947  0.32396  0.75675  1.0000
  H   H1843     1.0  0.62676  0.17301  0.87349  1.0000
  C   C1171     1.0  0.55836  0.29424  0.76658  1.0000
  H   H1844     1.0  0.60597  0.17415  0.86510  1.0000
  C   C1172     1.0  0.71168  0.14187  0.81828  1.0000
  H   H1845     1.0  0.72353  0.16817  0.78775  1.0000
  C   C1173     1.0  0.54923  0.27129  0.79569  1.0000
  C   C1174     1.0  0.55651  0.28785  0.78629  1.0000
  H   H1846     1.0  0.54750  0.26667  0.81095  1.0000
  H   H1847     1.0  0.56036  0.29591  0.79437  1.0000
  H   H1848     1.0  0.69872  0.19483  0.67953  1.0000
  H   H1849     1.0  0.50571  0.25148  0.77370  1.0000
  C   C1175     1.0  0.57565  0.26271  0.94747  1.0000
  N   N113      1.0  0.49912  0.16478  0.88908  1.0000
  S   S480      1.0  0.55838  0.31695  0.66457  1.0000
  H   H1850     1.0  0.71682  0.44923  0.77374  1.0000
  H   H1851     1.0  0.62566  0.30707  0.66599  1.0000
  H   H1852     1.0  0.59159  0.30811  0.68095  1.0000
  C   C1176     1.0  0.57241  0.40402  0.69578  1.0000
  C   C1177     1.0  0.58184  0.41899  0.68565  1.0000
  C   C1178     1.0  0.59312  0.42534  0.69415  1.0000
  C   C1179     1.0  0.59450  0.41718  0.71305  1.0000
  C   C1180     1.0  0.58497  0.40229  0.72325  1.0000
  C   C1181     1.0  0.57419  0.39550  0.71453  1.0000
  H   H1853     1.0  0.58029  0.42583  0.67124  1.0000
  H   H1854     1.0  0.60023  0.43697  0.68627  1.0000
  N   N114      1.0  0.63390  0.41863  0.76997  1.0000
  C   C1182     1.0  0.61508  0.43040  0.76723  1.0000
  C   C1183     1.0  0.64600  0.43103  0.77135  1.0000
  C   C1184     1.0  0.64293  0.40945  0.75362  1.0000
  C   C1185     1.0  0.63164  0.40363  0.78755  1.0000
  H   H1855     1.0  0.60569  0.42152  0.76585  1.0000
  H   H1856     1.0  0.61632  0.44173  0.75393  1.0000
  H   H1857     1.0  0.60775  0.43761  0.77925  1.0000
  H   H1858     1.0  0.64810  0.44240  0.75818  1.0000
  H   H1859     1.0  0.63971  0.43824  0.78352  1.0000
  H   H1860     1.0  0.66042  0.42264  0.77313  1.0000
  H   H1861     1.0  0.65730  0.40061  0.75492  1.0000
  H   H1862     1.0  0.64477  0.42045  0.74026  1.0000
  H   H1863     1.0  0.63414  0.40018  0.75183  1.0000
  H   H1864     1.0  0.64562  0.39449  0.78993  1.0000
  H   H1865     1.0  0.62263  0.39403  0.78685  1.0000
  H   H1866     1.0  0.62485  0.41003  0.80022  1.0000
  H   H1867     1.0  0.59147  0.40035  0.65338  1.0000
  H   H1868     1.0  0.51372  0.14886  0.86733  1.0000
  H   H1869     1.0  0.62982  0.20056  0.88502  1.0000
  S   S481      1.0  0.71983  0.43460  0.84211  1.0000
  S   S482      1.0  0.63420  0.17575  0.92529  1.0000
  Fe  Fe238     1.0  0.65145  0.47166  0.68372  1.0000
  H   H1870     1.0  0.59569  0.37122  0.67960  1.0000
  H   H1871     1.0  0.51922  0.34634  0.79532  1.0000
  C   C1186     1.0  0.72193  0.29615  0.88718  1.0000
  H   H1872     1.0  0.54953  0.29364  0.93684  1.0000
  C   C1187     1.0  0.73720  0.09585  0.75974  1.0000
  H   H1873     1.0  0.59259  0.30087  0.94853  1.0000
  H   H1874     1.0  0.50141  0.35541  0.65807  1.0000
  C   C1188     1.0  0.73123  0.42017  0.86055  1.0000
  S   S483      1.0  0.53530  0.31859  0.71811  1.0000
  C   C1189     1.0  0.73307  0.39212  0.88667  1.0000
  C   C1190     1.0  0.51169  0.34605  0.64889  1.0000
  C   C1191     1.0  0.61943  0.20973  0.87629  1.0000
  C   C1192     1.0  0.60987  0.36606  0.67107  1.0000
  H   H1875     1.0  0.50702  0.22616  0.78080  1.0000
  H   H1876     1.0  0.70017  0.15196  0.82573  1.0000
  H   H1877     1.0  0.73845  0.07337  0.78495  1.0000
  H   H1878     1.0  0.66773  0.30720  0.92535  1.0000
  H   H1879     1.0  0.62049  0.37090  0.67580  1.0000
  H   H1880     1.0  0.72376  0.98794  0.66666  1.0000
  C   C1193     1.0  0.55375  0.28350  0.75620  1.0000
  H   H1881     1.0  0.56147  0.25926  0.94958  1.0000
  H   H1882     1.0  0.51861  0.31519  0.67658  1.0000
  Fe  Fe239     1.0  0.62531  0.23067  0.95561  1.0000
  H   H1883     1.0  0.61603  0.40037  0.65124  1.0000
  H   H1884     1.0  0.58814  0.20299  0.90233  1.0000
  C   C1194     1.0  0.56343  0.28432  0.96898  1.0000
  H   H1885     1.0  0.51868  0.30408  0.77665  1.0000
  H   H1886     1.0  0.73389  0.26055  0.88052  1.0000
  H   H1887     1.0  0.71285  0.39989  0.86845  1.0000
  H   H1888     1.0  0.52375  0.16852  0.86702  1.0000
  H   H1889     1.0  0.50256  0.15250  0.91786  1.0000
  H   H1890     1.0  0.57182  0.29512  0.92062  1.0000
  C   C1195     1.0  0.69878  0.99614  0.64376  1.0000
  H   H1891     1.0  0.61218  0.22226  0.88292  1.0000
  N   N115      1.0  0.70977  0.14407  0.79855  1.0000
  H   H1892     1.0  0.51362  0.13683  0.90151  1.0000
  H   H1893     1.0  0.64856  0.99004  0.87183  1.0000
  H   H1894     1.0  0.71073  0.12710  0.82677  1.0000
  H   H1895     1.0  0.72076  0.30685  0.89572  1.0000
  C   C1196     1.0  0.69160  0.13936  0.79876  1.0000
  C   C1197     1.0  0.59602  0.31103  0.66564  1.0000
  H   H1896     1.0  0.50212  0.17306  0.85871  1.0000
  H   H1897     1.0  0.72546  0.14470  0.81880  1.0000
  H   H1898     1.0  0.68466  0.00305  0.73707  1.0000
  H   H1899     1.0  0.63326  0.35056  0.64240  1.0000
  C   C1198     1.0  0.51047  0.31822  0.77046  1.0000
  H   H1900     1.0  0.62757  0.21525  0.86195  1.0000
  H   H1901     1.0  0.53470  0.31240  0.64343  1.0000
  N   N116      1.0  0.50523  0.33162  0.78344  1.0000
  H   H1902     1.0  0.62327  0.18804  0.85098  1.0000
  C   C1199     1.0  0.71185  0.45273  0.76060  1.0000
  Fe  Fe240     1.0  0.51612  0.34752  0.71690  1.0000
  Fe  Fe241     1.0  0.63846  0.20443  0.92707  1.0000
  H   H1903     1.0  0.52588  0.34397  0.65229  1.0000
  C   C1200     1.0  0.65799  0.06939  0.75990  1.0000
  C   C1201     1.0  0.59580  0.19129  0.89466  1.0000
  H   H1904     1.0  0.55590  0.28787  0.74093  1.0000
  S   S484      1.0  0.51249  0.23048  0.88289  1.0000
  H   H1905     1.0  0.72491  0.13258  0.77401  1.0000
  H   H1906     1.0  0.58342  0.22388  0.87118  1.0000
  S   S485      1.0  0.61079  0.22413  0.93595  1.0000
  C   C1202     1.0  0.59321  0.28622  0.94677  1.0000
  N   N117      1.0  0.64695  0.06310  0.77916  1.0000
  C   C1203     1.0  0.65985  0.05600  0.79271  1.0000
  C   C1204     1.0  0.63775  0.04753  0.77934  1.0000
  C   C1205     1.0  0.63223  0.07952  0.78472  1.0000
  H   H1907     1.0  0.67097  0.04344  0.78915  1.0000
  H   H1908     1.0  0.66711  0.06734  0.79292  1.0000
  H   H1909     1.0  0.62890  0.04288  0.79360  1.0000
  H   H1910     1.0  0.64837  0.03458  0.77589  1.0000
  H   H1911     1.0  0.62824  0.05217  0.76897  1.0000
  H   H1912     1.0  0.62359  0.07531  0.79921  1.0000
  H   H1913     1.0  0.62228  0.08529  0.77476  1.0000
  S   S486      1.0  0.71525  0.99997  0.70461  1.0000
  H   H1914     1.0  0.54328  0.25850  0.75742  1.0000
  C   C1206     1.0  0.51030  0.15200  0.90302  1.0000
  S   S487      1.0  0.65186  0.20886  0.94897  1.0000
  C   C1207     1.0  0.49513  0.32253  0.80218  1.0000
  H   H1915     1.0  0.71274  0.28589  0.89585  1.0000
  H   H1916     1.0  0.68940  0.14122  0.78412  1.0000
  H   H1917     1.0  0.60135  0.27578  0.95714  1.0000
  H   H1918     1.0  0.72765  0.37960  0.89522  1.0000
  H   H1919     1.0  0.64036  0.25603  0.97029  1.0000
  Fe  Fe242     1.0  0.73374  0.45754  0.82085  1.0000
  H   H1920     1.0  0.66324  0.99413  0.82282  1.0000
  C   C1208     1.0  0.61529  0.31029  0.65719  1.0000
  C   C1209     1.0  0.72922  0.18655  0.67412  1.0000
  H   H1921     1.0  0.49494  0.24004  0.76200  1.0000
  C   C1210     1.0  0.71182  0.19647  0.66934  1.0000
  H   H1922     1.0  0.56240  0.31131  0.93654  1.0000
  S   S488      1.0  0.51682  0.21118  0.84654  1.0000
  N   N118      1.0  0.60571  0.19892  0.87524  1.0000
  H   H1923     1.0  0.64271  0.43386  0.64265  1.0000
  C   C1211     1.0  0.59618  0.36664  0.64491  1.0000
  C   C1212     1.0  0.72530  0.11065  0.74967  1.0000
  H   H1924     1.0  0.67929  0.14856  0.80640  1.0000
  H   H1925     1.0  0.64871  0.07501  0.74928  1.0000
  H   H1926     1.0  0.66919  0.05736  0.75520  1.0000
  Fe  Fe243     1.0  0.72593  0.32441  0.93322  1.0000
  S   S489      1.0  0.72953  0.34472  0.94921  1.0000
  C   C1213     1.0  0.54676  0.26678  0.76554  1.0000
  H   H1927     1.0  0.60152  0.28512  0.93220  1.0000
  H   H1928     1.0  0.52411  0.15627  0.90106  1.0000
  C   C1214     1.0  0.71005  0.16409  0.78814  1.0000
  C   C1215     1.0  0.72569  0.13095  0.78904  1.0000
  H   H1929     1.0  0.71578  0.30393  0.87449  1.0000
  H   H1930     1.0  0.66511  0.08112  0.75945  1.0000
  C   C1216     1.0  0.71436  0.46981  0.74745  1.0000
  C   C1217     1.0  0.60619  0.39466  0.64629  1.0000
  H   H1931     1.0  0.73119  0.12006  0.73704  1.0000
  Fe  Fe244     1.0  0.52572  0.25370  0.86196  1.0000
  C   C1218     1.0  0.71128  0.20815  0.65121  1.0000
  S   S490      1.0  0.53097  0.27862  0.87027  1.0000
  H   H1932     1.0  0.55264  0.30573  0.86810  1.0000
  H   H1933     1.0  0.69811  0.17434  0.79491  1.0000
  H   H1934     1.0  0.59912  0.35073  0.64754  1.0000
  H   H1935     1.0  0.72560  0.11567  0.79623  1.0000
  H   H1936     1.0  0.61278  0.35008  0.67473  1.0000
  N   N119      1.0  0.57403  0.28241  0.94964  1.0000
  S   S491      1.0  0.63594  0.25504  0.93421  1.0000
  H   H1937     1.0  0.66610  0.18266  0.89374  1.0000
  H   H1938     1.0  0.51670  0.30123  0.64183  1.0000
  C   C1219     1.0  0.49278  0.34945  0.77543  1.0000
  H   H1939     1.0  0.73968  0.13377  0.78894  1.0000
  H   H1940     1.0  0.58336  0.25186  0.95792  1.0000
  H   H1941     1.0  0.73665  0.27778  0.85840  1.0000
  H   H1942     1.0  0.49202  0.25366  0.80737  1.0000
  H   H1943     1.0  0.53072  0.34292  0.77178  1.0000
  S   S492      1.0  0.68083  0.41652  0.64968  1.0000
  C   C1220     1.0  0.49515  0.18471  0.89165  1.0000
  H   H1944     1.0  0.66641  0.99740  0.87876  1.0000
  C   C1221     1.0  0.56396  0.29626  0.93534  1.0000
  H   H1945     1.0  0.69110  0.12420  0.80605  1.0000
  H   H1946     1.0  0.58163  0.37135  0.65309  1.0000
  H   H1947     1.0  0.73695  0.04049  0.71369  1.0000
  H   H1948     1.0  0.64873  0.98649  0.89654  1.0000
  H   H1949     1.0  0.72993  0.05574  0.74201  1.0000
  H   H1950     1.0  0.50094  0.30346  0.67502  1.0000
  H   H1951     1.0  0.49396  0.32629  0.68166  1.0000
  C   C1222     1.0  0.65799  0.98598  0.88226  1.0000
  H   H1952     1.0  0.49776  0.31571  0.76707  1.0000
  H   H1953     1.0  0.49287  0.22840  0.81385  1.0000
  H   H1954     1.0  0.53235  0.32310  0.79157  1.0000
  H   H1955     1.0  0.71357  0.30490  0.97125  1.0000
  H   H1956     1.0  0.73545  0.99473  0.64226  1.0000
  H   H1957     1.0  0.67661  0.48211  0.64528  1.0000
  H   H1958     1.0  0.50428  0.30910  0.80862  1.0000
  S   S493      1.0  0.71700  0.48461  0.80572  1.0000
  H   H1959     1.0  0.54890  0.28148  0.97169  1.0000
  H   H1960     1.0  0.56202  0.29898  0.97121  1.0000
  Fe  Fe245     1.0  0.63116  0.89359  0.09896  1.0000
  S   S494      1.0  0.62327  0.86772  0.12028  1.0000
  S   S495      1.0  0.62303  0.92123  0.10930  1.0000
  Fe  Fe246     1.0  0.64522  0.87197  0.06678  1.0000
  S   S496      1.0  0.63865  0.84435  0.08581  1.0000
  S   S497      1.0  0.65824  0.87333  0.03562  1.0000
  Fe  Fe247     1.0  0.61160  0.86291  0.09767  1.0000
  S   S498      1.0  0.58348  0.85460  0.10333  1.0000
  Fe  Fe248     1.0  0.65100  0.85191  0.10654  1.0000
  S   S499      1.0  0.66799  0.82955  0.12599  1.0000
  S   S500      1.0  0.61711  0.89011  0.07721  1.0000
  S   S501      1.0  0.66007  0.87813  0.08664  1.0000
  C   C1223     1.0  0.73669  0.68873  0.13844  1.0000
  H   H1961     1.0  0.72344  0.55026  0.30349  1.0000
  H   H1962     1.0  0.57640  0.89524  0.14745  1.0000
  S   S502      1.0  0.67267  0.96025  0.19921  1.0000
  C   C1224     1.0  0.59006  0.92549  0.28827  1.0000
  S   S503      1.0  0.62267  0.83227  0.99260  1.0000
  H   H1963     1.0  0.59135  0.69447  0.28444  1.0000
  H   H1964     1.0  0.60214  0.92751  0.24070  1.0000
  Fe  Fe249     1.0  0.54231  0.84796  0.20296  1.0000
  S   S504      1.0  0.53130  0.87658  0.18578  1.0000
  S   S505      1.0  0.55056  0.82277  0.18928  1.0000
  C   C1225     1.0  0.63064  0.55794  0.29951  1.0000
  H   H1965     1.0  0.69168  0.84223  0.02803  1.0000
  Fe  Fe250     1.0  0.54687  0.88825  0.20066  1.0000
  S   S506      1.0  0.56680  0.90754  0.18244  1.0000
  S   S507      1.0  0.51747  0.84893  0.22725  1.0000
  S   S508      1.0  0.56018  0.85919  0.21563  1.0000
  Fe  Fe251     1.0  0.65524  0.94765  0.18699  1.0000
  S   S509      1.0  0.63671  0.93865  0.21521  1.0000
  S   S510      1.0  0.66770  0.92516  0.16929  1.0000
  H   H1966     1.0  0.59124  0.95925  0.26318  1.0000
  Fe  Fe252     1.0  0.65197  0.95397  0.22671  1.0000
  S   S511      1.0  0.65658  0.94400  0.25670  1.0000
  Fe  Fe253     1.0  0.61809  0.96737  0.20789  1.0000
  S   S512      1.0  0.58680  0.96787  0.21670  1.0000
  H   H1967     1.0  0.55809  0.70355  0.30120  1.0000
  H   H1968     1.0  0.62833  0.91800  0.27950  1.0000
  S   S513      1.0  0.55956  0.76394  0.28846  1.0000
  C   C1226     1.0  0.67839  0.94690  0.25934  1.0000
  H   H1969     1.0  0.56499  0.79150  0.25363  1.0000
  H   H1970     1.0  0.54899  0.91084  0.10901  1.0000
  C   C1227     1.0  0.71263  0.95333  0.26331  1.0000
  C   C1228     1.0  0.71098  0.95046  0.24604  1.0000
  C   C1229     1.0  0.69391  0.94728  0.24405  1.0000
  H   H1971     1.0  0.72076  0.80715  0.06094  1.0000
  H   H1972     1.0  0.59083  0.91032  0.25904  1.0000
  H   H1973     1.0  0.63070  0.91767  0.25521  1.0000
  H   H1974     1.0  0.69284  0.94498  0.23071  1.0000
  C   C1230     1.0  0.57207  0.92404  0.19252  1.0000
  C   C1231     1.0  0.58791  0.93229  0.18334  1.0000
  C   C1232     1.0  0.59262  0.94543  0.19098  1.0000
  C   C1233     1.0  0.58108  0.95102  0.20742  1.0000
  C   C1234     1.0  0.56504  0.94303  0.21648  1.0000
  C   C1235     1.0  0.56070  0.92931  0.20921  1.0000
  H   H1975     1.0  0.59662  0.92849  0.17031  1.0000
  H   H1976     1.0  0.60499  0.95154  0.18389  1.0000
  H   H1977     1.0  0.55600  0.94735  0.22917  1.0000
  H   H1978     1.0  0.54836  0.92310  0.21629  1.0000
  H   H1979     1.0  0.53841  0.93452  0.13025  1.0000
  H   H1980     1.0  0.72820  0.84581  0.08807  1.0000
  H   H1981     1.0  0.70436  0.81871  0.02474  1.0000
  H   H1982     1.0  0.64633  0.67424  0.22377  1.0000
  C   C1236     1.0  0.50426  0.82443  0.17373  1.0000
  C   C1237     1.0  0.72022  0.80051  0.10633  1.0000
  C   C1238     1.0  0.69207  0.82417  0.11537  1.0000
  C   C1239     1.0  0.70179  0.83889  0.10536  1.0000
  H   H1983     1.0  0.55449  0.93637  0.14370  1.0000
  C   C1240     1.0  0.70139  0.80499  0.11611  1.0000
  H   H1984     1.0  0.69465  0.85373  0.10483  1.0000
  H   H1985     1.0  0.53487  0.82685  0.30538  1.0000
  H   H1986     1.0  0.69387  0.79359  0.12381  1.0000
  C   C1241     1.0  0.57608  0.84466  0.12738  1.0000
  C   C1242     1.0  0.57764  0.85324  0.14133  1.0000
  C   C1243     1.0  0.57017  0.84626  0.16049  1.0000
  C   C1244     1.0  0.56173  0.83025  0.16572  1.0000
  C   C1245     1.0  0.56089  0.82115  0.15185  1.0000
  C   C1246     1.0  0.56769  0.82862  0.13263  1.0000
  H   H1987     1.0  0.58413  0.86555  0.13728  1.0000
  H   H1988     1.0  0.57092  0.85323  0.17122  1.0000
  H   H1989     1.0  0.55454  0.80865  0.15591  1.0000
  H   H1990     1.0  0.56665  0.82188  0.12182  1.0000
  C   C1247     1.0  0.63573  0.92240  0.12565  1.0000
  C   C1248     1.0  0.65252  0.90915  0.12837  1.0000
  C   C1249     1.0  0.66227  0.91018  0.14173  1.0000
  C   C1250     1.0  0.65528  0.92444  0.15245  1.0000
  C   C1251     1.0  0.63844  0.93761  0.14978  1.0000
  C   C1252     1.0  0.62873  0.93665  0.13636  1.0000
  H   H1991     1.0  0.65813  0.89825  0.12000  1.0000
  H   H1992     1.0  0.67535  0.90000  0.14365  1.0000
  H   H1993     1.0  0.63295  0.94861  0.15795  1.0000
  H   H1994     1.0  0.61575  0.94694  0.13432  1.0000
  C   C1253     1.0  0.64788  0.86244  0.02359  1.0000
  C   C1254     1.0  0.63298  0.85298  0.03326  1.0000
  C   C1255     1.0  0.62541  0.84375  0.02361  1.0000
  C   C1256     1.0  0.63246  0.84414  0.00418  1.0000
  C   C1257     1.0  0.64726  0.85374  0.99446  1.0000
  C   C1258     1.0  0.65502  0.86276  0.00418  1.0000
  H   H1995     1.0  0.62723  0.85279  0.04816  1.0000
  H   H1996     1.0  0.61392  0.83642  0.03119  1.0000
  H   H1997     1.0  0.67131  0.67418  0.21654  1.0000
  H   H1998     1.0  0.66650  0.87009  0.99660  1.0000
  H   H1999     1.0  0.50879  0.85115  0.12859  1.0000
  C   C1259     1.0  0.58405  0.68348  0.29381  1.0000
  C   C1260     1.0  0.72554  0.64466  0.24875  1.0000
  C   C1261     1.0  0.71049  0.65446  0.26057  1.0000
  S   S514      1.0  0.63186  0.98227  0.22148  1.0000
  S   S515      1.0  0.65355  0.61204  0.30641  1.0000
  H   H2000     1.0  0.57587  0.93526  0.28860  1.0000
  H   H2001     1.0  0.58597  0.92495  0.09861  1.0000
  H   H2002     1.0  0.74091  0.66220  0.15914  1.0000
  H   H2003     1.0  0.50327  0.82886  0.29030  1.0000
  C   C1262     1.0  0.60498  0.94881  0.26365  1.0000
  H   H2004     1.0  0.66822  0.94897  0.28868  1.0000
  H   H2005     1.0  0.70515  0.48771  0.19025  1.0000
  H   H2006     1.0  0.70456  0.51083  0.19402  1.0000
  H   H2007     1.0  0.72710  0.69667  0.14863  1.0000
  H   H2008     1.0  0.58659  0.91621  0.14099  1.0000
  C   C1263     1.0  0.55015  0.92631  0.13764  1.0000
  C   C1264     1.0  0.54667  0.79902  0.29842  1.0000
  N   N120      1.0  0.50099  0.84212  0.15896  1.0000
  C   C1265     1.0  0.51085  0.83810  0.14008  1.0000
  H   H2009     1.0  0.71519  0.83341  0.03275  1.0000
  H   H2010     1.0  0.50560  0.80500  0.30488  1.0000
  C   C1266     1.0  0.59361  0.66428  0.29692  1.0000
  N   N121      1.0  0.66371  0.65238  0.24107  1.0000
  H   H2011     1.0  0.57930  0.93525  0.25451  1.0000
  H   H2012     1.0  0.61415  0.95172  0.24931  1.0000
  C   C1267     1.0  0.55856  0.79919  0.26497  1.0000
  H   H2013     1.0  0.50689  0.79751  0.25730  1.0000
  H   H2014     1.0  0.51923  0.79101  0.27650  1.0000
  H   H2015     1.0  0.65070  0.63040  0.23891  1.0000
  H   H2016     1.0  0.66487  0.82858  0.04953  1.0000
  H   H2017     1.0  0.70445  0.66937  0.25543  1.0000
  C   C1268     1.0  0.70322  0.64499  0.27899  1.0000
  H   H2018     1.0  0.68038  0.84872  0.06014  1.0000
  H   H2019     1.0  0.69403  0.64895  0.23235  1.0000
  C   C1269     1.0  0.54413  0.82920  0.27515  1.0000
  H   H2020     1.0  0.69840  0.95479  0.29213  1.0000
  Fe  Fe254     1.0  0.50736  0.87838  0.21101  1.0000
  S   S516      1.0  0.61773  0.65817  0.28651  1.0000
  H   H2021     1.0  0.59651  0.92804  0.29904  1.0000
  H   H2022     1.0  0.70125  0.79724  0.07641  1.0000
  C   C1270     1.0  0.56024  0.90339  0.11729  1.0000
  C   C1271     1.0  0.55295  0.81921  0.26063  1.0000
  C   C1272     1.0  0.66174  0.66455  0.25459  1.0000
  C   C1273     1.0  0.68439  0.50537  0.23009  1.0000
  H   H2023     1.0  0.64737  0.67401  0.25666  1.0000
  C   C1274     1.0  0.70988  0.75750  0.98606  1.0000
  H   H2024     1.0  0.55503  0.82680  0.24598  1.0000
  C   C1275     1.0  0.69720  0.95270  0.27872  1.0000
  H   H2025     1.0  0.68475  0.63023  0.22919  1.0000
  C   C1276     1.0  0.64940  0.64014  0.24846  1.0000
  C   C1277     1.0  0.62100  0.91554  0.26938  1.0000
  H   H2026     1.0  0.57922  0.94172  0.11374  1.0000
  S   S517      1.0  0.63151  0.52541  0.28796  1.0000
  H   H2027     1.0  0.69161  0.65258  0.28809  1.0000
  C   C1278     1.0  0.54151  0.81914  0.29410  1.0000
  H   H2028     1.0  0.50135  0.86049  0.17683  1.0000
  H   H2029     1.0  0.49745  0.82709  0.18819  1.0000
  C   C1279     1.0  0.68295  0.64014  0.23873  1.0000
  H   H2030     1.0  0.54439  0.91553  0.14995  1.0000
  N   N122      1.0  0.56638  0.91697  0.12470  1.0000
  H   H2031     1.0  0.66209  0.65607  0.21192  1.0000
  H   H2032     1.0  0.55457  0.89208  0.12899  1.0000
  C   C1280     1.0  0.70695  0.80367  0.06133  1.0000
  C   C1281     1.0  0.72986  0.81523  0.09616  1.0000
  H   H2033     1.0  0.57230  0.89587  0.10771  1.0000
  H   H2034     1.0  0.66880  0.80958  0.06974  1.0000
  H   H2035     1.0  0.56275  0.94023  0.10053  1.0000
  C   C1282     1.0  0.71147  0.62591  0.28584  1.0000
  H   H2036     1.0  0.68609  0.63126  0.25261  1.0000
  C   C1283     1.0  0.50849  0.85713  0.16265  1.0000
  S   S518      1.0  0.63549  0.97569  0.17865  1.0000
  C   C1284     1.0  0.56524  0.68862  0.30340  1.0000
  H   H2037     1.0  0.59391  0.89932  0.12592  1.0000
  H   H2038     1.0  0.73309  0.55651  0.18906  1.0000
  N   N123      1.0  0.62711  0.86957  0.17628  1.0000
  C   C1285     1.0  0.62518  0.88959  0.17777  1.0000
  C   C1286     1.0  0.64364  0.86468  0.16113  1.0000
  C   C1287     1.0  0.60968  0.86761  0.17166  1.0000
  C   C1288     1.0  0.62990  0.85643  0.19456  1.0000
  H   H2039     1.0  0.61287  0.89377  0.18910  1.0000
  H   H2040     1.0  0.62288  0.89986  0.16424  1.0000
  H   H2041     1.0  0.63815  0.89179  0.18098  1.0000
  H   H2042     1.0  0.65705  0.86609  0.16409  1.0000
  H   H2043     1.0  0.64554  0.84971  0.15943  1.0000
  H   H2044     1.0  0.64202  0.87434  0.14717  1.0000
  H   H2045     1.0  0.61074  0.85281  0.16995  1.0000
  H   H2046     1.0  0.60694  0.87769  0.15821  1.0000
  H   H2047     1.0  0.59696  0.87091  0.18295  1.0000
  H   H2048     1.0  0.63146  0.84121  0.19385  1.0000
  H   H2049     1.0  0.61762  0.85967  0.20628  1.0000
  H   H2050     1.0  0.64290  0.85762  0.19851  1.0000
  H   H2051     1.0  0.72716  0.78567  0.10655  1.0000
  C   C1289     1.0  0.69008  0.83531  0.06551  1.0000
  C   C1290     1.0  0.72677  0.61624  0.27417  1.0000
  N   N124      1.0  0.60233  0.92876  0.26914  1.0000
  H   H2052     1.0  0.73325  0.60150  0.27946  1.0000
  C   C1291     1.0  0.69700  0.49864  0.19874  1.0000
  H   H2053     1.0  0.65276  0.85416  0.97946  1.0000
  C   C1292     1.0  0.58148  0.90643  0.13526  1.0000
  H   H2054     1.0  0.61204  0.95194  0.27362  1.0000
  C   C1293     1.0  0.57381  0.93166  0.10869  1.0000
  H   H2055     1.0  0.67729  0.80506  0.04614  1.0000
  H   H2056     1.0  0.61962  0.90025  0.27350  1.0000
  H   H2057     1.0  0.69604  0.75465  0.99511  1.0000
  H   H2058     1.0  0.68343  0.82983  0.08051  1.0000
  N   N125      1.0  0.69350  0.82094  0.05390  1.0000
  H   H2059     1.0  0.63470  0.64897  0.24996  1.0000
  H   H2060     1.0  0.51968  0.81887  0.17360  1.0000
  C   C1294     1.0  0.50954  0.80287  0.26875  1.0000
  H   H2061     1.0  0.70349  0.83933  0.06539  1.0000
  C   C1295     1.0  0.55494  0.78905  0.28380  1.0000
  H   H2062     1.0  0.67237  0.67391  0.24955  1.0000
  H   H2063     1.0  0.68280  0.50400  0.19493  1.0000
  H   H2064     1.0  0.50630  0.87074  0.15186  1.0000
  H   H2065     1.0  0.66370  0.65570  0.26886  1.0000
  S   S519      1.0  0.53468  0.85389  0.26956  1.0000
  C   C1296     1.0  0.66072  0.66476  0.22249  1.0000
  C   C1297     1.0  0.68013  0.94937  0.27675  1.0000
  C   C1298     1.0  0.70158  0.82915  0.03396  1.0000
  H   H2066     1.0  0.72260  0.49568  0.21912  1.0000
  H   H2067     1.0  0.52641  0.83307  0.13923  1.0000
  H   H2068     1.0  0.65080  0.63114  0.26280  1.0000
  S   S520      1.0  0.52172  0.89313  0.22449  1.0000
  H   H2069     1.0  0.72293  0.95080  0.23413  1.0000
  C   C1299     1.0  0.72076  0.83440  0.09593  1.0000
  N   N126      1.0  0.69541  0.49050  0.21932  1.0000
  H   H2070     1.0  0.68964  0.58321  0.30379  1.0000
  S   S521      1.0  0.73337  0.65633  0.22528  1.0000
  C   C1300     1.0  0.59326  0.92525  0.25530  1.0000
  Fe  Fe255     1.0  0.53403  0.86309  0.23853  1.0000
  H   H2071     1.0  0.71318  0.76950  0.99018  1.0000
  C   C1301     1.0  0.63386  0.53783  0.30410  1.0000
  H   H2072     1.0  0.58776  0.91048  0.29288  1.0000
  C   C1302     1.0  0.67534  0.81576  0.05488  1.0000
  H   H2073     1.0  0.69132  0.51795  0.22620  1.0000
  H   H2074     1.0  0.68303  0.49969  0.24569  1.0000
  H   H2075     1.0  0.62717  0.56565  0.28592  1.0000
  H   H2076     1.0  0.50558  0.82676  0.13688  1.0000
  H   H2077     1.0  0.52399  0.85247  0.16248  1.0000
  Fe  Fe256     1.0  0.73482  0.96473  0.29251  1.0000
  S   S522      1.0  0.73374  0.95882  0.26474  1.0000
  H   H2078     1.0  0.66975  0.51065  0.22730  1.0000
  H   H2079     1.0  0.49845  0.81284  0.17173  1.0000
  H   H2080     1.0  0.70996  0.79243  0.05296  1.0000
  H   H2081     1.0  0.72092  0.74450  0.98967  1.0000
  H   H2082     1.0  0.69091  0.56159  0.29650  1.0000
  S   S523      1.0  0.73196  0.72250  0.11241  1.0000
  H   H2083     1.0  0.51733  0.81472  0.26179  1.0000
  C   C1303     1.0  0.73362  0.62551  0.25553  1.0000
  Fe  Fe257     1.0  0.63608  0.49307  0.29611  1.0000
  C   C1304     1.0  0.49606  0.81645  0.29657  1.0000
  N   N127      1.0  0.49171  0.80945  0.28170  1.0000
  Fe  Fe258     1.0  0.63522  0.74241  0.44320  1.0000
  S   S524      1.0  0.66652  0.73285  0.43240  1.0000
  S   S525      1.0  0.62147  0.74176  0.47418  1.0000
  Fe  Fe259     1.0  0.62626  0.75491  0.40361  1.0000
  S   S526      1.0  0.65683  0.74688  0.38979  1.0000
  S   S527      1.0  0.60649  0.76849  0.38312  1.0000
  Fe  Fe260     1.0  0.65731  0.72025  0.41276  1.0000
  S   S528      1.0  0.67311  0.69271  0.40348  1.0000
  Fe  Fe261     1.0  0.66312  0.76026  0.41043  1.0000
  S   S529      1.0  0.68348  0.78051  0.39978  1.0000
  S   S530      1.0  0.62618  0.72734  0.42545  1.0000
  S   S531      1.0  0.63243  0.77078  0.42239  1.0000
  S   S532      1.0  0.66728  0.76418  0.52253  1.0000
  H   H2084     1.0  0.55785  0.64426  0.32773  1.0000
  Fe  Fe262     1.0  0.63812  0.63860  0.34815  1.0000
  H   H2085     1.0  0.73479  0.78977  0.49330  1.0000
  S   S533      1.0  0.62432  0.65532  0.37114  1.0000
  Fe  Fe263     1.0  0.63986  0.60123  0.33654  1.0000
  Fe  Fe264     1.0  0.64148  0.76264  0.59431  1.0000
  S   S534      1.0  0.63648  0.57046  0.34721  1.0000
  S   S535      1.0  0.73945  0.97841  0.33776  1.0000
  H   H2086     1.0  0.61681  0.70209  0.36339  1.0000
  Fe  Fe265     1.0  0.73438  0.84332  0.60673  1.0000
  S   S536      1.0  0.61857  0.77913  0.61370  1.0000
  S   S537      1.0  0.65904  0.61053  0.34946  1.0000
  S   S538      1.0  0.61748  0.62802  0.33827  1.0000
  S   S539      1.0  0.55202  0.72380  0.33289  1.0000
  C   C1305     1.0  0.69428  0.53752  0.32979  1.0000
  H   H2087     1.0  0.73109  0.83999  0.54245  1.0000
  C   C1306     1.0  0.72775  0.80064  0.59487  1.0000
  C   C1307     1.0  0.56510  0.65522  0.31823  1.0000
  H   H2088     1.0  0.68534  0.78318  0.46425  1.0000
  C   C1308     1.0  0.57654  0.52044  0.36586  1.0000
  C   C1309     1.0  0.72525  0.91380  0.41024  1.0000
  S   S540      1.0  0.66307  0.73982  0.60820  1.0000
  C   C1310     1.0  0.63216  0.70797  0.55282  1.0000
  C   C1311     1.0  0.60700  0.50014  0.35706  1.0000
  H   H2089     1.0  0.60548  0.48987  0.37107  1.0000
  N   N128      1.0  0.71926  0.78648  0.52226  1.0000
  H   H2090     1.0  0.60451  0.71730  0.34526  1.0000
  H   H2091     1.0  0.70098  0.86333  0.58172  1.0000
  Fe  Fe266     1.0  0.66099  0.75598  0.55450  1.0000
  H   H2092     1.0  0.56474  0.50016  0.34768  1.0000
  C   C1312     1.0  0.65894  0.66194  0.62836  1.0000
  Fe  Fe267     1.0  0.52828  0.71211  0.33019  1.0000
  H   H2093     1.0  0.59131  0.63524  0.31121  1.0000
  H   H2094     1.0  0.69922  0.55840  0.35194  1.0000
  C   C1313     1.0  0.70951  0.93426  0.37839  1.0000
  C   C1314     1.0  0.71207  0.90679  0.40500  1.0000
  C   C1315     1.0  0.55583  0.67452  0.31578  1.0000
  C   C1316     1.0  0.59974  0.76757  0.62655  1.0000
  H   H2095     1.0  0.70775  0.89365  0.41332  1.0000
  C   C1317     1.0  0.59571  0.75322  0.62014  1.0000
  H   H2096     1.0  0.64698  0.69921  0.34043  1.0000
  C   C1318     1.0  0.71424  0.87649  0.54472  1.0000
  H   H2097     1.0  0.63250  0.70675  0.56794  1.0000
  Fe  Fe268     1.0  0.68442  0.75182  0.58340  1.0000
  N   N129      1.0  0.64994  0.69722  0.54295  1.0000
  H   H2098     1.0  0.68655  0.69547  0.61131  1.0000
  H   H2099     1.0  0.60412  0.74916  0.60716  1.0000
  H   H2100     1.0  0.67242  0.50775  0.59591  1.0000
  H   H2101     1.0  0.61443  0.51107  0.35788  1.0000
  H   H2102     1.0  0.71578  0.82885  0.56296  1.0000
  C   C1319     1.0  0.61266  0.71722  0.35585  1.0000
  C   C1320     1.0  0.64890  0.69913  0.52300  1.0000
  H   H2103     1.0  0.69362  0.91188  0.38538  1.0000
  H   H2104     1.0  0.61438  0.75489  0.34658  1.0000
  Fe  Fe269     1.0  0.49938  0.74904  0.33366  1.0000
  S   S541      1.0  0.50786  0.72229  0.35497  1.0000
  H   H2105     1.0  0.57703  0.73370  0.62498  1.0000
  C   C1321     1.0  0.68139  0.68286  0.62004  1.0000
  C   C1322     1.0  0.69146  0.56643  0.34041  1.0000
  S   S542      1.0  0.70872  0.83023  0.61305  1.0000
  C   C1323     1.0  0.73484  0.78926  0.52946  1.0000
  C   C1324     1.0  0.69381  0.80348  0.60603  1.0000
  Fe  Fe270     1.0  0.53986  0.75040  0.31364  1.0000
  H   H2106     1.0  0.69394  0.58135  0.33648  1.0000
  C   C1325     1.0  0.64235  0.71440  0.33313  1.0000
  H   H2107     1.0  0.61514  0.74650  0.32587  1.0000
  H   H2108     1.0  0.67890  0.53754  0.33567  1.0000
  Fe  Fe271     1.0  0.73734  0.86935  0.43865  1.0000
  H   H2109     1.0  0.68350  0.86941  0.53774  1.0000
  H   H2110     1.0  0.62977  0.72350  0.54601  1.0000
  H   H2111     1.0  0.70940  0.79416  0.49599  1.0000
  H   H2112     1.0  0.68177  0.78217  0.60101  1.0000
  H   H2113     1.0  0.54426  0.79126  0.31302  1.0000
  C   C1326     1.0  0.69327  0.86123  0.57177  1.0000
  S   S543      1.0  0.69473  0.81938  0.46068  1.0000
  Fe  Fe272     1.0  0.65976  0.72273  0.58898  1.0000
  C   C1327     1.0  0.66549  0.67833  0.61699  1.0000
  C   C1328     1.0  0.69516  0.85672  0.54040  1.0000
  C   C1329     1.0  0.63891  0.53819  0.33485  1.0000
  H   H2114     1.0  0.73908  0.76882  0.37937  1.0000
  S   S544      1.0  0.72928  0.85254  0.42211  1.0000
  H   H2115     1.0  0.68865  0.84385  0.54651  1.0000
  H   H2116     1.0  0.73612  0.80677  0.40498  1.0000
  H   H2117     1.0  0.64210  0.53049  0.34855  1.0000
  N   N130      1.0  0.62950  0.72583  0.34669  1.0000
  S   S545      1.0  0.63698  0.74492  0.57623  1.0000
  H   H2118     1.0  0.68875  0.79259  0.52842  1.0000
  C   C1330     1.0  0.68038  0.48834  0.62982  1.0000
  C   C1331     1.0  0.68700  0.79085  0.41685  1.0000
  C   C1332     1.0  0.69288  0.80844  0.41103  1.0000
  C   C1333     1.0  0.69569  0.81707  0.42441  1.0000
  C   C1334     1.0  0.69264  0.80811  0.44364  1.0000
  C   C1335     1.0  0.68728  0.79028  0.44940  1.0000
  C   C1336     1.0  0.68441  0.78164  0.43603  1.0000
  H   H2119     1.0  0.69489  0.81560  0.39618  1.0000
  C   C1337     1.0  0.63823  0.52801  0.32173  1.0000
  C   C1338     1.0  0.72101  0.79586  0.50190  1.0000
  H   H2120     1.0  0.68019  0.76790  0.44055  1.0000
  C   C1339     1.0  0.55849  0.74006  0.38391  1.0000
  C   C1340     1.0  0.56836  0.73363  0.39882  1.0000
  C   C1341     1.0  0.58314  0.74224  0.39877  1.0000
  C   C1342     1.0  0.58785  0.75753  0.38397  1.0000
  C   C1343     1.0  0.57790  0.76398  0.36912  1.0000
  C   C1344     1.0  0.56344  0.75510  0.36894  1.0000
  H   H2121     1.0  0.56453  0.72205  0.41047  1.0000
  H   H2122     1.0  0.59065  0.73725  0.41032  1.0000
  H   H2123     1.0  0.58139  0.77589  0.35769  1.0000
  H   H2124     1.0  0.71885  0.75827  0.53995  1.0000
  C   C1345     1.0  0.65974  0.68142  0.39523  1.0000
  C   C1346     1.0  0.64008  0.68385  0.40175  1.0000
  C   C1347     1.0  0.62947  0.67541  0.39451  1.0000
  C   C1348     1.0  0.63839  0.66468  0.38054  1.0000
  C   C1349     1.0  0.65805  0.66216  0.37400  1.0000
  C   C1350     1.0  0.66873  0.67040  0.38148  1.0000
  H   H2125     1.0  0.63308  0.69206  0.41253  1.0000
  H   H2126     1.0  0.61428  0.67728  0.39974  1.0000
  H   H2127     1.0  0.66504  0.65385  0.36326  1.0000
  H   H2128     1.0  0.68395  0.66846  0.37642  1.0000
  C   C1351     1.0  0.63439  0.74738  0.48787  1.0000
  C   C1352     1.0  0.62534  0.75125  0.50584  1.0000
  C   C1353     1.0  0.63540  0.75603  0.51686  1.0000
  C   C1354     1.0  0.65454  0.75694  0.50989  1.0000
  C   C1355     1.0  0.66362  0.75283  0.49206  1.0000
  C   C1356     1.0  0.65357  0.74809  0.48106  1.0000
  H   H2129     1.0  0.61046  0.75077  0.51114  1.0000
  H   H2130     1.0  0.62826  0.75948  0.53050  1.0000
  H   H2131     1.0  0.67844  0.75346  0.48665  1.0000
  H   H2132     1.0  0.66068  0.74507  0.46730  1.0000
  S   S546      1.0  0.66313  0.77621  0.57115  1.0000
  C   C1357     1.0  0.58032  0.74451  0.63023  1.0000
  N   N131      1.0  0.62852  0.80980  0.45997  1.0000
  C   C1358     1.0  0.61572  0.79641  0.46320  1.0000
  C   C1359     1.0  0.64207  0.80175  0.47283  1.0000
  C   C1360     1.0  0.61729  0.82852  0.46384  1.0000
  C   C1361     1.0  0.63907  0.81243  0.44003  1.0000
  H   H2133     1.0  0.60530  0.80189  0.45372  1.0000
  H   H2134     1.0  0.60770  0.79378  0.47817  1.0000
  H   H2135     1.0  0.62384  0.78218  0.46035  1.0000
  H   H2136     1.0  0.65205  0.81139  0.47086  1.0000
  H   H2137     1.0  0.63470  0.79924  0.48804  1.0000
  H   H2138     1.0  0.65078  0.78774  0.47011  1.0000
  H   H2139     1.0  0.62663  0.83890  0.46144  1.0000
  H   H2140     1.0  0.60926  0.82703  0.47881  1.0000
  H   H2141     1.0  0.60685  0.83498  0.45443  1.0000
  H   H2142     1.0  0.64962  0.82165  0.43725  1.0000
  H   H2143     1.0  0.62938  0.81908  0.42988  1.0000
  H   H2144     1.0  0.64703  0.79845  0.43643  1.0000
  S   S547      1.0  0.72450  0.85294  0.46713  1.0000
  H   H2145     1.0  0.73275  0.95869  0.63042  1.0000
  N   N132      1.0  0.58841  0.50914  0.35178  1.0000
  S   S548      1.0  0.69940  0.94704  0.35865  1.0000
  Fe  Fe273     1.0  0.67155  0.62291  0.31927  1.0000
  H   H2146     1.0  0.70445  0.85499  0.52634  1.0000
  S   S549      1.0  0.68344  0.73214  0.56565  1.0000
  S   S550      1.0  0.53309  0.68109  0.32937  1.0000
  C   C1362     1.0  0.71036  0.81013  0.60396  1.0000
  C   C1363     1.0  0.72030  0.76572  0.52469  1.0000
  H   H2147     1.0  0.62996  0.73333  0.37249  1.0000
  H   H2148     1.0  0.68127  0.87376  0.57018  1.0000
  S   S551      1.0  0.71094  0.98319  0.30883  1.0000
  H   H2149     1.0  0.73022  0.84368  0.56549  1.0000
  H   H2150     1.0  0.72686  0.95447  0.37549  1.0000
  H   H2151     1.0  0.65176  0.73320  0.35513  1.0000
  C   C1364     1.0  0.71199  0.77771  0.59023  1.0000
  N   N133      1.0  0.56737  0.67352  0.37452  1.0000
  C   C1365     1.0  0.54666  0.68005  0.37589  1.0000
  C   C1366     1.0  0.57644  0.66961  0.35544  1.0000
  C   C1367     1.0  0.57121  0.65581  0.38909  1.0000
  C   C1368     1.0  0.57516  0.68862  0.37768  1.0000
  H   H2152     1.0  0.53934  0.68329  0.39007  1.0000
  H   H2153     1.0  0.54030  0.66917  0.37328  1.0000
  H   H2154     1.0  0.54330  0.69346  0.36521  1.0000
  H   H2155     1.0  0.57119  0.65799  0.35276  1.0000
  H   H2156     1.0  0.57348  0.68253  0.34403  1.0000
  H   H2157     1.0  0.59212  0.66504  0.35372  1.0000
  H   H2158     1.0  0.58673  0.65042  0.38837  1.0000
  H   H2159     1.0  0.56549  0.64411  0.38716  1.0000
  H   H2160     1.0  0.56474  0.65832  0.40367  1.0000
  H   H2161     1.0  0.56832  0.69226  0.39178  1.0000
  H   H2162     1.0  0.57277  0.70211  0.36676  1.0000
  H   H2163     1.0  0.59066  0.68399  0.37719  1.0000
  C   C1369     1.0  0.70083  0.79502  0.53309  1.0000
  Fe  Fe274     1.0  0.53095  0.73594  0.35625  1.0000
  H   H2164     1.0  0.64756  0.71434  0.51513  1.0000
  H   H2165     1.0  0.66188  0.69080  0.51525  1.0000
  S   S552      1.0  0.71319  0.75741  0.58168  1.0000
  C   C1370     1.0  0.73407  0.77773  0.39029  1.0000
  H   H2166     1.0  0.66767  0.70320  0.55824  1.0000
  H   H2167     1.0  0.61644  0.49183  0.34651  1.0000
  C   C1371     1.0  0.57887  0.49400  0.35151  1.0000
  H   H2168     1.0  0.61960  0.70255  0.55270  1.0000
  H   H2169     1.0  0.70871  0.76313  0.51941  1.0000
  C   C1372     1.0  0.62346  0.74579  0.33654  1.0000
  H   H2170     1.0  0.60285  0.72520  0.36648  1.0000
  H   H2171     1.0  0.66602  0.66822  0.54579  1.0000
  S   S553      1.0  0.52062  0.76397  0.33725  1.0000
  S   S554      1.0  0.73240  0.90031  0.63060  1.0000
  H   H2172     1.0  0.74057  0.80566  0.59321  1.0000
  C   C1373     1.0  0.63556  0.55827  0.33032  1.0000
  H   H2173     1.0  0.64068  0.67034  0.55260  1.0000
  H   H2174     1.0  0.67975  0.69769  0.53562  1.0000
  C   C1374     1.0  0.65261  0.67675  0.55269  1.0000
  H   H2175     1.0  0.65337  0.67489  0.56783  1.0000
  H   H2176     1.0  0.63644  0.69405  0.52203  1.0000
  H   H2177     1.0  0.55585  0.76018  0.35742  1.0000
  H   H2178     1.0  0.64526  0.71105  0.36854  1.0000
  S   S555      1.0  0.51788  0.73756  0.30856  1.0000
  C   C1375     1.0  0.69102  0.67072  0.63408  1.0000
  H   H2179     1.0  0.66431  0.72066  0.53679  1.0000
  S   S556      1.0  0.54015  0.72902  0.38415  1.0000
  C   C1376     1.0  0.66613  0.70504  0.54339  1.0000
  C   C1377     1.0  0.70404  0.91715  0.38924  1.0000
  S   S557      1.0  0.70295  0.61394  0.30896  1.0000
  S   S558      1.0  0.65356  0.69298  0.59911  1.0000
  C   C1378     1.0  0.69460  0.78734  0.59913  1.0000
  H   H2180     1.0  0.68033  0.81073  0.61314  1.0000
  Fe  Fe275     1.0  0.71948  0.96186  0.33461  1.0000
  H   H2181     1.0  0.65539  0.72030  0.32617  1.0000
  C   C1379     1.0  0.63158  0.56816  0.31255  1.0000
  S   S559      1.0  0.73566  0.90126  0.42984  1.0000
  C   C1380     1.0  0.63955  0.72586  0.36133  1.0000
  H   H2182     1.0  0.72359  0.87558  0.53055  1.0000
  C   C1381     1.0  0.72857  0.78440  0.58806  1.0000
  C   C1382     1.0  0.72156  0.97196  0.62868  1.0000
  C   C1383     1.0  0.73045  0.93107  0.39960  1.0000
  Fe  Fe276     1.0  0.71947  0.83421  0.45048  1.0000
  H   H2183     1.0  0.69974  0.83090  0.41989  1.0000
  N   N134      1.0  0.70602  0.85916  0.55328  1.0000
  H   H2184     1.0  0.64082  0.51260  0.32541  1.0000
  C   C1384     1.0  0.72145  0.84215  0.55617  1.0000
  C   C1385     1.0  0.67421  0.49187  0.59873  1.0000
  H   H2185     1.0  0.63527  0.71419  0.32179  1.0000
  H   H2186     1.0  0.57758  0.52854  0.32799  1.0000
  H   H2187     1.0  0.68935  0.48584  0.59311  1.0000
  H   H2188     1.0  0.70305  0.88973  0.54280  1.0000
  H   H2189     1.0  0.59792  0.53387  0.33255  1.0000
  H   H2190     1.0  0.64578  0.50774  0.62429  1.0000
  H   H2191     1.0  0.71040  0.96852  0.62346  1.0000
  H   H2192     1.0  0.72342  0.77090  0.40174  1.0000
  H   H2193     1.0  0.73144  0.78638  0.42363  1.0000
  H   H2194     1.0  0.68722  0.84818  0.57890  1.0000
  H   H2195     1.0  0.69934  0.78854  0.54857  1.0000
  C   C1386     1.0  0.59124  0.52195  0.33274  1.0000
  C   C1387     1.0  0.72283  0.94112  0.38355  1.0000
  H   H2196     1.0  0.72685  0.54866  0.32692  1.0000
  H   H2197     1.0  0.67833  0.50411  0.62832  1.0000
  H   H2198     1.0  0.63586  0.75257  0.32904  1.0000
  H   H2199     1.0  0.58339  0.53197  0.36642  1.0000
  H   H2200     1.0  0.61900  0.71550  0.63205  1.0000
  H   H2201     1.0  0.73067  0.78712  0.63520  1.0000
  H   H2202     1.0  0.64668  0.65835  0.62603  1.0000
  H   H2203     1.0  0.67603  0.56724  0.34645  1.0000
  H   H2204     1.0  0.73409  0.78213  0.54474  1.0000
  H   H2205     1.0  0.72044  0.81153  0.49951  1.0000
  H   H2206     1.0  0.69926  0.81075  0.53118  1.0000
  H   H2207     1.0  0.72645  0.79204  0.38364  1.0000
  S   S560      1.0  0.73156  0.87407  0.59161  1.0000
  H   H2208     1.0  0.49900  0.69273  0.31557  1.0000
  S   S561      1.0  0.65244  0.65200  0.31900  1.0000
  H   H2209     1.0  0.72314  0.87843  0.55367  1.0000
  H   H2210     1.0  0.56239  0.52746  0.36231  1.0000
  H   H2211     1.0  0.57416  0.51120  0.38039  1.0000
  H   H2212     1.0  0.73444  0.80476  0.52796  1.0000
  H   H2213     1.0  0.70219  0.52870  0.34100  1.0000
  H   H2214     1.0  0.70358  0.67401  0.63612  1.0000
  N   N135      1.0  0.69775  0.55729  0.32383  1.0000
  H   H2215     1.0  0.49460  0.67707  0.35005  1.0000
  H   H2216     1.0  0.73406  0.75872  0.51683  1.0000
  H   H2217     1.0  0.69872  0.53019  0.31763  1.0000
  H   H2218     1.0  0.62880  0.58368  0.30901  1.0000
  H   H2219     1.0  0.60068  0.51406  0.32182  1.0000
  C   C1388     1.0  0.64835  0.49188  0.62609  1.0000
  C   C1389     1.0  0.58407  0.65013  0.30901  1.0000
  H   H2220     1.0  0.73443  0.80892  0.63844  1.0000
  C   C1390     1.0  0.68695  0.56838  0.30900  1.0000
  H   H2221     1.0  0.63896  0.48860  0.61849  1.0000
  H   H2222     1.0  0.66551  0.48861  0.59036  1.0000
  H   H2223     1.0  0.67140  0.56953  0.31450  1.0000
  H   H2224     1.0  0.62386  0.68985  0.63619  1.0000
  C   C1391     1.0  0.71821  0.55689  0.31614  1.0000
  Fe  Fe277     1.0  0.63306  0.63972  0.30922  1.0000
  H   H2225     1.0  0.72115  0.57171  0.31162  1.0000
  H   H2226     1.0  0.72818  0.98291  0.61731  1.0000
  H   H2227     1.0  0.58747  0.48521  0.34104  1.0000
  H   H2228     1.0  0.74048  0.93664  0.40372  1.0000
  S   S562      1.0  0.51025  0.76219  0.69954  1.0000
  Fe  Fe278     1.0  0.54161  0.72019  0.72853  1.0000
  S   S563      1.0  0.55308  0.74529  0.70902  1.0000
  S   S564      1.0  0.56179  0.69826  0.74531  1.0000
  Fe  Fe279     1.0  0.52560  0.76326  0.72128  1.0000
  Fe  Fe280     1.0  0.53670  0.74151  0.68940  1.0000
  H   H2229     1.0  0.66495  0.97986  0.75760  1.0000
  S   S565      1.0  0.52633  0.71542  0.70850  1.0000
  Fe  Fe281     1.0  0.64051  0.61915  0.70869  1.0000
  S   S566      1.0  0.65938  0.60519  0.68519  1.0000
  S   S567      1.0  0.61026  0.63047  0.70512  1.0000
  Fe  Fe282     1.0  0.67241  0.61111  0.73026  1.0000
  S   S568      1.0  0.69373  0.59721  0.70816  1.0000
  S   S569      1.0  0.68036  0.60891  0.75804  1.0000
  Fe  Fe283     1.0  0.68009  0.62148  0.68727  1.0000
  H   H2230     1.0  0.50299  0.81708  0.85856  1.0000
  Fe  Fe284     1.0  0.67086  0.58241  0.70840  1.0000
  S   S570      1.0  0.67628  0.55003  0.71456  1.0000
  S   S571      1.0  0.66052  0.63681  0.70946  1.0000
  S   S572      1.0  0.65018  0.59499  0.73181  1.0000
  H   H2231     1.0  0.71383  0.96200  0.70248  1.0000
  S   S573      1.0  0.49320  0.84786  0.82766  1.0000
  H   H2232     1.0  0.60864  0.73153  0.65956  1.0000
  C   C1392     1.0  0.70342  0.96586  0.71459  1.0000
  H   H2233     1.0  0.73232  0.64278  0.72474  1.0000
  H   H2234     1.0  0.72088  0.59736  0.86238  1.0000
  C   C1393     1.0  0.65690  0.53585  0.67500  1.0000
  S   S574      1.0  0.51568  0.73842  0.74266  1.0000
  C   C1394     1.0  0.66305  0.50725  0.69935  1.0000
  C   C1395     1.0  0.57333  0.76389  0.65366  1.0000
  C   C1396     1.0  0.73026  0.94391  0.75358  1.0000
  S   S575      1.0  0.66743  0.96380  0.79779  1.0000
  Fe  Fe285     1.0  0.62959  0.93268  0.82364  1.0000
  S   S576      1.0  0.65885  0.91992  0.80965  1.0000
  S   S577      1.0  0.60910  0.91350  0.84024  1.0000
  Fe  Fe286     1.0  0.66845  0.93883  0.82250  1.0000
  S   S578      1.0  0.69375  0.92937  0.83587  1.0000
  Fe  Fe287     1.0  0.65496  0.94592  0.78615  1.0000
  S   S579      1.0  0.66555  0.94081  0.75658  1.0000
  S   S580      1.0  0.63963  0.94942  0.83887  1.0000
  Fe  Fe288     1.0  0.65422  0.85827  0.92547  1.0000
  S   S581      1.0  0.67256  0.88005  0.91837  1.0000
  S   S582      1.0  0.59222  0.86193  0.90912  1.0000
  S   S583      1.0  0.64664  0.84484  0.90555  1.0000
  Fe  Fe289     1.0  0.56245  0.85168  0.80787  1.0000
  S   S584      1.0  0.54187  0.85071  0.83586  1.0000
  S   S585      1.0  0.57918  0.87426  0.79100  1.0000
  Fe  Fe290     1.0  0.55993  0.81237  0.80489  1.0000
  S   S586      1.0  0.53976  0.80722  0.83304  1.0000
  S   S587      1.0  0.57245  0.79214  0.78484  1.0000
  Fe  Fe291     1.0  0.55803  0.82052  0.84343  1.0000
  S   S588      1.0  0.56730  0.80749  0.87137  1.0000
  S   S589      1.0  0.54395  0.84191  0.79448  1.0000
  S   S590      1.0  0.57977  0.82238  0.81633  1.0000
  C   C1397     1.0  0.72793  0.76595  0.95420  1.0000
  Fe  Fe292     1.0  0.52505  0.83768  0.82338  1.0000
  H   H2235     1.0  0.61575  0.68174  0.68869  1.0000
  H   H2236     1.0  0.67401  0.51064  0.72201  1.0000
  C   C1398     1.0  0.64913  0.83042  0.85503  1.0000
  H   H2237     1.0  0.50347  0.85014  0.86100  1.0000
  H   H2238     1.0  0.61437  0.56680  0.73089  1.0000
  C   C1399     1.0  0.65859  0.95232  0.88607  1.0000
  H   H2239     1.0  0.68049  0.56545  0.75041  1.0000
  C   C1400     1.0  0.68918  0.52690  0.75934  1.0000
  H   H2240     1.0  0.56537  0.69688  0.78338  1.0000
  C   C1401     1.0  0.68266  0.96705  0.86265  1.0000
  N   N136      1.0  0.56281  0.72556  0.78669  1.0000
  H   H2241     1.0  0.62303  0.67023  0.66889  1.0000
  C   C1402     1.0  0.70554  0.96350  0.66143  1.0000
  H   H2242     1.0  0.62498  0.86639  0.82560  1.0000
  H   H2243     1.0  0.62180  0.82488  0.84037  1.0000
  S   S591      1.0  0.51859  0.79008  0.73281  1.0000
  C   C1403     1.0  0.56913  0.74978  0.64701  1.0000
  C   C1404     1.0  0.49435  0.84717  0.87541  1.0000
  C   C1405     1.0  0.69899  0.79978  0.90706  1.0000
  C   C1406     1.0  0.58506  0.84656  0.89914  1.0000
  C   C1407     1.0  0.59073  0.82661  0.90427  1.0000
  C   C1408     1.0  0.58489  0.81472  0.89594  1.0000
  C   C1409     1.0  0.57390  0.82273  0.88200  1.0000
  C   C1410     1.0  0.56844  0.84269  0.87672  1.0000
  C   C1411     1.0  0.57381  0.85455  0.88544  1.0000
  H   H2244     1.0  0.59940  0.82030  0.91485  1.0000
  H   H2245     1.0  0.58915  0.79928  0.90013  1.0000
  H   H2246     1.0  0.55994  0.84905  0.86607  1.0000
  H   H2247     1.0  0.56932  0.86997  0.88148  1.0000
  C   C1412     1.0  0.67852  0.95777  0.74174  1.0000
  C   C1413     1.0  0.69218  0.95286  0.72604  1.0000
  H   H2248     1.0  0.69266  0.95303  0.86194  1.0000
  H   H2249     1.0  0.72648  0.62389  0.78522  1.0000
  H   H2250     1.0  0.69421  0.93890  0.72289  1.0000
  H   H2251     1.0  0.63613  0.86590  0.86244  1.0000
  C   C1414     1.0  0.60051  0.90314  0.82633  1.0000
  C   C1415     1.0  0.58766  0.89095  0.83524  1.0000
  C   C1416     1.0  0.58125  0.88185  0.82453  1.0000
  C   C1417     1.0  0.58734  0.88523  0.80477  1.0000
  C   C1418     1.0  0.60014  0.89748  0.79584  1.0000
  C   C1419     1.0  0.60681  0.90633  0.80660  1.0000
  H   H2252     1.0  0.58261  0.88858  0.85046  1.0000
  H   H2253     1.0  0.57138  0.87248  0.83155  1.0000
  H   H2254     1.0  0.60490  0.90017  0.78056  1.0000
  H   H2255     1.0  0.61675  0.91570  0.79959  1.0000
  C   C1420     1.0  0.68854  0.91400  0.85804  1.0000
  C   C1421     1.0  0.69982  0.91117  0.87123  1.0000
  C   C1422     1.0  0.69488  0.90047  0.88965  1.0000
  C   C1423     1.0  0.67907  0.89192  0.89475  1.0000
  C   C1424     1.0  0.66815  0.89408  0.88136  1.0000
  C   C1425     1.0  0.67267  0.90545  0.86306  1.0000
  H   H2256     1.0  0.71217  0.91761  0.86737  1.0000
  H   H2257     1.0  0.70339  0.89869  0.89998  1.0000
  H   H2258     1.0  0.65614  0.88721  0.88525  1.0000
  H   H2259     1.0  0.66401  0.90747  0.85283  1.0000
  H   H2260     1.0  0.60786  0.58701  0.67318  1.0000
  C   C1426     1.0  0.71886  0.79583  0.90158  1.0000
  S   S592      1.0  0.62473  0.95733  0.79905  1.0000
  C   C1427     1.0  0.68900  0.78508  0.91086  1.0000
  C   C1428     1.0  0.61984  0.57480  0.71641  1.0000
  S   S593      1.0  0.66445  0.78904  0.91965  1.0000
  H   H2261     1.0  0.58854  0.60119  0.70959  1.0000
  N   N137      1.0  0.72691  0.92887  0.77099  1.0000
  C   C1429     1.0  0.69979  0.61899  0.75661  1.0000
  C   C1430     1.0  0.70929  0.62814  0.73914  1.0000
  H   H2262     1.0  0.67394  0.54967  0.78458  1.0000
  H   H2263     1.0  0.58398  0.73150  0.79796  1.0000
  H   H2264     1.0  0.69061  0.51281  0.76961  1.0000
  C   C1431     1.0  0.70608  0.61746  0.77321  1.0000
  H   H2265     1.0  0.70450  0.62944  0.72627  1.0000
  H   H2266     1.0  0.73796  0.59121  0.75061  1.0000
  H   H2267     1.0  0.72092  0.51807  0.77291  1.0000
  H   H2268     1.0  0.69873  0.61045  0.78676  1.0000
  H   H2269     1.0  0.63111  0.57834  0.67857  1.0000
  S   S594      1.0  0.62155  0.82137  0.94422  1.0000
  C   C1432     1.0  0.73369  0.59972  0.89198  1.0000
  C   C1433     1.0  0.57442  0.70681  0.78322  1.0000
  S   S595      1.0  0.64813  0.50348  0.67080  1.0000
  S   S596      1.0  0.72933  0.53022  0.80840  1.0000
  S   S597      1.0  0.66208  0.83042  0.94585  1.0000
  H   H2270     1.0  0.64843  0.86415  0.82906  1.0000
  C   C1434     1.0  0.57535  0.73805  0.78685  1.0000
  H   H2271     1.0  0.74025  0.94021  0.78668  1.0000
  C   C1435     1.0  0.66312  0.54637  0.68456  1.0000
  C   C1436     1.0  0.66910  0.53735  0.70165  1.0000
  H   H2272     1.0  0.52268  0.82872  0.89388  1.0000
  H   H2273     1.0  0.66356  0.56134  0.67864  1.0000
  C   C1437     1.0  0.53371  0.79076  0.74703  1.0000
  C   C1438     1.0  0.52673  0.80132  0.76135  1.0000
  C   C1439     1.0  0.53851  0.80174  0.77310  1.0000
  C   C1440     1.0  0.55742  0.79192  0.77030  1.0000
  C   C1441     1.0  0.56452  0.78172  0.75570  1.0000
  C   C1442     1.0  0.55264  0.78096  0.74421  1.0000
  H   H2274     1.0  0.53286  0.80957  0.78438  1.0000
  H   H2275     1.0  0.57924  0.77441  0.75324  1.0000
  H   H2276     1.0  0.55817  0.77307  0.73296  1.0000
  C   C1443     1.0  0.57561  0.67981  0.73373  1.0000
  C   C1444     1.0  0.56952  0.67527  0.71957  1.0000
  C   C1445     1.0  0.58022  0.66002  0.71099  1.0000
  C   C1446     1.0  0.59733  0.64952  0.71616  1.0000
  C   C1447     1.0  0.60371  0.65427  0.73003  1.0000
  C   C1448     1.0  0.59273  0.66926  0.73896  1.0000
  H   H2277     1.0  0.55630  0.68316  0.71554  1.0000
  H   H2278     1.0  0.57520  0.65640  0.70029  1.0000
  H   H2279     1.0  0.61690  0.64619  0.73412  1.0000
  H   H2280     1.0  0.59753  0.67268  0.74991  1.0000
  C   C1449     1.0  0.65670  0.51629  0.68248  1.0000
  H   H2281     1.0  0.53974  0.71335  0.80556  1.0000
  H   H2282     1.0  0.69143  0.81410  0.90861  1.0000
  H   H2283     1.0  0.61717  0.60071  0.68386  1.0000
  H   H2284     1.0  0.72355  0.56974  0.80922  1.0000
  H   H2285     1.0  0.69593  0.55358  0.78692  1.0000
  H   H2286     1.0  0.56469  0.76811  0.66654  1.0000
  H   H2287     1.0  0.54244  0.72556  0.77092  1.0000
  C   C1450     1.0  0.73694  0.56255  0.81337  1.0000
  C   C1451     1.0  0.68241  0.96194  0.89600  1.0000
  N   N138      1.0  0.67040  0.96683  0.88175  1.0000
  C   C1452     1.0  0.66922  0.51775  0.70889  1.0000
  H   H2288     1.0  0.73882  0.63500  0.87331  1.0000
  H   H2289     1.0  0.65225  0.54285  0.66181  1.0000
  H   H2290     1.0  0.69890  0.96835  0.67500  1.0000
  H   H2291     1.0  0.63485  0.56759  0.71186  1.0000
  H   H2292     1.0  0.66753  0.93769  0.88598  1.0000
  H   H2293     1.0  0.64564  0.82181  0.86977  1.0000
  H   H2294     1.0  0.56152  0.73703  0.75723  1.0000
  C   C1453     1.0  0.69885  0.76658  0.90886  1.0000
  H   H2295     1.0  0.60410  0.84492  0.84718  1.0000
  Fe  Fe293     1.0  0.65151  0.81761  0.92751  1.0000
  H   H2296     1.0  0.67382  0.53286  0.75951  1.0000
  N   N139      1.0  0.69823  0.54032  0.76379  1.0000
  H   H2297     1.0  0.70790  0.91867  0.76047  1.0000
  N   N140      1.0  0.58671  0.84488  0.74539  1.0000
  C   C1454     1.0  0.57315  0.83435  0.74350  1.0000
  C   C1455     1.0  0.60218  0.84573  0.72833  1.0000
  C   C1456     1.0  0.59479  0.83481  0.76237  1.0000
  C   C1457     1.0  0.57679  0.86459  0.74738  1.0000
  H   H2298     1.0  0.56127  0.83344  0.75612  1.0000
  H   H2299     1.0  0.58012  0.81932  0.74225  1.0000
  H   H2300     1.0  0.56678  0.84142  0.73079  1.0000
  H   H2301     1.0  0.61268  0.85356  0.72934  1.0000
  H   H2302     1.0  0.60997  0.83108  0.72644  1.0000
  H   H2303     1.0  0.59660  0.85325  0.71523  1.0000
  H   H2304     1.0  0.60483  0.84251  0.76451  1.0000
  H   H2305     1.0  0.60235  0.81984  0.76148  1.0000
  H   H2306     1.0  0.58348  0.83381  0.77541  1.0000
  H   H2307     1.0  0.58656  0.87287  0.74910  1.0000
  H   H2308     1.0  0.56508  0.86450  0.76017  1.0000
  H   H2309     1.0  0.57049  0.87269  0.73484  1.0000
  C   C1458     1.0  0.54946  0.72267  0.80523  1.0000
  H   H2310     1.0  0.66318  0.63747  0.65143  1.0000
  H   H2311     1.0  0.72662  0.80713  0.89888  1.0000
  H   H2312     1.0  0.66078  0.83751  0.85457  1.0000
  C   C1459     1.0  0.71871  0.76257  0.90373  1.0000
  H   H2313     1.0  0.70225  0.55699  0.73518  1.0000
  N   N141      1.0  0.60628  0.91388  0.89613  1.0000
  C   C1460     1.0  0.59823  0.93098  0.88285  1.0000
  C   C1461     1.0  0.59096  0.90810  0.91216  1.0000
  C   C1462     1.0  0.62097  0.91829  0.90338  1.0000
  C   C1463     1.0  0.61496  0.89804  0.88603  1.0000
  H   H2314     1.0  0.60931  0.93559  0.87042  1.0000
  H   H2315     1.0  0.59148  0.94330  0.88987  1.0000
  H   H2316     1.0  0.58727  0.92790  0.87700  1.0000
  H   H2317     1.0  0.58400  0.91969  0.92012  1.0000
  H   H2318     1.0  0.57981  0.90437  0.90715  1.0000
  H   H2319     1.0  0.59645  0.89513  0.92241  1.0000
  H   H2320     1.0  0.61493  0.93003  0.91129  1.0000
  H   H2321     1.0  0.63269  0.92268  0.89157  1.0000
  H   H2322     1.0  0.62747  0.90550  0.91324  1.0000
  H   H2323     1.0  0.60422  0.89419  0.88054  1.0000
  H   H2324     1.0  0.62125  0.88490  0.89557  1.0000
  H   H2325     1.0  0.62634  0.90201  0.87363  1.0000
  N   N142      1.0  0.61825  0.70112  0.66130  1.0000
  H   H2326     1.0  0.56702  0.75220  0.78980  1.0000
  H   H2327     1.0  0.64228  0.71479  0.65016  1.0000
  H   H2328     1.0  0.73151  0.77826  0.95750  1.0000
  H   H2329     1.0  0.64961  0.95542  0.87536  1.0000
  C   C1464     1.0  0.60768  0.55597  0.70221  1.0000
  C   C1465     1.0  0.55194  0.73471  0.77148  1.0000
  H   H2330     1.0  0.58202  0.57913  0.72358  1.0000
  H   H2331     1.0  0.57934  0.58710  0.69925  1.0000
  H   H2332     1.0  0.69141  0.74232  0.96892  1.0000
  H   H2333     1.0  0.69584  0.52393  0.74493  1.0000
  H   H2334     1.0  0.70230  0.56941  0.75293  1.0000
  H   H2335     1.0  0.61231  0.86835  0.85981  1.0000
  C   C1466     1.0  0.67579  0.97587  0.74573  1.0000
  Fe  Fe294     1.0  0.63163  0.83685  0.96070  1.0000
  H   H2336     1.0  0.58319  0.69963  0.79413  1.0000
  H   H2337     1.0  0.54050  0.73660  0.80824  1.0000
  C   C1467     1.0  0.70542  0.74555  0.96077  1.0000
  H   H2338     1.0  0.71647  0.73236  0.96383  1.0000
  C   C1468     1.0  0.49406  0.81523  0.87312  1.0000
  H   H2339     1.0  0.68002  0.77672  0.96978  1.0000
  H   H2340     1.0  0.71885  0.95706  0.75399  1.0000
  C   C1469     1.0  0.61642  0.58586  0.68377  1.0000
  C   C1470     1.0  0.69577  0.55884  0.74997  1.0000
  C   C1471     1.0  0.72660  0.93610  0.78775  1.0000
  Fe  Fe295     1.0  0.73970  0.49885  0.80714  1.0000
  H   H2341     1.0  0.71791  0.60285  0.89451  1.0000
  H   H2342     1.0  0.64123  0.70065  0.67401  1.0000
  H   H2343     1.0  0.59995  0.70282  0.64264  1.0000
  S   S598      1.0  0.55026  0.73817  0.65940  1.0000
  Fe  Fe296     1.0  0.61724  0.84948  0.92354  1.0000
  S   S599      1.0  0.62439  0.86556  0.94155  1.0000
  H   H2344     1.0  0.73776  0.60750  0.90072  1.0000
  H   H2345     1.0  0.69354  0.78302  0.94633  1.0000
  H   H2346     1.0  0.72802  0.76949  0.93873  1.0000
  H   H2347     1.0  0.58419  0.70842  0.76903  1.0000
  S   S600      1.0  0.69714  0.63904  0.66257  1.0000
  C   C1472     1.0  0.60578  0.71764  0.66897  1.0000
  H   H2348     1.0  0.54297  0.74890  0.77360  1.0000
  H   H2349     1.0  0.64322  0.84642  0.81971  1.0000
  Fe  Fe297     1.0  0.50133  0.73649  0.72046  1.0000
  H   H2350     1.0  0.58535  0.74087  0.77293  1.0000
  H   H2351     1.0  0.51210  0.80896  0.76355  1.0000
  C   C1473     1.0  0.51868  0.82044  0.88558  1.0000
  C   C1474     1.0  0.63833  0.70145  0.65990  1.0000
  C   C1475     1.0  0.68940  0.54347  0.78318  1.0000
  H   H2352     1.0  0.61330  0.82566  0.86498  1.0000
  Fe  Fe298     1.0  0.63756  0.97304  0.81297  1.0000
  C   C1476     1.0  0.71868  0.53204  0.76265  1.0000
  H   H2353     1.0  0.55716  0.71578  0.81706  1.0000
  H   H2354     1.0  0.72620  0.79145  0.65868  1.0000
  H   H2355     1.0  0.69125  0.52982  0.79404  1.0000
  H   H2356     1.0  0.50243  0.80761  0.82543  1.0000
  C   C1477     1.0  0.72875  0.77714  0.90025  1.0000
  N   N143      1.0  0.60814  0.57569  0.70286  1.0000
  H   H2357     1.0  0.72624  0.74823  0.90232  1.0000
  C   C1478     1.0  0.63751  0.85586  0.83015  1.0000
  H   H2358     1.0  0.69112  0.75523  0.91169  1.0000
  C   C1479     1.0  0.62531  0.85773  0.86302  1.0000
  H   H2359     1.0  0.60114  0.54804  0.71630  1.0000
  H   H2360     1.0  0.62223  0.54750  0.69813  1.0000
  N   N144      1.0  0.63231  0.84465  0.84966  1.0000
  H   H2361     1.0  0.66314  0.49217  0.70514  1.0000
  H   H2362     1.0  0.65478  0.82016  0.84538  1.0000
  H   H2363     1.0  0.59945  0.55602  0.69171  1.0000
  H   H2364     1.0  0.69135  0.97826  0.85863  1.0000
  C   C1480     1.0  0.58863  0.58619  0.70909  1.0000
  C   C1481     1.0  0.72180  0.62507  0.77236  1.0000
  H   H2365     1.0  0.61993  0.58945  0.71765  1.0000
  C   C1482     1.0  0.61724  0.83459  0.85055  1.0000
  H   H2366     1.0  0.64908  0.95183  0.90034  1.0000
  H   H2367     1.0  0.62162  0.84965  0.87789  1.0000
  H   H2368     1.0  0.52795  0.82261  0.87120  1.0000
  N   N145      1.0  0.70937  0.76206  0.96565  1.0000
  H   H2369     1.0  0.73849  0.58405  0.89739  1.0000
  H   H2370     1.0  0.64810  0.68908  0.65428  1.0000
  H   H2371     1.0  0.71500  0.94891  0.78937  1.0000
  C   C1483     1.0  0.70847  0.92378  0.77302  1.0000
  H   H2372     1.0  0.74079  0.97045  0.65485  1.0000
  C   C1484     1.0  0.72501  0.63573  0.73831  1.0000
  H   H2373     1.0  0.70517  0.74843  0.94541  1.0000
  N   N146      1.0  0.49840  0.82655  0.88450  1.0000
  H   H2374     1.0  0.72595  0.54164  0.76612  1.0000
  H   H2375     1.0  0.73997  0.89984  0.78230  1.0000
  H   H2376     1.0  0.70941  0.48760  0.72042  1.0000
  H   H2377     1.0  0.71962  0.63013  0.86622  1.0000
  H   H2378     1.0  0.52245  0.80493  0.89226  1.0000
  C   C1485     1.0  0.61376  0.68305  0.67409  1.0000
  H   H2379     1.0  0.69155  0.97259  0.89312  1.0000
  H   H2380     1.0  0.70549  0.91233  0.78590  1.0000
  S   S601      1.0  0.72687  0.48517  0.75122  1.0000
  H   H2381     1.0  0.59151  0.78408  0.64829  1.0000
  C   C1486     1.0  0.73592  0.79323  0.64451  1.0000
  H   H2382     1.0  0.73070  0.93884  0.74067  1.0000
  H   H2383     1.0  0.59876  0.68225  0.67532  1.0000
  H   H2384     1.0  0.69659  0.93638  0.77440  1.0000
  N   N147      1.0  0.71374  0.97868  0.64668  1.0000
  H   H2385     1.0  0.72418  0.92503  0.80111  1.0000
  H   H2386     1.0  0.49701  0.85622  0.88381  1.0000
  C   C1487     1.0  0.73657  0.59484  0.86053  1.0000
  H   H2387     1.0  0.49669  0.79962  0.87963  1.0000
  C   C1488     1.0  0.68448  0.65433  0.64549  1.0000
  H   H2388     1.0  0.67416  0.96988  0.85158  1.0000
  H   H2389     1.0  0.73303  0.91420  0.66244  1.0000
  H   H2390     1.0  0.60776  0.71728  0.68334  1.0000
  C   C1489     1.0  0.69429  0.77917  0.96158  1.0000
  H   H2391     1.0  0.72578  0.52932  0.74824  1.0000
  H   H2392     1.0  0.69191  0.94752  0.89600  1.0000
  H   H2393     1.0  0.69444  0.95920  0.65690  1.0000
  H   H2394     1.0  0.73955  0.75324  0.95681  1.0000
  H   H2395     1.0  0.67365  0.96162  0.91062  1.0000
  H   H2396     1.0  0.71657  0.95036  0.66455  1.0000
  H   H2397     1.0  0.73978  0.69950  0.85574  1.0000
  C   C1490     1.0  0.73138  0.63414  0.75488  1.0000
  H   H2398     1.0  0.59050  0.71775  0.67029  1.0000
  C   C1491     1.0  0.73528  0.62639  0.86501  1.0000
  H   H2399     1.0  0.69679  0.79194  0.96505  1.0000
  C   C1492     1.0  0.58849  0.77292  0.64331  1.0000
  C   C1493     1.0  0.66823  0.65013  0.64279  1.0000
  C   C1494     1.0  0.72906  0.98316  0.65291  1.0000
  C   C1495     1.0  0.61511  0.70235  0.64223  1.0000
  C   C1496     1.0  0.70083  0.98391  0.71861  1.0000
  H   H2400     1.0  0.64365  0.48596  0.64152  1.0000
  C   C1497     1.0  0.95138  0.39656  0.15339  1.0000
  H   H2401     1.0  0.78161  0.39074  0.97790  1.0000
  S   S602      1.0  0.81863  0.44560  0.20141  1.0000
  H   H2402     1.0  0.77755  0.03452  0.29662  1.0000
  H   H2403     1.0  0.81223  0.37262  0.11575  1.0000
  H   H2404     1.0  0.84432  0.38117  0.14231  1.0000
  S   S603      1.0  0.76772  0.12271  0.29510  1.0000
  H   H2405     1.0  0.76430  0.40712  0.09734  1.0000
  H   H2406     1.0  0.74792  0.44090  0.24224  1.0000
  Fe  Fe299     1.0  0.86051  0.22066  0.28645  1.0000
  H   H2407     1.0  0.82168  0.28523  0.23496  1.0000
  Fe  Fe300     1.0  0.86403  0.34207  0.21249  1.0000
  S   S604      1.0  0.87713  0.31264  0.20694  1.0000
  S   S605      1.0  0.84569  0.34893  0.23983  1.0000
  Fe  Fe301     1.0  0.87765  0.36156  0.17172  1.0000
  S   S606      1.0  0.89183  0.33387  0.16256  1.0000
  S   S607      1.0  0.87568  0.39015  0.15162  1.0000
  Fe  Fe302     1.0  0.86552  0.32366  0.18023  1.0000
  S   S608      1.0  0.84712  0.30751  0.17357  1.0000
  Fe  Fe303     1.0  0.90207  0.32584  0.19008  1.0000
  S   S609      1.0  0.93249  0.31156  0.19153  1.0000
  S   S610      1.0  0.85055  0.35211  0.18715  1.0000
  S   S611      1.0  0.88980  0.35448  0.19777  1.0000
  H   H2408     1.0  0.94280  0.36462  0.15004  1.0000
  S   S612      1.0  0.88201  0.19895  0.30141  1.0000
  S   S613      1.0  0.77981  0.32859  0.07619  1.0000
  C   C1498     1.0  0.85500  0.26150  0.23931  1.0000
  Fe  Fe304     1.0  0.79054  0.34356  0.09267  1.0000
  S   S614      1.0  0.82138  0.33825  0.09441  1.0000
  S   S615      1.0  0.77527  0.37293  0.08023  1.0000
  H   H2409     1.0  0.81567  0.40258  0.15615  1.0000
  C   C1499     1.0  0.93546  0.38758  0.18602  1.0000
  C   C1500     1.0  0.76368  0.33267  0.02893  1.0000
  C   C1501     1.0  0.83501  0.37422  0.13797  1.0000
  C   C1502     1.0  0.75602  0.32637  0.00165  1.0000
  H   H2410     1.0  0.92474  0.37974  0.19619  1.0000
  H   H2411     1.0  0.93070  0.35801  0.17414  1.0000
  S   S616      1.0  0.74440  0.29903  0.11376  1.0000
  H   H2412     1.0  0.79140  0.38745  0.12678  1.0000
  H   H2413     1.0  0.99014  0.33015  0.19417  1.0000
  C   C1503     1.0  0.83430  0.25026  0.22655  1.0000
  H   H2414     1.0  0.77111  0.30500  0.02147  1.0000
  N   N148      1.0  0.81720  0.38775  0.13443  1.0000
  Fe  Fe305     1.0  0.76202  0.35745  0.06644  1.0000
  C   C1504     1.0  0.85989  0.26451  0.20547  1.0000
  C   C1505     1.0  0.76168  0.41191  0.11042  1.0000
  H   H2415     1.0  0.80863  0.41487  0.11608  1.0000
  H   H2416     1.0  0.80330  0.38298  0.16389  1.0000
  H   H2417     1.0  0.91402  0.26489  0.27389  1.0000
  H   H2418     1.0  0.84067  0.29586  0.21906  1.0000
  H   H2419     1.0  0.84326  0.36887  0.12501  1.0000
  H   H2420     1.0  0.95264  0.39601  0.13835  1.0000
  C   C1506     1.0  0.84594  0.32980  0.25972  1.0000
  C   C1507     1.0  0.85891  0.31237  0.25899  1.0000
  C   C1508     1.0  0.85851  0.29718  0.27502  1.0000
  C   C1509     1.0  0.84519  0.29941  0.29180  1.0000
  C   C1510     1.0  0.83249  0.31697  0.29260  1.0000
  C   C1511     1.0  0.83284  0.33211  0.27659  1.0000
  H   H2421     1.0  0.86945  0.31068  0.24625  1.0000
  Fe  Fe306     1.0  0.89622  0.22371  0.29729  1.0000
  C   C1512     1.0  0.97498  0.33162  0.19944  1.0000
  H   H2422     1.0  0.82293  0.34563  0.27731  1.0000
  C   C1513     1.0  0.83970  0.31717  0.15179  1.0000
  C   C1514     1.0  0.82154  0.31626  0.15051  1.0000
  C   C1515     1.0  0.81556  0.32326  0.13313  1.0000
  C   C1516     1.0  0.82793  0.33060  0.11676  1.0000
  C   C1517     1.0  0.84610  0.33151  0.11806  1.0000
  C   C1518     1.0  0.85189  0.32508  0.13558  1.0000
  H   H2423     1.0  0.81203  0.31022  0.16303  1.0000
  H   H2424     1.0  0.80150  0.32263  0.13242  1.0000
  H   H2425     1.0  0.85578  0.33712  0.10544  1.0000
  H   H2426     1.0  0.86599  0.32570  0.13641  1.0000
  H   H2427     1.0  0.96557  0.39001  0.15710  1.0000
  S   S617      1.0  0.81413  0.13916  0.29732  1.0000
  Fe  Fe307     1.0  0.78252  0.14009  0.30505  1.0000
  H   H2428     1.0  0.75633  0.12290  0.17880  1.0000
  C   C1519     1.0  0.96545  0.34404  0.21171  1.0000
  C   C1520     1.0  0.94579  0.34586  0.21841  1.0000
  C   C1521     1.0  0.93560  0.33585  0.21237  1.0000
  C   C1522     1.0  0.94508  0.32368  0.19985  1.0000
  C   C1523     1.0  0.96484  0.32128  0.19372  1.0000
  C   C1524     1.0  0.81060  0.17789  0.28070  1.0000
  H   H2429     1.0  0.93838  0.35530  0.22806  1.0000
  H   H2430     1.0  0.92047  0.33741  0.21761  1.0000
  H   H2431     1.0  0.97227  0.31182  0.18409  1.0000
  C   C1525     1.0  0.93684  0.30224  0.25548  1.0000
  C   C1526     1.0  0.83568  0.43179  0.18674  1.0000
  C   C1527     1.0  0.85002  0.41786  0.19430  1.0000
  C   C1528     1.0  0.86245  0.40521  0.18339  1.0000
  C   C1529     1.0  0.86101  0.40691  0.16468  1.0000
  C   C1530     1.0  0.84711  0.42130  0.15686  1.0000
  C   C1531     1.0  0.83418  0.43350  0.16803  1.0000
  H   H2432     1.0  0.85119  0.41648  0.20877  1.0000
  H   H2433     1.0  0.87316  0.39423  0.18952  1.0000
  H   H2434     1.0  0.84602  0.42272  0.14237  1.0000
  H   H2435     1.0  0.82309  0.44427  0.16213  1.0000
  C   C1532     1.0  0.74624  0.35832  0.00836  1.0000
  C   C1533     1.0  0.94162  0.36608  0.16478  1.0000
  H   H2436     1.0  0.84455  0.26148  0.25305  1.0000
  H   H2437     1.0  0.80535  0.30256  0.10639  1.0000
  H   H2438     1.0  0.75175  0.42994  0.15711  1.0000
  H   H2439     1.0  0.94899  0.30558  0.24367  1.0000
  S   S618      1.0  0.78035  0.44876  0.12950  1.0000
  H   H2440     1.0  0.80185  0.36509  0.14036  1.0000
  C   C1534     1.0  0.96919  0.23647  0.30317  1.0000
  H   H2441     1.0  0.86339  0.27258  0.23745  1.0000
  H   H2442     1.0  0.91980  0.27962  0.28626  1.0000
  S   S619      1.0  0.92791  0.22165  0.28738  1.0000
  H   H2443     1.0  0.82370  0.24981  0.24022  1.0000
  H   H2444     1.0  0.74974  0.08816  0.30207  1.0000
  H   H2445     1.0  0.94801  0.25374  0.26075  1.0000
  H   H2446     1.0  0.75592  0.30145  0.07304  1.0000
  H   H2447     1.0  0.94935  0.38121  0.19044  1.0000
  H   H2448     1.0  0.77038  0.32761  0.04105  1.0000
  Fe  Fe308     1.0  0.75193  0.36721  0.10557  1.0000
  H   H2449     1.0  0.96739  0.21950  0.28448  1.0000
  N   N149      1.0  0.84547  0.26514  0.22326  1.0000
  H   H2450     1.0  0.92427  0.31386  0.25291  1.0000
  H   H2451     1.0  0.91821  0.39458  0.14620  1.0000
  C   C1535     1.0  0.77093  0.42585  0.11138  1.0000
  H   H2452     1.0  0.83103  0.41174  0.12222  1.0000
  H   H2453     1.0  0.85319  0.26699  0.19309  1.0000
  C   C1536     1.0  0.76412  0.31989  0.01779  1.0000
  C   C1537     1.0  0.83268  0.28426  0.22173  1.0000
  H   H2454     1.0  0.82659  0.25197  0.10227  1.0000
  H   H2455     1.0  0.80122  0.28897  0.13040  1.0000
  H   H2456     1.0  0.86834  0.27582  0.20228  1.0000
  H   H2457     1.0  0.86482  0.24720  0.24082  1.0000
  H   H2458     1.0  0.81952  0.41289  0.23230  1.0000
  C   C1538     1.0  0.80516  0.37780  0.12911  1.0000
  H   H2459     1.0  0.90374  0.29017  0.27026  1.0000
  C   C1539     1.0  0.75211  0.13154  0.18994  1.0000
  S   S620      1.0  0.78091  0.43353  0.18264  1.0000
  N   N150      1.0  0.93663  0.38642  0.16627  1.0000
  S   S621      1.0  0.78742  0.47795  0.16389  1.0000
  S   S622      1.0  0.74471  0.46853  0.17338  1.0000
  H   H2460     1.0  0.82529  0.28751  0.20970  1.0000
  H   H2461     1.0  0.86996  0.25038  0.20627  1.0000
  C   C1540     1.0  0.80889  0.39200  0.21387  1.0000
  C   C1541     1.0  0.81450  0.39972  0.24113  1.0000
  H   H2462     1.0  0.82169  0.38015  0.21386  1.0000
  H   H2463     1.0  0.81346  0.40504  0.20421  1.0000
  C   C1542     1.0  0.80699  0.39491  0.15181  1.0000
  H   H2464     1.0  0.80858  0.40215  0.25578  1.0000
  N   N151      1.0  0.93315  0.28319  0.25664  1.0000
  H   H2465     1.0  0.77291  0.40897  0.22630  1.0000
  C   C1543     1.0  0.91694  0.27933  0.27243  1.0000
  Fe  Fe309     1.0  0.74412  0.14887  0.29409  1.0000
  H   H2466     1.0  0.80833  0.20818  0.26841  1.0000
  H   H2467     1.0  0.82231  0.31885  0.30560  1.0000
  H   H2468     1.0  0.79621  0.17791  0.28030  1.0000
  C   C1544     1.0  0.81749  0.19502  0.27394  1.0000
  C   C1545     1.0  0.95949  0.22809  0.29478  1.0000
  C   C1546     1.0  0.79387  0.37783  0.24545  1.0000
  H   H2469     1.0  0.94035  0.30297  0.26886  1.0000
  S   S623      1.0  0.76789  0.33873  0.11872  1.0000
  C   C1547     1.0  0.84786  0.17810  0.28171  1.0000
  H   H2470     1.0  0.92543  0.26877  0.23913  1.0000
  H   H2471     1.0  0.75717  0.12225  0.20283  1.0000
  N   N152      1.0  0.80205  0.27376  0.10921  1.0000
  C   C1548     1.0  0.79084  0.26001  0.12253  1.0000
  C   C1549     1.0  0.79750  0.29162  0.11629  1.0000
  C   C1550     1.0  0.79727  0.27810  0.09029  1.0000
  C   C1551     1.0  0.82255  0.26541  0.10772  1.0000
  H   H2472     1.0  0.79386  0.24633  0.11766  1.0000
  H   H2473     1.0  0.77529  0.26600  0.12386  1.0000
  H   H2474     1.0  0.81097  0.00275  0.28541  1.0000
  C   C1552     1.0  0.74680  0.34556  0.99711  1.0000
  H   H2475     1.0  0.78208  0.29807  0.11798  1.0000
  H   H2476     1.0  0.80040  0.26495  0.08452  1.0000
  H   H2477     1.0  0.80539  0.28852  0.07987  1.0000
  H   H2478     1.0  0.78190  0.28449  0.09097  1.0000
  H   H2479     1.0  0.82662  0.26195  0.12178  1.0000
  H   H2480     1.0  0.83130  0.27564  0.09790  1.0000
  S   S624      1.0  0.76473  0.46642  0.20862  1.0000
  H   H2481     1.0  0.78079  0.43162  0.09903  1.0000
  C   C1553     1.0  0.82245  0.16076  0.28768  1.0000
  H   H2482     1.0  0.94087  0.28511  0.22645  1.0000
  C   C1554     1.0  0.84121  0.16087  0.28775  1.0000
  H   H2483     1.0  0.95543  0.35873  0.16899  1.0000
  H   H2484     1.0  0.79390  0.25655  0.13703  1.0000
  C   C1555     1.0  0.82170  0.40411  0.11881  1.0000
  H   H2485     1.0  0.82903  0.39934  0.10533  1.0000
  H   H2486     1.0  0.78298  0.37421  0.23999  1.0000
  H   H2487     1.0  0.79352  0.40526  0.14957  1.0000
  H   H2488     1.0  0.84359  0.23568  0.22739  1.0000
  H   H2489     1.0  0.82653  0.25280  0.21495  1.0000
  C   C1556     1.0  0.95021  0.26830  0.26003  1.0000
  H   H2490     1.0  0.82722  0.38785  0.24165  1.0000
  H   H2491     1.0  0.83219  0.36149  0.14944  1.0000
  C   C1557     1.0  0.83606  0.19519  0.27469  1.0000
  H   H2492     1.0  0.90663  0.38822  0.17048  1.0000
  N   N153      1.0  0.80027  0.39528  0.23325  1.0000
  H   H2493     1.0  0.78827  0.42506  0.22372  1.0000
  C   C1558     1.0  0.78384  0.41158  0.23253  1.0000
  Fe  Fe310     1.0  0.77377  0.45687  0.15791  1.0000
  S   S625      1.0  0.87643  0.24445  0.27948  1.0000
  S   S626      1.0  0.97740  0.35810  0.21835  1.0000
  H   H2494     1.0  0.77683  0.41428  0.24693  1.0000
  H   H2495     1.0  0.78755  0.37968  0.26025  1.0000
  C   C1559     1.0  0.76751  0.43233  0.12823  1.0000
  Fe  Fe311     1.0  0.79204  0.45538  0.19003  1.0000
  H   H2496     1.0  0.86875  0.28394  0.27448  1.0000
  H   H2497     1.0  0.79869  0.38826  0.20760  1.0000
  S   S627      1.0  0.84448  0.21675  0.26652  1.0000
  H   H2498     1.0  0.80591  0.36521  0.24611  1.0000
  C   C1560     1.0  0.92870  0.28281  0.23858  1.0000
  S   S628      1.0  0.76021  0.16689  0.30130  1.0000
  H   H2499     1.0  0.86228  0.17805  0.28209  1.0000
  C   C1561     1.0  0.91806  0.39545  0.16091  1.0000
  H   H2500     1.0  0.94812  0.41194  0.15422  1.0000
  H   H2501     1.0  0.93142  0.40271  0.18776  1.0000
  H   H2502     1.0  0.91379  0.41086  0.16170  1.0000
  H   H2503     1.0  0.91628  0.29428  0.23515  1.0000
  Fe  Fe312     1.0  0.85932  0.25124  0.30721  1.0000
  H   H2504     1.0  0.95386  0.26800  0.27368  1.0000
  H   H2505     1.0  0.98442  0.23455  0.29903  1.0000
  Fe  Fe313     1.0  0.75576  0.32619  0.10140  1.0000
  S   S629      1.0  0.75775  0.31013  0.98749  1.0000
  C   C1562     1.0  0.75494  0.35198  0.02411  1.0000
  Fe  Fe314     1.0  0.75299  0.44672  0.19870  1.0000
  H   H2506     1.0  0.96279  0.27084  0.24851  1.0000
  H   H2507     1.0  0.75981  0.14361  0.18479  1.0000
  C   C1563     1.0  0.93962  0.23120  0.29927  1.0000
  H   H2508     1.0  0.78279  0.35638  0.98337  1.0000
  S   S630      1.0  0.75496  0.36862  0.03717  1.0000
  C   C1564     1.0  0.74450  0.29369  0.07861  1.0000
  C   C1565     1.0  0.74871  0.40457  0.12624  1.0000
  H   H2509     1.0  0.80195  0.03467  0.29513  1.0000
  C   C1566     1.0  0.75454  0.42502  0.14406  1.0000
  C   C1567     1.0  0.74504  0.41131  0.14299  1.0000
  C   C1568     1.0  0.79786  0.99915  0.29549  1.0000
  H   H2510     1.0  0.85053  0.14765  0.29291  1.0000
  H   H2511     1.0  0.78625  0.00356  0.28739  1.0000
  H   H2512     1.0  0.74432  0.28908  0.05131  1.0000
  H   H2513     1.0  0.74260  0.06627  0.28597  1.0000
  C   C1569     1.0  0.74215  0.06219  0.30111  1.0000
  C   C1570     1.0  0.78917  0.02974  0.30473  1.0000
  Fe  Fe315     1.0  0.75616  0.22193  0.46048  1.0000
  S   S631      1.0  0.76410  0.24864  0.44061  1.0000
  H   H2514     1.0  0.79801  0.18886  0.32644  1.0000
  S   S632      1.0  0.77030  0.13031  0.33601  1.0000
  S   S633      1.0  0.76487  0.30003  0.58132  1.0000
  C   C1571     1.0  0.80600  0.23932  0.36264  1.0000
  Fe  Fe316     1.0  0.78899  0.22827  0.42778  1.0000
  S   S634      1.0  0.81807  0.23477  0.41781  1.0000
  H   H2515     1.0  0.79751  0.16640  0.32188  1.0000
  S   S635      1.0  0.78246  0.20195  0.44926  1.0000
  H   H2516     1.0  0.78733  0.28419  0.37093  1.0000
  C   C1572     1.0  0.95911  0.24780  0.31632  1.0000
  S   S636      1.0  0.78327  0.21241  0.59460  1.0000
  H   H2517     1.0  0.79018  0.14420  0.36243  1.0000
  Fe  Fe317     1.0  0.77254  0.26786  0.58592  1.0000
  S   S637      1.0  0.80204  0.25099  0.57776  1.0000
  H   H2518     1.0  0.95793  0.17665  0.34091  1.0000
  Fe  Fe318     1.0  0.78768  0.23389  0.56711  1.0000
  S   S638      1.0  0.80099  0.22644  0.53856  1.0000
  Fe  Fe319     1.0  0.79522  0.23104  0.60600  1.0000
  C   C1573     1.0  0.75266  0.15815  0.37969  1.0000
  S   S639      1.0  0.75872  0.25233  0.57316  1.0000
  S   S640      1.0  0.76704  0.24956  0.61528  1.0000
  H   H2519     1.0  0.79163  0.26208  0.38799  1.0000
  S   S641      1.0  0.97087  0.25827  0.32734  1.0000
  N   N154      1.0  0.80833  0.16393  0.34662  1.0000
  Fe  Fe320     1.0  0.86430  0.20913  0.32750  1.0000
  H   H2520     1.0  0.77610  0.13675  0.48487  1.0000
  S   S642      1.0  0.85394  0.18837  0.35396  1.0000
  H   H2521     1.0  0.81406  0.25617  0.61919  1.0000
  H   H2522     1.0  0.81185  0.98683  0.32729  1.0000
  H   H2523     1.0  0.75318  0.14534  0.37497  1.0000
  S   S643      1.0  0.81480  0.21519  0.62624  1.0000
  H   H2524     1.0  0.81809  0.23255  0.35259  1.0000
  S   S644      1.0  0.76652  0.17119  0.42319  1.0000
  C   C1574     1.0  0.76566  0.14051  0.49771  1.0000
  H   H2525     1.0  0.77777  0.26580  0.53412  1.0000
  C   C1575     1.0  0.80879  0.00270  0.32187  1.0000
  H   H2526     1.0  0.97928  0.21686  0.34098  1.0000
  C   C1576     1.0  0.82257  0.26422  0.36021  1.0000
  C   C1577     1.0  0.75922  0.15666  0.39618  1.0000
  H   H2527     1.0  0.77225  0.13332  0.51026  1.0000
  H   H2528     1.0  0.77127  0.01024  0.33709  1.0000
  C   C1578     1.0  0.75077  0.19120  0.39236  1.0000
  H   H2529     1.0  0.82558  0.27799  0.51642  1.0000
  H   H2530     1.0  0.83122  0.12643  0.62846  1.0000
  H   H2531     1.0  0.80152  0.28937  0.48675  1.0000
  C   C1579     1.0  0.80060  0.26910  0.33978  1.0000
  H   H2532     1.0  0.78386  0.16303  0.50664  1.0000
  C   C1580     1.0  0.74619  0.16597  0.51317  1.0000
  S   S645      1.0  0.74422  0.21989  0.49171  1.0000
  H   H2533     1.0  0.98214  0.15643  0.35974  1.0000
  C   C1581     1.0  0.98184  0.20392  0.35243  1.0000
  H   H2534     1.0  0.80846  0.23235  0.37715  1.0000
  H   H2535     1.0  0.75219  0.28956  0.55270  1.0000
  N   N155      1.0  0.81840  0.15656  0.62427  1.0000
  H   H2536     1.0  0.78940  0.17586  0.36965  1.0000
  C   C1582     1.0  0.74295  0.30260  0.55595  1.0000
  H   H2537     1.0  0.78481  0.30884  0.49585  1.0000
  H   H2538     1.0  0.76188  0.16756  0.46578  1.0000
  C   C1583     1.0  0.78893  0.26838  0.37334  1.0000
  C   C1584     1.0  0.81835  0.15831  0.60409  1.0000
  H   H2539     1.0  0.93133  0.25978  0.33086  1.0000
  C   C1585     1.0  0.79800  0.29793  0.49790  1.0000
  N   N156      1.0  0.76017  0.16153  0.49600  1.0000
  H   H2540     1.0  0.81207  0.26203  0.53384  1.0000
  Fe  Fe321     1.0  0.75561  0.23262  0.60172  1.0000
  H   H2541     1.0  0.81651  0.26116  0.50935  1.0000
  C   C1586     1.0  0.83117  0.21916  0.40291  1.0000
  C   C1587     1.0  0.84657  0.22432  0.38882  1.0000
  C   C1588     1.0  0.85419  0.21437  0.37408  1.0000
  C   C1589     1.0  0.84682  0.19889  0.37378  1.0000
  C   C1590     1.0  0.83257  0.19268  0.38882  1.0000
  C   C1591     1.0  0.82459  0.20294  0.40326  1.0000
  H   H2542     1.0  0.85194  0.23664  0.38872  1.0000
  H   H2543     1.0  0.86565  0.21878  0.36293  1.0000
  H   H2544     1.0  0.82716  0.18042  0.38896  1.0000
  H   H2545     1.0  0.81291  0.19866  0.41430  1.0000
  C   C1592     1.0  0.79102  0.29731  0.53151  1.0000
  H   H2546     1.0  0.80965  0.30575  0.49533  1.0000
  C   C1593     1.0  0.82829  0.16310  0.33640  1.0000
  H   H2547     1.0  0.83112  0.14898  0.59722  1.0000
  S   S646      1.0  0.77462  0.22432  0.40662  1.0000
  H   H2548     1.0  0.80559  0.15411  0.60259  1.0000
  H   H2549     1.0  0.82262  0.27985  0.35597  1.0000
  H   H2550     1.0  0.81822  0.17337  0.59592  1.0000
  C   C1594     1.0  0.80120  0.16916  0.63272  1.0000
  C   C1595     1.0  0.81322  0.27110  0.51921  1.0000
  C   C1596     1.0  0.75995  0.22217  0.50452  1.0000
  C   C1597     1.0  0.77882  0.22309  0.49577  1.0000
  C   C1598     1.0  0.79138  0.22418  0.50640  1.0000
  C   C1599     1.0  0.78507  0.22461  0.52572  1.0000
  C   C1600     1.0  0.76616  0.22387  0.53442  1.0000
  C   C1601     1.0  0.75825  0.17318  0.40257  1.0000
  H   H2551     1.0  0.78379  0.22286  0.48085  1.0000
  H   H2552     1.0  0.80600  0.22476  0.49961  1.0000
  H   H2553     1.0  0.76121  0.22404  0.54935  1.0000
  H   H2554     1.0  0.91423  0.24550  0.31561  1.0000
  H   H2555     1.0  0.78678  0.26697  0.33855  1.0000
  H   H2556     1.0  0.82516  0.25910  0.37492  1.0000
  H   H2557     1.0  0.80779  0.13611  0.34315  1.0000
  C   C1602     1.0  0.74622  0.07459  0.31018  1.0000
  H   H2558     1.0  0.77818  0.98725  0.33074  1.0000
  C   C1603     1.0  0.82259  0.24858  0.62967  1.0000
  C   C1604     1.0  0.82537  0.22858  0.63533  1.0000
  H   H2559     1.0  0.74719  0.18626  0.47747  1.0000
  C   C1605     1.0  0.79548  0.17415  0.33336  1.0000
  C   C1606     1.0  0.77577  0.00301  0.32486  1.0000
  H   H2560     1.0  0.81331  0.16625  0.37288  1.0000
  H   H2561     1.0  0.83491  0.25699  0.35070  1.0000
  H   H2562     1.0  0.76613  0.28593  0.51870  1.0000
  H   H2563     1.0  0.84871  0.15323  0.61959  1.0000
  C   C1607     1.0  0.77981  0.27558  0.51990  1.0000
  H   H2564     1.0  0.80544  0.00955  0.33428  1.0000
  C   C1608     1.0  0.96008  0.18931  0.34488  1.0000
  H   H2565     1.0  0.97380  0.17167  0.37667  1.0000
  H   H2566     1.0  0.77789  0.30856  0.53026  1.0000
  H   H2567     1.0  0.78029  0.17543  0.34072  1.0000
  S   S647      1.0  0.74903  0.08540  0.34181  1.0000
  Fe  Fe322     1.0  0.75352  0.11515  0.32582  1.0000
  N   N157      1.0  0.79551  0.28549  0.51713  1.0000
  H   H2568     1.0  0.83566  0.17761  0.61810  1.0000
  S   S648      1.0  0.84185  0.22912  0.31283  1.0000
  H   H2569     1.0  0.76367  0.00685  0.31751  1.0000
  H   H2570     1.0  0.78802  0.16489  0.63246  1.0000
  H   H2571     1.0  0.79281  0.23576  0.36145  1.0000
  H   H2572     1.0  0.81183  0.26277  0.32876  1.0000
  C   C1609     1.0  0.80454  0.17418  0.36214  1.0000
  C   C1610     1.0  0.74619  0.31099  0.56922  1.0000
  H   H2573     1.0  0.77358  0.18508  0.49258  1.0000
  H   H2574     1.0  0.75313  0.13421  0.49928  1.0000
  H   H2575     1.0  0.80034  0.18433  0.62491  1.0000
  H   H2576     1.0  0.83204  0.15416  0.32561  1.0000
  C   C1611     1.0  0.80507  0.14418  0.35459  1.0000
  N   N158      1.0  0.79293  0.00867  0.31172  1.0000
  C   C1612     1.0  0.77720  0.16923  0.49403  1.0000
  H   H2577     1.0  0.76496  0.14268  0.40405  1.0000
  H   H2578     1.0  0.80271  0.30469  0.53014  1.0000
  N   N159      1.0  0.80451  0.26027  0.35898  1.0000
  H   H2579     1.0  0.82911  0.27425  0.63288  1.0000
  S   S649      1.0  0.88008  0.23216  0.32468  1.0000
  H   H2580     1.0  0.78870  0.28840  0.54621  1.0000
  C   C1613     1.0  0.93924  0.25093  0.32079  1.0000
  H   H2581     1.0  0.75872  0.20271  0.63293  1.0000
  H   H2582     1.0  0.78269  0.26655  0.50926  1.0000
  C   C1614     1.0  0.75366  0.22253  0.52385  1.0000
  H   H2583     1.0  0.83107  0.17764  0.32895  1.0000
  Fe  Fe323     1.0  0.76573  0.19968  0.42920  1.0000
  H   H2584     1.0  0.80028  0.28481  0.33612  1.0000
  H   H2585     1.0  0.80797  0.18872  0.35669  1.0000
  H   H2586     1.0  0.77507  0.26543  0.37315  1.0000
  H   H2587     1.0  0.78468  0.03742  0.31666  1.0000
  H   H2588     1.0  0.83832  0.15675  0.34625  1.0000
  C   C1615     1.0  0.92952  0.24267  0.31229  1.0000
  H   H2589     1.0  0.97165  0.20692  0.36564  1.0000
  C   C1616     1.0  0.83108  0.25880  0.63747  1.0000
  H   H2590     1.0  0.81458  0.13597  0.36460  1.0000
  H   H2591     1.0  0.78811  0.16613  0.48125  1.0000
  H   H2592     1.0  0.94945  0.19162  0.35807  1.0000
  C   C1617     1.0  0.74536  0.06957  0.32976  1.0000
  Fe  Fe324     1.0  0.74901  0.24234  0.42137  1.0000
  H   H2593     1.0  0.95665  0.20207  0.33342  1.0000
  H   H2594     1.0  0.75013  0.20400  0.39708  1.0000
  Fe  Fe325     1.0  0.74690  0.15606  0.33164  1.0000
  C   C1618     1.0  0.83540  0.16245  0.62571  1.0000
  N   N160      1.0  0.97968  0.18662  0.34748  1.0000
  H   H2595     1.0  0.75210  0.15954  0.52623  1.0000
  C   C1619     1.0  0.74496  0.17616  0.36966  1.0000
  C   C1620     1.0  0.74404  0.19265  0.37604  1.0000
  C   C1621     1.0  0.75167  0.17041  0.47907  1.0000
  C   C1622     1.0  0.98364  0.16978  0.36294  1.0000
  H   H2596     1.0  0.80571  0.13158  0.63427  1.0000
  C   C1623     1.0  0.81858  0.13642  0.63462  1.0000
  H   H2597     1.0  0.83569  0.16150  0.64079  1.0000
  H   H2598     1.0  0.74185  0.18176  0.51232  1.0000
  S   S650      1.0  0.84410  0.28063  0.31203  1.0000
  H   H2599     1.0  0.82204  0.00671  0.31241  1.0000
  H   H2600     1.0  0.99057  0.19581  0.31762  1.0000
  H   H2601     1.0  0.94884  0.26861  0.69355  1.0000
  H   H2602     1.0  0.78512  0.18967  0.71131  1.0000
  C   C1624     1.0  0.84201  0.24913  0.65123  1.0000
  Fe  Fe326     1.0  0.77115  0.46509  0.79690  1.0000
  H   H2603     1.0  0.76846  0.29307  0.86542  1.0000
  S   S651      1.0  0.80286  0.45448  0.79079  1.0000
  H   H2604     1.0  0.78224  0.04428  0.73699  1.0000
  S   S652      1.0  0.77174  0.14054  0.71802  1.0000
  H   H2605     1.0  0.77986  0.46697  0.70869  1.0000
  S   S653      1.0  0.98406  0.34584  0.84244  1.0000
  S   S654      1.0  0.75089  0.44900  0.79379  1.0000
  C   C1625     1.0  0.76501  0.43532  0.74884  1.0000
  H   H2606     1.0  0.96462  0.25482  0.73971  1.0000
  H   H2607     1.0  0.95473  0.29662  0.80680  1.0000
  C   C1626     1.0  0.98412  0.39659  0.83173  1.0000
  H   H2608     1.0  0.88862  0.17542  0.69798  1.0000
  S   S655      1.0  0.85268  0.26219  0.66068  1.0000
  Fe  Fe327     1.0  0.86362  0.35684  0.78832  1.0000
  S   S656      1.0  0.87189  0.36770  0.80967  1.0000
  S   S657      1.0  0.83783  0.37091  0.77556  1.0000
  Fe  Fe328     1.0  0.89400  0.32018  0.79206  1.0000
  S   S658      1.0  0.90432  0.32751  0.81436  1.0000
  S   S659      1.0  0.90963  0.29519  0.77828  1.0000
  Fe  Fe329     1.0  0.87338  0.33742  0.82650  1.0000
  S   S660      1.0  0.86084  0.33476  0.85774  1.0000
  Fe  Fe330     1.0  0.90198  0.35697  0.79568  1.0000
  S   S661      1.0  0.92625  0.37255  0.78698  1.0000
  S   S662      1.0  0.86316  0.32718  0.80599  1.0000
  S   S663      1.0  0.89351  0.34906  0.77248  1.0000
  H   H2609     1.0  0.74186  0.26563  0.90839  1.0000
  H   H2610     1.0  0.82030  0.32962  0.74670  1.0000
  H   H2611     1.0  0.97632  0.30491  0.75509  1.0000
  C   C1627     1.0  0.97340  0.22356  0.70828  1.0000
  H   H2612     1.0  0.83787  0.31246  0.75808  1.0000
  Fe  Fe331     1.0  0.76801  0.31403  0.91688  1.0000
  S   S664      1.0  0.78776  0.29885  0.89457  1.0000
  S   S665      1.0  0.77534  0.33225  0.93245  1.0000
  H   H2613     1.0  0.82977  0.33583  0.76365  1.0000
  H   H2614     1.0  0.83791  0.36438  0.73913  1.0000
  H   H2615     1.0  0.86223  0.34110  0.75568  1.0000
  H   H2616     1.0  0.76213  0.42515  0.74180  1.0000
  Fe  Fe332     1.0  0.85937  0.25298  0.72774  1.0000
  S   S666      1.0  0.87268  0.22237  0.73809  1.0000
  S   S667      1.0  0.84870  0.27252  0.74844  1.0000
  Fe  Fe333     1.0  0.86186  0.24725  0.68841  1.0000
  S   S668      1.0  0.87602  0.21623  0.69529  1.0000
  H   H2617     1.0  0.76113  0.03071  0.70397  1.0000
  Fe  Fe334     1.0  0.85435  0.21522  0.72254  1.0000
  S   S669      1.0  0.83841  0.19130  0.73676  1.0000
  Fe  Fe335     1.0  0.89330  0.22590  0.71016  1.0000
  S   S670      1.0  0.83899  0.24558  0.71475  1.0000
  S   S671      1.0  0.88125  0.25735  0.70072  1.0000
  H   H2618     1.0  0.78550  0.40498  0.95413  1.0000
  S   S672      1.0  0.77817  0.14271  0.67229  1.0000
  H   H2619     1.0  0.88191  0.13845  0.74209  1.0000
  Fe  Fe336     1.0  0.76939  0.10997  0.72182  1.0000
  S   S673      1.0  0.79598  0.10287  0.70008  1.0000
  H   H2620     1.0  0.76827  0.44762  0.71109  1.0000
  Fe  Fe337     1.0  0.79617  0.13429  0.69407  1.0000
  S   S674      1.0  0.82217  0.14720  0.68286  1.0000
  Fe  Fe338     1.0  0.77640  0.11186  0.67963  1.0000
  S   S675      1.0  0.77865  0.09693  0.65637  1.0000
  C   C1628     1.0  0.75468  0.41362  0.88002  1.0000
  H   H2621     1.0  0.81896  0.13457  0.64983  1.0000
  H   H2622     1.0  0.77653  0.02123  0.73996  1.0000
  S   S676      1.0  0.80424  0.00824  0.68808  1.0000
  C   C1629     1.0  0.78732  0.07219  0.66306  1.0000
  C   C1630     1.0  0.80199  0.06534  0.67313  1.0000
  C   C1631     1.0  0.80763  0.04558  0.68003  1.0000
  C   C1632     1.0  0.79843  0.03261  0.67716  1.0000
  C   C1633     1.0  0.78408  0.03942  0.66666  1.0000
  H   H2623     1.0  0.97256  0.39544  0.82544  1.0000
  H   H2624     1.0  0.80901  0.07526  0.67561  1.0000
  H   H2625     1.0  0.81885  0.04036  0.68799  1.0000
  H   H2626     1.0  0.78698  0.19999  0.65953  1.0000
  H   H2627     1.0  0.94092  0.25556  0.73796  1.0000
  C   C1634     1.0  0.83381  0.17928  0.72164  1.0000
  C   C1635     1.0  0.82154  0.16635  0.72907  1.0000
  C   C1636     1.0  0.81781  0.15644  0.71724  1.0000
  C   C1637     1.0  0.82667  0.15919  0.69804  1.0000
  C   C1638     1.0  0.83916  0.17188  0.69068  1.0000
  C   C1639     1.0  0.84253  0.18211  0.70239  1.0000
  H   H2628     1.0  0.81485  0.16403  0.74399  1.0000
  H   H2629     1.0  0.80836  0.14645  0.72307  1.0000
  H   H2630     1.0  0.84611  0.17393  0.67584  1.0000
  H   H2631     1.0  0.85188  0.19212  0.69649  1.0000
  C   C1640     1.0  0.96975  0.24351  0.70196  1.0000
  C   C1641     1.0  0.95172  0.25318  0.69848  1.0000
  C   C1642     1.0  0.93732  0.24297  0.70148  1.0000
  C   C1643     1.0  0.94103  0.22299  0.70753  1.0000
  H   H2632     1.0  0.88664  0.16695  0.74991  1.0000
  H   H2633     1.0  0.92346  0.25053  0.69878  1.0000
  H   H2634     1.0  0.91880  0.24087  0.76563  1.0000
  C   C1644     1.0  0.79509  0.37566  0.93621  1.0000
  H   H2635     1.0  0.94548  0.22022  0.74820  1.0000
  H   H2636     1.0  0.86472  0.32892  0.70950  1.0000
  C   C1645     1.0  0.88482  0.14584  0.72686  1.0000
  H   H2637     1.0  0.87091  0.15425  0.72346  1.0000
  H   H2638     1.0  0.80716  0.44315  0.72025  1.0000
  H   H2639     1.0  0.80721  0.19470  0.67019  1.0000
  H   H2640     1.0  0.96948  0.21953  0.74900  1.0000
  H   H2641     1.0  0.75112  0.44443  0.75385  1.0000
  H   H2642     1.0  0.83877  0.20346  0.65323  1.0000
  H   H2643     1.0  0.79099  0.47011  0.73624  1.0000
  H   H2644     1.0  0.75628  0.46709  0.72269  1.0000
  H   H2645     1.0  0.87751  0.18281  0.73016  1.0000
  H   H2646     1.0  0.80480  0.38745  0.96284  1.0000
  C   C1646     1.0  0.89345  0.28664  0.77096  1.0000
  C   C1647     1.0  0.89852  0.28065  0.75369  1.0000
  C   C1648     1.0  0.88512  0.27515  0.74715  1.0000
  C   C1649     1.0  0.86654  0.27597  0.75776  1.0000
  C   C1650     1.0  0.86166  0.28145  0.77525  1.0000
  C   C1651     1.0  0.87511  0.28668  0.78188  1.0000
  H   H2647     1.0  0.91253  0.28103  0.74497  1.0000
  H   H2648     1.0  0.88890  0.27110  0.73355  1.0000
  H   H2649     1.0  0.84736  0.28189  0.78358  1.0000
  H   H2650     1.0  0.87124  0.29079  0.79544  1.0000
  C   C1652     1.0  0.84096  0.32409  0.86770  1.0000
  C   C1653     1.0  0.83174  0.32483  0.88647  1.0000
  C   C1654     1.0  0.81547  0.31706  0.89474  1.0000
  C   C1655     1.0  0.80835  0.30838  0.88434  1.0000
  C   C1656     1.0  0.81770  0.30737  0.86562  1.0000
  C   C1657     1.0  0.83394  0.31531  0.85726  1.0000
  H   H2651     1.0  0.83728  0.33135  0.89468  1.0000
  H   H2652     1.0  0.80884  0.31725  0.90936  1.0000
  H   H2653     1.0  0.81239  0.30047  0.85757  1.0000
  H   H2654     1.0  0.84111  0.31439  0.84289  1.0000
  H   H2655     1.0  0.82911  0.35757  0.72216  1.0000
  H   H2656     1.0  0.85911  0.30834  0.72724  1.0000
  H   H2657     1.0  0.96680  0.43072  0.81372  1.0000
  H   H2658     1.0  0.85301  0.36141  0.71663  1.0000
  C   C1658     1.0  0.96814  0.35361  0.82687  1.0000
  C   C1659     1.0  0.94995  0.34942  0.83329  1.0000
  C   C1660     1.0  0.93697  0.35527  0.82118  1.0000
  C   C1661     1.0  0.94201  0.36564  0.80265  1.0000
  C   C1662     1.0  0.96008  0.37016  0.79630  1.0000
  C   C1663     1.0  0.78807  0.20405  0.70346  1.0000
  H   H2659     1.0  0.94590  0.34153  0.84768  1.0000
  H   H2660     1.0  0.92295  0.35202  0.82632  1.0000
  H   H2661     1.0  0.96401  0.37823  0.78198  1.0000
  C   C1664     1.0  0.75328  0.30010  0.86946  1.0000
  H   H2662     1.0  0.74922  0.05654  0.75174  1.0000
  N   N161      1.0  0.96952  0.31341  0.78187  1.0000
  C   C1665     1.0  0.74614  0.18878  0.66095  1.0000
  H   H2663     1.0  0.74456  0.07222  0.71063  1.0000
  C   C1666     1.0  0.86555  0.33304  0.74417  1.0000
  H   H2664     1.0  0.80322  0.42681  0.74281  1.0000
  N   N162      1.0  0.77828  0.44718  0.73582  1.0000
  H   H2665     1.0  0.78632  0.45381  0.75867  1.0000
  S   S677      1.0  0.75820  0.38341  0.91049  1.0000
  C   C1667     1.0  0.81223  0.43099  0.78713  1.0000
  C   C1668     1.0  0.80057  0.41934  0.78613  1.0000
  C   C1669     1.0  0.80852  0.40100  0.78229  1.0000
  C   C1670     1.0  0.82814  0.39399  0.78006  1.0000
  C   C1671     1.0  0.83978  0.40538  0.78154  1.0000
  C   C1672     1.0  0.83186  0.42393  0.78485  1.0000
  H   H2666     1.0  0.78545  0.42440  0.78831  1.0000
  H   H2667     1.0  0.79944  0.39212  0.78139  1.0000
  H   H2668     1.0  0.85497  0.40010  0.77972  1.0000
  H   H2669     1.0  0.84098  0.43283  0.78565  1.0000
  H   H2670     1.0  0.97567  0.23855  0.76949  1.0000
  H   H2671     1.0  0.80364  0.20304  0.70118  1.0000
  Fe  Fe339     1.0  0.75378  0.14647  0.69656  1.0000
  H   H2672     1.0  0.87109  0.31779  0.75034  1.0000
  C   C1673     1.0  0.78975  0.35658  0.96821  1.0000
  H   H2673     1.0  0.90921  0.15699  0.69368  1.0000
  H   H2674     1.0  0.84098  0.32443  0.71583  1.0000
  C   C1674     1.0  0.95219  0.32750  0.77774  1.0000
  H   H2675     1.0  0.87725  0.33842  0.73302  1.0000
  S   S678      1.0  0.92341  0.20970  0.71118  1.0000
  N   N163      1.0  0.94840  0.23902  0.76436  1.0000
  C   C1675     1.0  0.94975  0.25544  0.74796  1.0000
  C   C1676     1.0  0.95470  0.22093  0.75749  1.0000
  C   C1677     1.0  0.92849  0.24052  0.77491  1.0000
  C   C1678     1.0  0.96059  0.23925  0.77705  1.0000
  C   C1679     1.0  0.91655  0.14699  0.72835  1.0000
  H   H2676     1.0  0.75561  0.21636  0.67533  1.0000
  H   H2677     1.0  0.75964  0.36904  0.95184  1.0000
  H   H2678     1.0  0.91442  0.14010  0.74375  1.0000
  Fe  Fe340     1.0  0.78553  0.98891  0.68769  1.0000
  C   C1680     1.0  0.75103  0.03341  0.71736  1.0000
  C   C1681     1.0  0.90211  0.16768  0.70268  1.0000
  C   C1682     1.0  0.76096  0.21135  0.68881  1.0000
  C   C1683     1.0  0.75871  0.06420  0.71357  1.0000
  H   H2679     1.0  0.75712  0.19712  0.69583  1.0000
  H   H2680     1.0  0.85299  0.22155  0.66751  1.0000
  H   H2681     1.0  0.79177  0.36474  0.93048  1.0000
  N   N164      1.0  0.80622  0.37826  0.84424  1.0000
  C   C1684     1.0  0.81614  0.39449  0.83848  1.0000
  C   C1685     1.0  0.81689  0.36338  0.83335  1.0000
  C   C1686     1.0  0.78685  0.38517  0.84033  1.0000
  C   C1687     1.0  0.80505  0.37000  0.86477  1.0000
  H   H2682     1.0  0.80850  0.40604  0.84636  1.0000
  H   H2683     1.0  0.81727  0.40103  0.82305  1.0000
  H   H2684     1.0  0.83086  0.38975  0.84114  1.0000
  H   H2685     1.0  0.81003  0.35075  0.83750  1.0000
  H   H2686     1.0  0.81800  0.36903  0.81779  1.0000
  H   H2687     1.0  0.83163  0.35804  0.83586  1.0000
  H   H2688     1.0  0.77887  0.37334  0.84468  1.0000
  H   H2689     1.0  0.78720  0.39144  0.82495  1.0000
  H   H2690     1.0  0.77846  0.39652  0.84822  1.0000
  H   H2691     1.0  0.81944  0.36506  0.86825  1.0000
  H   H2692     1.0  0.79815  0.35734  0.86950  1.0000
  H   H2693     1.0  0.79661  0.38065  0.87350  1.0000
  H   H2694     1.0  0.74291  0.03397  0.75444  1.0000
  S   S679      1.0  0.74448  0.33654  0.90603  1.0000
  H   H2695     1.0  0.75151  0.43778  0.85639  1.0000
  C   C1688     1.0  0.77865  0.05919  0.65947  1.0000
  C   C1689     1.0  0.77040  0.45765  0.71879  1.0000
  H   H2696     1.0  0.75299  0.22155  0.69813  1.0000
  C   C1690     1.0  0.78614  0.22908  0.67518  1.0000
  H   H2697     1.0  0.96904  0.32322  0.80670  1.0000
  H   H2698     1.0  0.92717  0.15620  0.72538  1.0000
  H   H2699     1.0  0.90075  0.18262  0.73268  1.0000
  H   H2700     1.0  0.96023  0.22686  0.78941  1.0000
  H   H2701     1.0  0.78871  0.18134  0.68060  1.0000
  H   H2702     1.0  0.98731  0.21598  0.71086  1.0000
  H   H2703     1.0  0.78260  0.23359  0.66080  1.0000
  H   H2704     1.0  0.77705  0.02954  0.66420  1.0000
  H   H2705     1.0  0.96210  0.19785  0.71547  1.0000
  H   H2706     1.0  0.92291  0.13544  0.72021  1.0000
  H   H2707     1.0  0.75302  0.31144  0.87687  1.0000
  H   H2708     1.0  0.80126  0.16882  0.64769  1.0000
  H   H2709     1.0  0.94208  0.33027  0.79106  1.0000
  H   H2710     1.0  0.78094  0.21440  0.71282  1.0000
  Fe  Fe341     1.0  0.75370  0.32121  0.95729  1.0000
  C   C1691     1.0  0.77671  0.03560  0.73032  1.0000
  H   H2711     1.0  0.77822  0.24040  0.68324  1.0000
  C   C1692     1.0  0.97318  0.36403  0.80833  1.0000
  H   H2712     1.0  0.95680  0.28941  0.78510  1.0000
  S   S680      1.0  0.74980  0.11634  0.70164  1.0000
  C   C1693     1.0  0.97824  0.43103  0.82065  1.0000
  S   S681      1.0  0.74899  0.30037  0.94273  1.0000
  H   H2713     1.0  0.76612  0.41769  0.88342  1.0000
  H   H2714     1.0  0.95432  0.20816  0.76945  1.0000
  C   C1694     1.0  0.79155  0.19589  0.67337  1.0000
  C   C1695     1.0  0.83644  0.21891  0.64893  1.0000
  N   N165      1.0  0.84861  0.33507  0.73644  1.0000
  C   C1696     1.0  0.83345  0.32799  0.75190  1.0000
  C   C1697     1.0  0.84185  0.35552  0.72819  1.0000
  C   C1698     1.0  0.85356  0.32377  0.72156  1.0000
  C   C1699     1.0  0.95912  0.21332  0.71086  1.0000
  H   H2715     1.0  0.95595  0.25261  0.78269  1.0000
  H   H2716     1.0  0.75958  0.18152  0.66474  1.0000
  N   N166      1.0  0.89851  0.15842  0.72310  1.0000
  Fe  Fe342     1.0  0.75075  0.35424  0.92288  1.0000
  C   C1700     1.0  0.78081  0.46111  0.74550  1.0000
  H   H2717     1.0  0.92686  0.22817  0.78717  1.0000
  C   C1701     1.0  0.79685  0.43466  0.73021  1.0000
  C   C1702     1.0  0.74245  0.27132  0.87152  1.0000
  H   H2718     1.0  0.97717  0.28381  0.79576  1.0000
  H   H2719     1.0  0.94485  0.26937  0.75259  1.0000
  N   N167      1.0  0.78167  0.21011  0.68522  1.0000
  H   H2720     1.0  0.89009  0.13468  0.71818  1.0000
  N   N168      1.0  0.78453  0.37569  0.95595  1.0000
  C   C1703     1.0  0.96434  0.29498  0.79288  1.0000
  H   H2721     1.0  0.80153  0.22888  0.67312  1.0000
  H   H2722     1.0  0.81071  0.37244  0.93521  1.0000
  H   H2723     1.0  0.92333  0.25383  0.78062  1.0000
  H   H2724     1.0  0.94456  0.32241  0.76965  1.0000
  H   H2725     1.0  0.76828  0.06270  0.69971  1.0000
  C   C1704     1.0  0.97870  0.32071  0.79306  1.0000
  H   H2726     1.0  0.75726  0.26340  0.86733  1.0000
  H   H2727     1.0  0.76425  0.07331  0.71969  1.0000
  S   S682      1.0  0.75479  0.47236  0.82488  1.0000
  N   N169      1.0  0.75767  0.04527  0.72643  1.0000
  S   S683      1.0  0.76444  0.99516  0.66910  1.0000
  S   S684      1.0  0.76183  0.09118  0.75079  1.0000
  H   H2728     1.0  0.97145  0.43320  0.83529  1.0000
  C   C1705     1.0  0.84451  0.22915  0.65705  1.0000
  H   H2729     1.0  0.77066  0.42676  0.76163  1.0000
  H   H2730     1.0  0.74795  0.30733  0.85619  1.0000
  C   C1706     1.0  0.89054  0.17331  0.73449  1.0000
  H   H2731     1.0  0.95549  0.34161  0.76937  1.0000
  H   H2732     1.0  0.79546  0.42379  0.72309  1.0000
  H   H2733     1.0  0.91131  0.17836  0.69956  1.0000
  C   C1707     1.0  0.76393  0.38021  0.95639  1.0000
  H   H2734     1.0  0.76731  0.06446  0.65165  1.0000
  C   C1708     1.0  0.78934  0.39037  0.96300  1.0000
  H   H2735     1.0  0.75965  0.39412  0.94659  1.0000
  H   H2736     1.0  0.79123  0.38977  0.92653  1.0000
  S   S685      1.0  0.98736  0.25672  0.69851  1.0000
  H   H2737     1.0  0.97794  0.39755  0.84680  1.0000
  C   C1709     1.0  0.74430  0.04795  0.74446  1.0000
  C   C1710     1.0  0.98278  0.31047  0.76385  1.0000
  C   C1711     1.0  0.74964  0.27681  0.89907  1.0000
  H   H2738     1.0  0.76489  0.26979  0.89550  1.0000
  C   C1712     1.0  0.74796  0.39720  0.89108  1.0000
  H   H2739     1.0  0.98705  0.36753  0.80328  1.0000
  H   H2740     1.0  0.78716  0.03330  0.71703  1.0000
  C   C1713     1.0  0.74643  0.42501  0.86468  1.0000
  H   H2741     1.0  0.74881  0.28746  0.90751  1.0000
  H   H2742     1.0  0.98703  0.32409  0.75524  1.0000
  H   H2743     1.0  0.76713  0.47100  0.74960  1.0000
  H   H2744     1.0  0.78540  0.34522  0.96400  1.0000
  H   H2745     1.0  0.75547  0.38125  0.97085  1.0000
  H   H2746     1.0  0.80533  0.35230  0.96750  1.0000
  H   H2747     1.0  0.98287  0.33456  0.78514  1.0000
  H   H2748     1.0  0.99061  0.40975  0.79390  1.0000
  H   H2749     1.0  0.98445  0.44380  0.81269  1.0000
  H   H2750     1.0  0.74971  0.01914  0.72681  1.0000
  C   C1714     1.0  0.74564  0.20089  0.64300  1.0000
  N   N170      1.0  0.74182  0.28610  0.88180  1.0000
  C   C1715     1.0  0.75667  0.65892  0.13117  1.0000
  H   H2751     1.0  0.92173  0.64489  0.22977  1.0000
  Fe  Fe343     1.0  0.77006  0.62973  0.16883  1.0000
  S   S686      1.0  0.79726  0.61085  0.17523  1.0000
  S   S687      1.0  0.76708  0.63478  0.13869  1.0000
  Fe  Fe344     1.0  0.77925  0.59864  0.20269  1.0000
  S   S688      1.0  0.78513  0.56630  0.21239  1.0000
  Fe  Fe345     1.0  0.79865  0.63329  0.18967  1.0000
  S   S689      1.0  0.82425  0.64710  0.17893  1.0000
  C   C1716     1.0  0.78066  0.53325  0.20548  1.0000
  S   S690      1.0  0.77248  0.65310  0.18129  1.0000
  N   N171      1.0  0.91779  0.67559  0.22051  1.0000
  H   H2752     1.0  0.80788  0.85345  0.25747  1.0000
  C   C1717     1.0  0.83303  0.82065  0.25528  1.0000
  H   H2753     1.0  0.79699  0.59766  0.14028  1.0000
  H   H2754     1.0  0.81850  0.84661  0.27801  1.0000
  H   H2755     1.0  0.78722  0.68888  0.14800  1.0000
  Fe  Fe346     1.0  0.84876  0.74701  0.23618  1.0000
  S   S691      1.0  0.87484  0.72374  0.23379  1.0000
  H   H2756     1.0  0.79315  0.70733  0.12749  1.0000
  Fe  Fe347     1.0  0.84156  0.74720  0.19778  1.0000
  S   S692      1.0  0.86758  0.72455  0.19160  1.0000
  S   S693      1.0  0.81805  0.75963  0.18124  1.0000
  Fe  Fe348     1.0  0.85841  0.70987  0.22190  1.0000
  S   S694      1.0  0.85829  0.67823  0.23141  1.0000
  Fe  Fe349     1.0  0.88211  0.74026  0.20389  1.0000
  S   S695      1.0  0.91190  0.74515  0.19016  1.0000
  S   S696      1.0  0.83148  0.73142  0.22742  1.0000
  S   S697      1.0  0.85686  0.76466  0.20696  1.0000
  H   H2757     1.0  0.96554  0.75953  0.23306  1.0000
  S   S698      1.0  0.78325  0.72511  0.08056  1.0000
  H   H2758     1.0  0.91020  0.70530  0.20700  1.0000
  Fe  Fe350     1.0  0.76248  0.77856  0.08280  1.0000
  S   S699      1.0  0.79223  0.76836  0.06811  1.0000
  C   C1718     1.0  0.98687  0.87563  0.27031  1.0000
  Fe  Fe351     1.0  0.77936  0.75077  0.05654  1.0000
  S   S700      1.0  0.78907  0.75211  0.02507  1.0000
  Fe  Fe352     1.0  0.79316  0.74404  0.09350  1.0000
  S   S701      1.0  0.81906  0.73366  0.10671  1.0000
  C   C1719     1.0  0.81122  0.81802  0.10101  1.0000
  S   S702      1.0  0.76430  0.75562  0.10915  1.0000
  H   H2759     1.0  0.79396  0.52671  0.21003  1.0000
  S   S703      1.0  0.89685  0.79988  0.27621  1.0000
  H   H2760     1.0  0.80771  0.58214  0.12381  1.0000
  C   C1720     1.0  0.85435  0.83759  0.26031  1.0000
  H   H2761     1.0  0.82058  0.82156  0.24924  1.0000
  H   H2762     1.0  0.94065  0.68976  0.21724  1.0000
  H   H2763     1.0  0.91492  0.66764  0.25088  1.0000
  H   H2764     1.0  0.92155  0.65380  0.20489  1.0000
  C   C1721     1.0  0.80788  0.65893  0.13299  1.0000
  H   H2765     1.0  0.82904  0.67392  0.10004  1.0000
  H   H2766     1.0  0.94556  0.67293  0.20234  1.0000
  C   C1722     1.0  0.82113  0.85220  0.26234  1.0000
  N   N172      1.0  0.83746  0.83972  0.25247  1.0000
  C   C1723     1.0  0.77584  0.74376  0.01379  1.0000
  C   C1724     1.0  0.76662  0.72855  0.02321  1.0000
  C   C1725     1.0  0.75906  0.71999  0.01289  1.0000
  C   C1726     1.0  0.76081  0.72656  0.99318  1.0000
  H   H2767     1.0  0.80981  0.72443  0.99732  1.0000
  C   C1727     1.0  0.77658  0.75101  0.99432  1.0000
  H   H2768     1.0  0.76601  0.72286  0.03826  1.0000
  H   H2769     1.0  0.76224  0.70231  0.22001  1.0000
  H   H2770     1.0  0.85216  0.83030  0.27557  1.0000
  H   H2771     1.0  0.98502  0.83061  0.26871  1.0000
  C   C1728     1.0  0.81542  0.68337  0.10516  1.0000
  C   C1729     1.0  0.81836  0.75074  0.16153  1.0000
  C   C1730     1.0  0.80162  0.75492  0.15467  1.0000
  C   C1731     1.0  0.80160  0.74940  0.13810  1.0000
  C   C1732     1.0  0.81834  0.73966  0.12825  1.0000
  C   C1733     1.0  0.83492  0.73478  0.13555  1.0000
  C   C1734     1.0  0.83494  0.74029  0.15218  1.0000
  H   H2772     1.0  0.78869  0.76275  0.16204  1.0000
  H   H2773     1.0  0.78868  0.75293  0.13287  1.0000
  H   H2774     1.0  0.84793  0.72717  0.12805  1.0000
  H   H2775     1.0  0.84793  0.73702  0.15737  1.0000
  C   C1735     1.0  0.93827  0.67564  0.21670  1.0000
  S   S704      1.0  0.78325  0.61939  0.21814  1.0000
  H   H2776     1.0  0.80430  0.68140  0.09876  1.0000
  H   H2777     1.0  0.92784  0.75866  0.27726  1.0000
  H   H2778     1.0  0.89975  0.65644  0.22222  1.0000
  H   H2779     1.0  0.79685  0.65614  0.12713  1.0000
  H   H2780     1.0  0.75388  0.57646  0.16026  1.0000
  C   C1736     1.0  0.91514  0.65683  0.21928  1.0000
  H   H2781     1.0  0.80098  0.90509  0.28290  1.0000
  H   H2782     1.0  0.82136  0.64876  0.12893  1.0000
  C   C1737     1.0  0.96018  0.72646  0.22309  1.0000
  C   C1738     1.0  0.94206  0.72281  0.23218  1.0000
  C   C1739     1.0  0.92700  0.72913  0.22245  1.0000
  C   C1740     1.0  0.93007  0.73857  0.20333  1.0000
  C   C1741     1.0  0.94817  0.74234  0.19429  1.0000
  C   C1742     1.0  0.96314  0.73650  0.20418  1.0000
  H   H2783     1.0  0.93963  0.71519  0.24686  1.0000
  H   H2784     1.0  0.91307  0.72663  0.22973  1.0000
  H   H2785     1.0  0.95068  0.74970  0.17951  1.0000
  H   H2786     1.0  0.77504  0.68657  0.20428  1.0000
  C   C1743     1.0  0.83368  0.65514  0.19397  1.0000
  C   C1744     1.0  0.84402  0.66976  0.18596  1.0000
  C   C1745     1.0  0.85130  0.67708  0.19745  1.0000
  C   C1746     1.0  0.84894  0.66930  0.21695  1.0000
  C   C1747     1.0  0.83904  0.65429  0.22494  1.0000
  C   C1748     1.0  0.83113  0.64741  0.21351  1.0000
  H   H2787     1.0  0.84624  0.67564  0.17083  1.0000
  H   H2788     1.0  0.85913  0.68843  0.19111  1.0000
  C   C1749     1.0  0.77176  0.52237  0.19891  1.0000
  H   H2789     1.0  0.82333  0.63597  0.21976  1.0000
  H   H2790     1.0  0.76403  0.81826  0.11685  1.0000
  C   C1750     1.0  0.90875  0.67907  0.23975  1.0000
  H   H2791     1.0  0.89320  0.67947  0.24295  1.0000
  H   H2792     1.0  0.81296  0.69705  0.22146  1.0000
  H   H2793     1.0  0.79145  0.55699  0.12300  1.0000
  H   H2794     1.0  0.77053  0.66010  0.10179  1.0000
  S   S705      1.0  0.75312  0.71440  0.98015  1.0000
  H   H2795     1.0  0.82085  0.68011  0.14980  1.0000
  C   C1751     1.0  0.93528  0.76106  0.26208  1.0000
  H   H2796     1.0  0.92493  0.77104  0.25379  1.0000
  H   H2797     1.0  0.80866  0.79120  0.13339  1.0000
  H   H2798     1.0  0.76596  0.59366  0.16238  1.0000
  C   C1752     1.0  0.77273  0.55267  0.20563  1.0000
  C   C1753     1.0  0.75547  0.56096  0.19984  1.0000
  C   C1754     1.0  0.82504  0.68203  0.13410  1.0000
  S   S706      1.0  0.75304  0.80989  0.08312  1.0000
  H   H2799     1.0  0.81724  0.69847  0.09945  1.0000
  H   H2800     1.0  0.82796  0.69672  0.12837  1.0000
  C   C1755     1.0  0.79192  0.69199  0.13227  1.0000
  C   C1756     1.0  0.90886  0.69087  0.20629  1.0000
  C   C1757     1.0  0.80348  0.70550  0.18753  1.0000
  H   H2801     1.0  0.77826  0.50755  0.19841  1.0000
  H   H2802     1.0  0.76536  0.71121  0.19474  1.0000
  C   C1758     1.0  0.75376  0.68773  0.10620  1.0000
  H   H2803     1.0  0.74906  0.57578  0.20023  1.0000
  H   H2804     1.0  0.89625  0.78454  0.24496  1.0000
  H   H2805     1.0  0.98521  0.85238  0.23732  1.0000
  H   H2806     1.0  0.81723  0.70920  0.18695  1.0000
  H   H2807     1.0  0.78986  0.69475  0.23567  1.0000
  C   C1759     1.0  0.79391  0.58950  0.13125  1.0000
  H   H2808     1.0  0.87382  0.76804  0.23966  1.0000
  C   C1760     1.0  0.76906  0.74247  0.98405  1.0000
  H   H2809     1.0  0.95993  0.75161  0.28520  1.0000
  C   C1761     1.0  0.80602  0.90834  0.29380  1.0000
  N   N173      1.0  0.79034  0.70692  0.20596  1.0000
  S   S707      1.0  0.88800  0.85059  0.28249  1.0000
  H   H2810     1.0  0.82468  0.80718  0.10198  1.0000
  H   H2811     1.0  0.83724  0.64817  0.24003  1.0000
  C   C1762     1.0  0.79593  0.92404  0.30201  1.0000
  C   C1763     1.0  0.75470  0.53079  0.19276  1.0000
  H   H2812     1.0  0.78346  0.55086  0.16559  1.0000
  C   C1764     1.0  0.85444  0.77046  0.26632  1.0000
  C   C1765     1.0  0.85080  0.77710  0.28311  1.0000
  H   H2813     1.0  0.96662  0.86946  0.24827  1.0000
  Fe  Fe353     1.0  0.75412  0.73876  0.09433  1.0000
  C   C1766     1.0  0.86368  0.78628  0.28627  1.0000
  C   C1767     1.0  0.98261  0.84325  0.27511  1.0000
  C   C1768     1.0  0.82262  0.89696  0.29953  1.0000
  H   H2814     1.0  0.77637  0.83654  0.11598  1.0000
  H   H2815     1.0  0.77619  0.72858  0.22221  1.0000
  C   C1769     1.0  0.79178  0.56197  0.15725  1.0000
  H   H2816     1.0  0.80662  0.69072  0.18498  1.0000
  H   H2817     1.0  0.95969  0.79319  0.26429  1.0000
  H   H2818     1.0  0.84504  0.86277  0.22936  1.0000
  H   H2819     1.0  0.82368  0.86698  0.25981  1.0000
  H   H2820     1.0  0.93985  0.78485  0.28125  1.0000
  H   H2821     1.0  0.93894  0.74716  0.25751  1.0000
  H   H2822     1.0  0.95092  0.78313  0.23017  1.0000
  H   H2823     1.0  0.94548  0.66448  0.22731  1.0000
  Fe  Fe354     1.0  0.75890  0.48743  0.18192  1.0000
  H   H2824     1.0  0.81184  0.83016  0.10687  1.0000
  S   S708      1.0  0.97870  0.71806  0.23585  1.0000
  H   H2825     1.0  0.91062  0.69301  0.24129  1.0000
  C   C1770     1.0  0.96609  0.75496  0.26972  1.0000
  H   H2826     1.0  0.83803  0.77511  0.29369  1.0000
  H   H2827     1.0  0.78020  0.73729  0.19684  1.0000
  H   H2828     1.0  0.77583  0.83023  0.09449  1.0000
  H   H2829     1.0  0.89348  0.69099  0.20857  1.0000
  C   C1771     1.0  0.88377  0.78223  0.25582  1.0000
  S   S709      1.0  0.83779  0.75997  0.26205  1.0000
  H   H2830     1.0  0.82885  0.85049  0.22561  1.0000
  C   C1772     1.0  0.84139  0.84846  0.23195  1.0000
  H   H2831     1.0  0.83863  0.67169  0.13085  1.0000
  N   N174      1.0  0.79451  0.80956  0.11134  1.0000
  H   H2832     1.0  0.79407  0.56927  0.16752  1.0000
  S   S710      1.0  0.74381  0.51798  0.18328  1.0000
  Fe  Fe355     1.0  0.75679  0.63764  0.20847  1.0000
  H   H2833     1.0  0.81088  0.82360  0.08566  1.0000
  C   C1773     1.0  0.78631  0.72683  0.20860  1.0000
  C   C1774     1.0  0.74641  0.54999  0.19358  1.0000
  C   C1775     1.0  0.77807  0.56514  0.13036  1.0000
  H   H2834     1.0  0.75723  0.69485  0.09143  1.0000
  H   H2835     1.0  0.75247  0.70782  0.02009  1.0000
  C   C1776     1.0  0.79432  0.79354  0.10306  1.0000
  H   H2836     1.0  0.79950  0.73109  0.20887  1.0000
  H   H2837     1.0  0.79555  0.81399  0.13838  1.0000
  H   H2838     1.0  0.93693  0.79810  0.25798  1.0000
  H   H2839     1.0  0.80719  0.78192  0.10424  1.0000
  H   H2840     1.0  0.79364  0.79854  0.08775  1.0000
  C   C1777     1.0  0.76371  0.58624  0.15221  1.0000
  H   H2841     1.0  0.82969  0.81378  0.27064  1.0000
  H   H2842     1.0  0.84521  0.81073  0.24836  1.0000
  H   H2843     1.0  0.85353  0.83926  0.22410  1.0000
  N   N175      1.0  0.95235  0.76900  0.25912  1.0000
  S   S711      1.0  0.92454  0.86506  0.30252  1.0000
  H   H2844     1.0  0.97705  0.73938  0.19702  1.0000
  H   H2845     1.0  0.96699  0.84782  0.27985  1.0000
  C   C1778     1.0  0.94701  0.78708  0.26597  1.0000
  C   C1779     1.0  0.76117  0.66809  0.11204  1.0000
  C   C1780     1.0  0.79916  0.69376  0.22150  1.0000
  C   C1781     1.0  0.96103  0.77290  0.23865  1.0000
  C   C1782     1.0  0.77696  0.82433  0.10964  1.0000
  C   C1783     1.0  0.88025  0.78875  0.27265  1.0000
  H   H2846     1.0  0.76903  0.55457  0.13871  1.0000
  H   H2847     1.0  0.97915  0.76050  0.26783  1.0000
  N   N176      1.0  0.78188  0.57571  0.14276  1.0000
  S   S712      1.0  0.83509  0.87752  0.28878  1.0000
  H   H2848     1.0  0.78348  0.76296  0.98706  1.0000
  H   H2849     1.0  0.86718  0.82881  0.25282  1.0000
  H   H2850     1.0  0.78319  0.79563  0.13974  1.0000
  H   H2851     1.0  0.79743  0.71549  0.17550  1.0000
  H   H2852     1.0  0.78037  0.69035  0.12631  1.0000
  N   N177      1.0  0.81007  0.67910  0.12613  1.0000
  H   H2853     1.0  0.91550  0.68897  0.19155  1.0000
  H   H2854     1.0  0.80365  0.65523  0.14872  1.0000
  H   H2855     1.0  0.97378  0.77920  0.23587  1.0000
  C   C1784     1.0  0.87098  0.77300  0.25271  1.0000
  H   H2856     1.0  0.78672  0.60030  0.12037  1.0000
  C   C1785     1.0  0.79552  0.80229  0.13159  1.0000
  H   H2857     1.0  0.78322  0.93281  0.29737  1.0000
  H   H2858     1.0  0.97132  0.88126  0.27425  1.0000
  H   H2859     1.0  0.80590  0.55430  0.15072  1.0000
  H   H2860     1.0  0.78168  0.78707  0.11029  1.0000
  H   H2861     1.0  0.83320  0.72892  0.99253  1.0000
  H   H2862     1.0  0.85758  0.85179  0.25928  1.0000
  H   H2863     1.0  0.80200  0.67857  0.22020  1.0000
  H   H2864     1.0  0.77050  0.57508  0.11932  1.0000
  C   C1786     1.0  0.77246  0.70155  0.20624  1.0000
  Fe  Fe356     1.0  0.88626  0.82004  0.29643  1.0000
  Fe  Fe357     1.0  0.85953  0.85795  0.30122  1.0000
  Fe  Fe358     1.0  0.90026  0.85015  0.30707  1.0000
  H   H2865     1.0  0.82928  0.70472  0.00049  1.0000
  S   S713      1.0  0.74932  0.76300  0.06933  1.0000
  H   H2866     1.0  0.97056  0.74121  0.26474  1.0000
  C   C1787     1.0  0.82491  0.71894  0.99125  1.0000
  H   H2867     1.0  0.75631  0.59746  0.14176  1.0000
  H   H2868     1.0  0.74521  0.61786  0.24647  1.0000
  S   S714      1.0  0.75166  0.61599  0.19513  1.0000
  C   C1788     1.0  0.74454  0.66926  0.14438  1.0000
  H   H2869     1.0  0.98890  0.83838  0.28804  1.0000
  H   H2870     1.0  0.86093  0.79110  0.29937  1.0000
  H   H2871     1.0  0.98810  0.87660  0.23382  1.0000
  H   H2872     1.0  0.80026  0.98321  0.30033  1.0000
  N   N178      1.0  0.99088  0.85899  0.26140  1.0000
  H   H2873     1.0  0.81843  0.69050  0.97935  1.0000
  C   C1789     1.0  0.98232  0.86463  0.24443  1.0000
  H   H2874     1.0  0.95480  0.87927  0.30736  1.0000
  S   S715      1.0  0.75667  0.98083  0.29208  1.0000
  H   H2875     1.0  0.79990  0.71121  0.97519  1.0000
  C   C1790     1.0  0.74142  0.69802  0.11940  1.0000
  Fe  Fe359     1.0  0.76107  0.86462  0.57565  1.0000
  H   H2876     1.0  0.76537  0.91416  0.60571  1.0000
  S   S716      1.0  0.77315  0.82529  0.39600  1.0000
  S   S717      1.0  0.76304  0.83346  0.58958  1.0000
  S   S718      1.0  0.77505  0.87130  0.59597  1.0000
  H   H2877     1.0  0.77092  0.76092  0.41318  1.0000
  S   S719      1.0  0.87183  0.86056  0.32457  1.0000
  C   C1791     1.0  0.76409  0.78775  0.38209  1.0000
  H   H2878     1.0  0.76835  0.91203  0.38335  1.0000
  H   H2879     1.0  0.80206  0.88430  0.36473  1.0000
  H   H2880     1.0  0.75356  0.88381  0.39422  1.0000
  S   S720      1.0  0.76309  0.81956  0.49332  1.0000
  S   S721      1.0  0.76688  0.85174  0.43868  1.0000
  S   S722      1.0  0.74755  0.81404  0.45063  1.0000
  C   C1792     1.0  0.76437  0.83518  0.50690  1.0000
  H   H2881     1.0  0.78240  0.91702  0.35970  1.0000
  Fe  Fe360     1.0  0.75328  0.83376  0.46578  1.0000
  C   C1793     1.0  0.76922  0.93710  0.63826  1.0000
  H   H2882     1.0  0.76365  0.78106  0.61668  1.0000
  Fe  Fe361     1.0  0.74549  0.87778  0.61318  1.0000
  Fe  Fe362     1.0  0.87111  0.82936  0.33564  1.0000
  S   S723      1.0  0.86172  0.82098  0.36747  1.0000
  N   N179      1.0  0.77180  0.89096  0.36698  1.0000
  C   C1794     1.0  0.76549  0.85969  0.52963  1.0000
  H   H2883     1.0  0.77239  0.81215  0.52991  1.0000
  H   H2884     1.0  0.98164  0.86390  0.32388  1.0000
  H   H2885     1.0  0.90051  0.81717  0.37747  1.0000
  C   C1795     1.0  0.76118  0.86728  0.51154  1.0000
  H   H2886     1.0  0.76959  0.77900  0.37104  1.0000
  S   S724      1.0  0.79002  0.94799  0.32646  1.0000
  C   C1796     1.0  0.82904  0.90132  0.31360  1.0000
  H   H2887     1.0  0.90494  0.83198  0.40194  1.0000
  H   H2888     1.0  0.90686  0.86347  0.34461  1.0000
  C   C1797     1.0  0.76261  0.91857  0.61905  1.0000
  H   H2889     1.0  0.92784  0.85619  0.35443  1.0000
  C   C1798     1.0  0.97153  0.85567  0.32395  1.0000
  H   H2890     1.0  0.75824  0.88268  0.50628  1.0000
  H   H2891     1.0  0.78325  0.78029  0.62708  1.0000
  H   H2892     1.0  0.75607  0.86831  0.37849  1.0000
  C   C1799     1.0  0.88255  0.85351  0.37778  1.0000
  S   S725      1.0  0.85679  0.82734  0.31344  1.0000
  C   C1800     1.0  0.75889  0.76016  0.40733  1.0000
  C   C1801     1.0  0.83069  0.85481  0.62455  1.0000
  C   C1802     1.0  0.97316  0.83661  0.33400  1.0000
  C   C1803     1.0  0.76958  0.83976  0.53618  1.0000
  H   H2893     1.0  0.90896  0.87491  0.36217  1.0000
  H   H2894     1.0  0.78412  0.93572  0.60956  1.0000
  S   S726      1.0  0.74570  0.84769  0.62981  1.0000
  C   C1804     1.0  0.95970  0.82620  0.33445  1.0000
  H   H2895     1.0  0.93481  0.82645  0.32476  1.0000
  C   C1805     1.0  0.81693  0.84710  0.62101  1.0000
  H   H2896     1.0  0.75694  0.86111  0.48641  1.0000
  H   H2897     1.0  0.96096  0.81143  0.34221  1.0000
  S   S727      1.0  0.76502  0.87550  0.54387  1.0000
  N   N180      1.0  0.74990  0.77941  0.39785  1.0000
  C   C1806     1.0  0.79773  0.82428  0.38856  1.0000
  C   C1807     1.0  0.80876  0.82514  0.40076  1.0000
  C   C1808     1.0  0.82844  0.82404  0.39426  1.0000
  C   C1809     1.0  0.83704  0.82246  0.37547  1.0000
  C   C1810     1.0  0.82587  0.82189  0.36329  1.0000
  C   C1811     1.0  0.80633  0.82264  0.36985  1.0000
  H   H2898     1.0  0.80221  0.82636  0.41525  1.0000
  H   H2899     1.0  0.83699  0.82441  0.40379  1.0000
  H   H2900     1.0  0.83233  0.82040  0.34894  1.0000
  H   H2901     1.0  0.79787  0.82198  0.36035  1.0000
  H   H2902     1.0  0.87888  0.86706  0.38297  1.0000
  S   S728      1.0  0.90063  0.81895  0.31981  1.0000
  N   N181      1.0  0.90331  0.84641  0.37313  1.0000
  Fe  Fe363     1.0  0.76119  0.96020  0.31924  1.0000
  C   C1812     1.0  0.95636  0.86433  0.31459  1.0000
  C   C1813     1.0  0.76809  0.78700  0.62669  1.0000
  Fe  Fe364     1.0  0.75808  0.83396  0.42370  1.0000
  H   H2903     1.0  0.78585  0.89569  0.33756  1.0000
  H   H2904     1.0  0.75408  0.79324  0.41796  1.0000
  H   H2905     1.0  0.81112  0.91474  0.64073  1.0000
  C   C1814     1.0  0.81903  0.91709  0.32173  1.0000
  Fe  Fe365     1.0  0.77443  0.84070  0.61142  1.0000
  H   H2906     1.0  0.81036  0.85414  0.60897  1.0000
  H   H2907     1.0  0.76049  0.89955  0.34156  1.0000
  H   H2908     1.0  0.92284  0.82236  0.36312  1.0000
  H   H2909     1.0  0.90164  0.83056  0.35359  1.0000
  H   H2910     1.0  0.78841  0.87892  0.38857  1.0000
  H   H2911     1.0  0.79105  0.86384  0.37242  1.0000
  H   H2912     1.0  0.92695  0.83744  0.38716  1.0000
  C   C1815     1.0  0.78912  0.87900  0.37346  1.0000
  C   C1816     1.0  0.91211  0.86089  0.35795  1.0000
  C   C1817     1.0  0.77319  0.89038  0.34701  1.0000
  C   C1818     1.0  0.75504  0.88348  0.37906  1.0000
  C   C1819     1.0  0.80248  0.92848  0.31593  1.0000
  H   H2913     1.0  0.87612  0.85634  0.36515  1.0000
  C   C1820     1.0  0.94484  0.83471  0.32466  1.0000
  H   H2914     1.0  0.90855  0.85623  0.39558  1.0000
  C   C1821     1.0  0.76041  0.85509  0.50029  1.0000
  H   H2915     1.0  0.83448  0.86785  0.61526  1.0000
  C   C1822     1.0  0.90733  0.82831  0.36656  1.0000
  H   H2916     1.0  0.87539  0.84275  0.38893  1.0000
  C   C1823     1.0  0.81230  0.82996  0.63256  1.0000
  H   H2917     1.0  0.77444  0.87551  0.34544  1.0000
  H   H2918     1.0  0.82415  0.92047  0.33249  1.0000
  C   C1824     1.0  0.91128  0.84287  0.39022  1.0000
  H   H2919     1.0  0.77648  0.78874  0.38726  1.0000
  H   H2920     1.0  0.74205  0.77696  0.58117  1.0000
  C   C1825     1.0  0.76907  0.82754  0.52482  1.0000
  H   H2921     1.0  0.75712  0.92049  0.36325  1.0000
  H   H2922     1.0  0.77343  0.83374  0.54983  1.0000
  C   C1826     1.0  0.77317  0.93081  0.62124  1.0000
  C   C1827     1.0  0.76986  0.91099  0.36840  1.0000
  H   H2923     1.0  0.76454  0.75030  0.39727  1.0000
  S   S729      1.0  0.79559  0.81970  0.62780  1.0000
  H   H2924     1.0  0.76763  0.80253  0.62060  1.0000
  C   C1828     1.0  0.74786  0.91292  0.63378  1.0000
  C   C1829     1.0  0.94306  0.85384  0.31481  1.0000
  H   H2925     1.0  0.84187  0.89275  0.31801  1.0000
  S   S730      1.0  0.78129  0.95390  0.64000  1.0000
  C   C1830     1.0  0.83969  0.84563  0.63985  1.0000
  H   H2926     1.0  0.75796  0.80260  0.37509  1.0000
  H   H2927     1.0  0.74900  0.78324  0.52139  1.0000
  H   H2928     1.0  0.74854  0.75352  0.41934  1.0000
  H   H2929     1.0  0.82194  0.89007  0.64009  1.0000
  C   C1831     1.0  0.74254  0.79194  0.41174  1.0000
  S   S731      1.0  0.74174  0.94223  0.31804  1.0000
  H   H2930     1.0  0.74169  0.89219  0.37459  1.0000
  Fe  Fe366     1.0  0.80085  0.63843  0.79003  1.0000
  S   S732      1.0  0.78960  0.62846  0.82109  1.0000
  S   S733      1.0  0.82913  0.64706  0.77681  1.0000
  H   H2931     1.0  0.97590  0.61692  0.83593  1.0000
  C   C1832     1.0  0.80851  0.87553  0.67692  1.0000
  H   H2932     1.0  0.85802  0.68140  0.85308  1.0000
  C   C1833     1.0  0.76363  0.58911  0.77078  1.0000
  C   C1834     1.0  0.83497  0.73176  0.76813  1.0000
  Fe  Fe367     1.0  0.77743  0.60818  0.81213  1.0000
  S   S734      1.0  0.77937  0.57720  0.82772  1.0000
  Fe  Fe368     1.0  0.77456  0.69911  0.91442  1.0000
  S   S735      1.0  0.79133  0.61611  0.78143  1.0000
  Fe  Fe369     1.0  0.80347  0.71851  0.91944  1.0000
  S   S736      1.0  0.83507  0.71349  0.91612  1.0000
  N   N182      1.0  0.82749  0.71750  0.97132  1.0000
  N   N183      1.0  0.82771  0.68487  0.86232  1.0000
  H   H2933     1.0  0.83062  0.91336  0.66381  1.0000
  Fe  Fe370     1.0  0.89414  0.67913  0.81473  1.0000
  S   S737      1.0  0.87581  0.70655  0.80289  1.0000
  S   S738      1.0  0.88045  0.65384  0.82928  1.0000
  Fe  Fe371     1.0  0.92944  0.69634  0.80322  1.0000
  S   S739      1.0  0.91396  0.72538  0.79059  1.0000
  S   S740      1.0  0.96132  0.69019  0.79922  1.0000
  Fe  Fe372     1.0  0.89092  0.72012  0.81640  1.0000
  S   S741      1.0  0.87288  0.74360  0.83076  1.0000
  Fe  Fe373     1.0  0.90036  0.70912  0.77835  1.0000
  S   S742      1.0  0.89658  0.71823  0.74825  1.0000
  S   S743      1.0  0.90754  0.69237  0.83036  1.0000
  S   S744      1.0  0.91754  0.68033  0.78885  1.0000
  C   C1835     1.0  0.82631  0.70072  0.77989  1.0000
  Fe  Fe374     1.0  0.86379  0.82149  0.71133  1.0000
  S   S745      1.0  0.88175  0.81442  0.68385  1.0000
  S   S746      1.0  0.84749  0.80202  0.73447  1.0000
  Fe  Fe375     1.0  0.87157  0.86132  0.70218  1.0000
  S   S747      1.0  0.89009  0.85786  0.67400  1.0000
  S   S748      1.0  0.86743  0.88953  0.71009  1.0000
  Fe  Fe376     1.0  0.86776  0.84424  0.67091  1.0000
  Fe  Fe377     1.0  0.90239  0.82876  0.68955  1.0000
  S   S749      1.0  0.93422  0.81806  0.68341  1.0000
  S   S750      1.0  0.84821  0.85010  0.69797  1.0000
  S   S751      1.0  0.88552  0.83328  0.71815  1.0000
  Fe  Fe378     1.0  0.77533  0.95070  0.70916  1.0000
  H   H2934     1.0  0.84549  0.72808  0.77741  1.0000
  S   S752      1.0  0.77987  0.92350  0.73103  1.0000
  C   C1836     1.0  0.76206  0.79260  0.65832  1.0000
  C   C1837     1.0  0.96062  0.61698  0.83739  1.0000
  H   H2935     1.0  0.81786  0.80742  0.65684  1.0000
  S   S753      1.0  0.78982  0.69451  0.93796  1.0000
  S   S754      1.0  0.78168  0.74111  0.93240  1.0000
  H   H2936     1.0  0.96680  0.65197  0.83602  1.0000
  N   N184      1.0  0.75581  0.78399  0.64582  1.0000
  H   H2937     1.0  0.92221  0.64954  0.82432  1.0000
  H   H2938     1.0  0.92686  0.91076  0.70328  1.0000
  H   H2939     1.0  0.92930  0.86421  0.67823  1.0000
  C   C1838     1.0  0.74320  0.54271  0.81457  1.0000
  C   C1839     1.0  0.84328  0.89869  0.71784  1.0000
  C   C1840     1.0  0.83668  0.91855  0.71528  1.0000
  C   C1841     1.0  0.81720  0.92615  0.71993  1.0000
  C   C1842     1.0  0.80431  0.91390  0.72730  1.0000
  C   C1843     1.0  0.81094  0.89400  0.73059  1.0000
  C   C1844     1.0  0.83044  0.88640  0.72578  1.0000
  H   H2940     1.0  0.84657  0.92811  0.70928  1.0000
  H   H2941     1.0  0.81219  0.94153  0.71784  1.0000
  H   H2942     1.0  0.80102  0.88448  0.73643  1.0000
  H   H2943     1.0  0.83553  0.87102  0.72831  1.0000
  C   C1845     1.0  0.97086  0.83427  0.71495  1.0000
  H   H2944     1.0  0.84135  0.67520  0.88630  1.0000
  C   C1846     1.0  0.96760  0.82300  0.68844  1.0000
  C   C1847     1.0  0.94814  0.82395  0.69597  1.0000
  C   C1848     1.0  0.94018  0.82952  0.71331  1.0000
  C   C1849     1.0  0.95155  0.83454  0.72283  1.0000
  C   C1850     1.0  0.75309  0.58868  0.74303  1.0000
  H   H2945     1.0  0.97390  0.81854  0.67509  1.0000
  H   H2946     1.0  0.92529  0.82999  0.71942  1.0000
  H   H2947     1.0  0.94533  0.83889  0.73623  1.0000
  C   C1851     1.0  0.86060  0.77856  0.73827  1.0000
  C   C1852     1.0  0.86800  0.76901  0.72325  1.0000
  C   C1853     1.0  0.87873  0.75024  0.72645  1.0000
  C   C1854     1.0  0.88238  0.74124  0.74455  1.0000
  C   C1855     1.0  0.87498  0.75080  0.75954  1.0000
  C   C1856     1.0  0.86388  0.76937  0.75645  1.0000
  H   H2948     1.0  0.86537  0.77611  0.70921  1.0000
  H   H2949     1.0  0.88443  0.74284  0.71483  1.0000
  H   H2950     1.0  0.87778  0.74398  0.77354  1.0000
  H   H2951     1.0  0.85816  0.77679  0.76806  1.0000
  S   S755      1.0  0.79748  0.95879  0.68344  1.0000
  C   C1857     1.0  0.96891  0.70226  0.84634  1.0000
  C   C1858     1.0  0.96029  0.69925  0.83303  1.0000
  C   C1859     1.0  0.97130  0.69550  0.81563  1.0000
  C   C1860     1.0  0.74800  0.57322  0.81727  1.0000
  C   C1861     1.0  0.82232  0.73683  0.95946  1.0000
  H   H2952     1.0  0.96043  0.70479  0.85994  1.0000
  H   H2953     1.0  0.94522  0.69955  0.83636  1.0000
  H   H2954     1.0  0.79568  0.56735  0.75541  1.0000
  C   C1862     1.0  0.84583  0.72244  0.89267  1.0000
  C   C1863     1.0  0.86423  0.71350  0.88513  1.0000
  C   C1864     1.0  0.87255  0.71982  0.86603  1.0000
  C   C1865     1.0  0.86265  0.73538  0.85460  1.0000
  C   C1866     1.0  0.84434  0.74445  0.86224  1.0000
  C   C1867     1.0  0.83582  0.73782  0.88119  1.0000
  H   H2955     1.0  0.87196  0.70155  0.89397  1.0000
  H   H2956     1.0  0.88680  0.71300  0.86031  1.0000
  H   H2957     1.0  0.83666  0.75653  0.85344  1.0000
  H   H2958     1.0  0.82161  0.74481  0.88695  1.0000
  C   C1868     1.0  0.83485  0.82865  0.65167  1.0000
  C   C1869     1.0  0.76919  0.65557  0.86077  1.0000
  C   C1870     1.0  0.77560  0.65583  0.87676  1.0000
  C   C1871     1.0  0.76943  0.67195  0.88498  1.0000
  S   S756      1.0  0.77486  0.66092  0.78507  1.0000
  C   C1872     1.0  0.95181  0.65070  0.83792  1.0000
  H   H2959     1.0  0.77393  0.64305  0.85466  1.0000
  H   H2960     1.0  0.78536  0.64349  0.88280  1.0000
  H   H2961     1.0  0.86248  0.70064  0.76216  1.0000
  C   C1873     1.0  0.84359  0.64785  0.79174  1.0000
  C   C1874     1.0  0.85888  0.65718  0.78382  1.0000
  C   C1875     1.0  0.87007  0.65917  0.79536  1.0000
  C   C1876     1.0  0.86658  0.65104  0.81480  1.0000
  C   C1877     1.0  0.85178  0.64101  0.82267  1.0000
  C   C1878     1.0  0.84006  0.63973  0.81121  1.0000
  H   H2962     1.0  0.86204  0.66294  0.76870  1.0000
  H   H2963     1.0  0.88164  0.66667  0.78908  1.0000
  H   H2964     1.0  0.84925  0.63437  0.83763  1.0000
  H   H2965     1.0  0.82855  0.63216  0.81737  1.0000
  C   C1879     1.0  0.76531  0.56408  0.82265  1.0000
  H   H2966     1.0  0.85790  0.71572  0.74001  1.0000
  Fe  Fe379     1.0  0.77444  0.96407  0.66740  1.0000
  S   S757      1.0  0.75820  0.49293  0.77966  1.0000
  H   H2967     1.0  0.84508  0.69017  0.83431  1.0000
  H   H2968     1.0  0.90486  0.88779  0.71831  1.0000
  C   C1880     1.0  0.84474  0.69086  0.84910  1.0000
  H   H2969     1.0  0.94883  0.86511  0.68759  1.0000
  H   H2970     1.0  0.85107  0.69279  0.74801  1.0000
  H   H2971     1.0  0.94398  0.88140  0.66603  1.0000
  H   H2972     1.0  0.85191  0.69439  0.97263  1.0000
  C   C1881     1.0  0.96001  0.75685  0.85300  1.0000
  H   H2973     1.0  0.81586  0.68035  0.89234  1.0000
  N   N185      1.0  0.95047  0.63594  0.82856  1.0000
  S   S758      1.0  0.76531  0.98021  0.71497  1.0000
  H   H2974     1.0  0.83642  0.69581  0.78970  1.0000
  H   H2975     1.0  0.75644  0.60308  0.73580  1.0000
  H   H2976     1.0  0.77727  0.78656  0.65900  1.0000
  H   H2977     1.0  0.94322  0.90819  0.68120  1.0000
  C   C1882     1.0  0.84756  0.70909  0.96421  1.0000
  N   N186      1.0  0.83321  0.71456  0.76268  1.0000
  H   H2978     1.0  0.75191  0.70033  0.88349  1.0000
  C   C1883     1.0  0.76084  0.55916  0.76574  1.0000
  Fe  Fe380     1.0  0.76614  0.74232  0.90996  1.0000
  H   H2979     1.0  0.82120  0.73882  0.77594  1.0000
  H   H2980     1.0  0.82457  0.68770  0.77620  1.0000
  C   C1884     1.0  0.81050  0.69836  0.85703  1.0000
  H   H2981     1.0  0.84525  0.70581  0.84909  1.0000
  H   H2982     1.0  0.78475  0.53700  0.82847  1.0000
  H   H2983     1.0  0.79741  0.69457  0.86707  1.0000
  H   H2984     1.0  0.80921  0.69824  0.84255  1.0000
  H   H2985     1.0  0.81063  0.71336  0.85721  1.0000
  N   N187      1.0  0.92461  0.88809  0.69147  1.0000
  C   C1885     1.0  0.93722  0.87412  0.68033  1.0000
  C   C1886     1.0  0.93596  0.90013  0.69481  1.0000
  C   C1887     1.0  0.91526  0.87772  0.70993  1.0000
  C   C1888     1.0  0.91002  0.90040  0.68088  1.0000
  H   H2986     1.0  0.92571  0.86907  0.71875  1.0000
  H   H2987     1.0  0.97982  0.76238  0.81706  1.0000
  S   S759      1.0  0.75362  0.77196  0.89548  1.0000
  H   H2988     1.0  0.84101  0.88865  0.66303  1.0000
  C   C1889     1.0  0.95919  0.64065  0.80812  1.0000
  H   H2989     1.0  0.82424  0.73626  0.94430  1.0000
  H   H2990     1.0  0.74411  0.94807  0.75156  1.0000
  H   H2991     1.0  0.76988  0.74811  0.96905  1.0000
  H   H2992     1.0  0.95881  0.62964  0.80062  1.0000
  C   C1890     1.0  0.93028  0.63544  0.83078  1.0000
  H   H2993     1.0  0.91646  0.90861  0.66692  1.0000
  C   C1891     1.0  0.75677  0.68785  0.87718  1.0000
  N   N188      1.0  0.97702  0.76549  0.84558  1.0000
  S   S760      1.0  0.75197  0.64262  0.75304  1.0000
  H   H2994     1.0  0.79510  0.87281  0.67525  1.0000
  H   H2995     1.0  0.74801  0.76037  0.66812  1.0000
  H   H2996     1.0  0.92313  0.63199  0.84599  1.0000
  H   H2997     1.0  0.75221  0.93490  0.66654  1.0000
  H   H2998     1.0  0.77309  0.58165  0.78104  1.0000
  H   H2999     1.0  0.81788  0.70751  0.74562  1.0000
  H   H3000     1.0  0.96283  0.79244  0.85336  1.0000
  C   C1892     1.0  0.82875  0.89834  0.67018  1.0000
  C   C1893     1.0  0.80999  0.89962  0.64777  1.0000
  C   C1894     1.0  0.81962  0.72022  0.74989  1.0000
  C   C1895     1.0  0.82133  0.82071  0.64788  1.0000
  H   H3001     1.0  0.79549  0.92397  0.67110  1.0000
  H   H3002     1.0  0.82969  0.89528  0.68537  1.0000
  H   H3003     1.0  0.76984  0.60514  0.85368  1.0000
  C   C1896     1.0  0.75515  0.93054  0.65328  1.0000
  N   N189      1.0  0.93078  0.76672  0.72435  1.0000
  C   C1897     1.0  0.92806  0.75926  0.74512  1.0000
  C   C1898     1.0  0.91461  0.78249  0.72007  1.0000
  C   C1899     1.0  0.93182  0.75115  0.71490  1.0000
  C   C1900     1.0  0.94860  0.77401  0.71730  1.0000
  H   H3004     1.0  0.91482  0.75347  0.75079  1.0000
  H   H3005     1.0  0.92690  0.77073  0.75272  1.0000
  H   H3006     1.0  0.94002  0.74738  0.74896  1.0000
  H   H3007     1.0  0.91540  0.78753  0.70449  1.0000
  H   H3008     1.0  0.90083  0.77792  0.72636  1.0000
  H   H3009     1.0  0.91420  0.79508  0.72578  1.0000
  H   H3010     1.0  0.93384  0.75631  0.69920  1.0000
  H   H3011     1.0  0.91859  0.74537  0.71981  1.0000
  H   H3012     1.0  0.94375  0.73891  0.71798  1.0000
  H   H3013     1.0  0.95102  0.77974  0.70165  1.0000
  H   H3014     1.0  0.96112  0.76255  0.72033  1.0000
  H   H3015     1.0  0.94825  0.78596  0.72394  1.0000
  H   H3016     1.0  0.81227  0.70706  0.78785  1.0000
  S   S761      1.0  0.77787  0.67158  0.90499  1.0000
  H   H3017     1.0  0.80854  0.87205  0.69238  1.0000
  Fe  Fe381     1.0  0.76291  0.64955  0.81569  1.0000
  S   S762      1.0  0.78957  0.72202  0.89521  1.0000
  H   H3018     1.0  0.95093  0.76058  0.84230  1.0000
  H   H3019     1.0  0.78072  0.90668  0.67692  1.0000
  H   H3020     1.0  0.95989  0.60550  0.83067  1.0000
  H   H3021     1.0  0.96253  0.79141  0.82963  1.0000
  H   H3022     1.0  0.75345  0.79027  0.67303  1.0000
  H   H3023     1.0  0.75428  0.58084  0.73182  1.0000
  S   S763      1.0  0.98430  0.84214  0.72649  1.0000
  H   H3024     1.0  0.98078  0.76505  0.87334  1.0000
  C   C1901     1.0  0.77142  0.54418  0.82420  1.0000
  H   H3025     1.0  0.90125  0.89173  0.67812  1.0000
  H   H3026     1.0  0.95442  0.61298  0.85283  1.0000
  H   H3027     1.0  0.83115  0.74665  0.95999  1.0000
  C   C1902     1.0  0.82840  0.68496  0.88190  1.0000
  H   H3028     1.0  0.82584  0.66487  0.84693  1.0000
  C   C1903     1.0  0.75615  0.67124  0.85323  1.0000
  C   C1904     1.0  0.82719  0.66531  0.86130  1.0000
  H   H3029     1.0  0.82848  0.69954  0.88322  1.0000
  H   H3030     1.0  0.81489  0.66014  0.87170  1.0000
  H   H3031     1.0  0.94403  0.66510  0.83179  1.0000
  C   C1905     1.0  0.98820  0.75851  0.82837  1.0000
  C   C1906     1.0  0.97128  0.78664  0.84071  1.0000
  H   H3032     1.0  0.83980  0.74266  0.75542  1.0000
  H   H3033     1.0  0.84037  0.65491  0.86439  1.0000
  S   S764      1.0  0.74957  0.71974  0.92728  1.0000
  H   H3034     1.0  0.95117  0.76179  0.86599  1.0000
  H   H3035     1.0  0.95164  0.65467  0.80093  1.0000
  N   N190      1.0  0.76582  0.57803  0.75630  1.0000
  H   H3036     1.0  0.75634  0.91494  0.76858  1.0000
  H   H3037     1.0  0.76984  0.55098  0.77627  1.0000
  H   H3038     1.0  0.76264  0.55017  0.75534  1.0000
  H   H3039     1.0  0.76542  0.51822  0.82094  1.0000
  H   H3040     1.0  0.82447  0.73056  0.73668  1.0000
  H   H3041     1.0  0.84175  0.82148  0.66350  1.0000
  Fe  Fe382     1.0  0.76418  0.63781  0.77909  1.0000
  C   C1907     1.0  0.97892  0.82828  0.69782  1.0000
  H   H3042     1.0  0.80533  0.72717  0.75688  1.0000
  H   H3043     1.0  0.74879  0.59154  0.77899  1.0000
  H   H3044     1.0  0.77202  0.75582  0.65489  1.0000
  Fe  Fe383     1.0  0.76656  0.71739  0.94893  1.0000
  H   H3045     1.0  0.81710  0.70344  0.95554  1.0000
  C   C1908     1.0  0.98869  0.75990  0.86019  1.0000
  H   H3046     1.0  0.90725  0.86782  0.70799  1.0000
  C   C1909     1.0  0.76049  0.53352  0.81996  1.0000
  H   H3047     1.0  0.98396  0.79342  0.83511  1.0000
  H   H3048     1.0  0.94566  0.64753  0.85341  1.0000
  C   C1910     1.0  0.74995  0.68737  0.86147  1.0000
  H   H3049     1.0  0.76082  0.80838  0.65293  1.0000
  C   C1911     1.0  0.85195  0.70553  0.75277  1.0000
  H   H3050     1.0  0.76787  0.60951  0.87672  1.0000
  H   H3051     1.0  0.90000  0.91086  0.68905  1.0000
  H   H3052     1.0  0.79654  0.89738  0.64565  1.0000
  S   S765      1.0  0.85673  0.85596  0.64382  1.0000
  H   H3053     1.0  0.94712  0.89121  0.70279  1.0000
  C   C1912     1.0  0.76305  0.60133  0.86894  1.0000
  S   S766      1.0  0.74964  0.62846  0.80934  1.0000
  H   H3054     1.0  0.96405  0.74087  0.85684  1.0000
  H   H3055     1.0  0.76874  0.58576  0.87388  1.0000
  C   C1913     1.0  0.78573  0.57530  0.74574  1.0000
  H   H3056     1.0  0.78989  0.58937  0.73866  1.0000
  H   H3057     1.0  0.79502  0.90645  0.69306  1.0000
  H   H3058     1.0  0.78797  0.56709  0.73455  1.0000
  H   H3059     1.0  0.85002  0.70795  0.94914  1.0000
  C   C1914     1.0  0.79472  0.90873  0.67776  1.0000
  H   H3060     1.0  0.82038  0.86519  0.67022  1.0000
  H   H3061     1.0  0.97424  0.64187  0.80587  1.0000
  H   H3062     1.0  0.92862  0.62461  0.82375  1.0000
  S   S767      1.0  0.75313  0.95373  0.69290  1.0000
  H   H3063     1.0  0.76714  0.60347  0.76412  1.0000
  C   C1915     1.0  0.75718  0.76319  0.65370  1.0000
  N   N191      1.0  0.81049  0.89556  0.66815  1.0000
  H   H3064     1.0  0.74582  0.56083  0.77367  1.0000
  S   S768      1.0  0.74661  0.67053  0.83424  1.0000
  H   H3065     1.0  0.75262  0.75630  0.64451  1.0000
  C   C1916     1.0  0.98844  0.70200  0.84211  1.0000
  C   C1917     1.0  0.99082  0.69522  0.81143  1.0000
  H   H3066     1.0  0.74181  0.63143  0.84986  1.0000
  H   H3067     1.0  0.80723  0.74352  0.96421  1.0000
  H   H3068     1.0  0.85721  0.71805  0.96483  1.0000
  C   C1918     1.0  0.74432  0.91873  0.65096  1.0000
  C   C1919     1.0  0.81521  0.70511  0.97033  1.0000
  H   H3069     1.0  0.74309  0.58851  0.81609  1.0000
  H   H3070     1.0  0.74335  0.90622  0.75678  1.0000
  H   H3071     1.0  0.74248  0.59922  0.84510  1.0000
  N   N192      1.0  0.74214  0.60557  0.87162  1.0000
  H   H3072     1.0  0.74206  0.57909  0.86465  1.0000
  Fe  Fe384     1.0  0.74508  0.98423  0.69610  1.0000
  C   C1920     1.0  0.74227  0.91168  0.76964  1.0000
