data_image0
_chemical_formula_structural       FeS2FeS2FeSFeS3FeS2FeS2FeSFeS3FeS2FeS2FeSFeS3FeS2FeS2FeSFeS3FeS2FeS2FeSFeS3FeS2FeS2FeSFeS3FeS2FeS2FeSFeS3FeS2FeS2FeSFeS3FeS2FeS2FeSFeS3FeS2FeS2FeSFeS3FeS2FeS2FeSFeS3FeS2FeS2FeSFeS3FeS2FeS2FeSFeS3FeS2FeS2FeSFeS3FeS2FeS2FeSFeS3FeS2FeS2FeSFeS3FeS2FeS2FeSFeS3FeS2FeS2FeSFeS3FeS2FeS2FeSFeS3FeS2FeS2FeSFeS3FeS2FeS2FeSFeS3FeS2FeS2FeSFeS3FeS2FeS2FeSFeS3FeS2FeS2FeSFeS3C6H4C6H4C6H4C6H4C6H4C6H4C6H4C6H4C6H4C6H4C6H4C6H4C6H4C6H4C6H4C6H4C6H4C6H4C6H4C6H4C6H4C6H4C6H4C6H4C6H4C6H4C6H4C6H4C6H4C6H4C6H4C6H4C6H4C6H4C6H4C6H4C6H4C6H4C6H4C6H4C6H4C6H4C6H4C6H4C6H4C6H4C6H4C6H4NC4H12NC4H12NC4H12NC4H12NC4H12NC4H12NC4H12NC4H12NC4H12NC4H12NC4H12NC4H12NC4H12NC4H12NC4H12NC4H12NC4H12NC4H12NC4H12NC4H12NC4H12NC4H12NC4H12NC4H12NC4H12NC4H12NC4H12NC4H12NC4H12NC4H12NC4H12NC4H12NC4H12NC4H12NC4H12NC4H12NC4H12NC4H12NC4H12NC4H12NC4H12NC4H12NC4H12NC4H12NC4H12NC4H12NC4H12NC4H12
_chemical_formula_sum              "Fe96 S192 C480 H768 N48"
_cell_length_a       46.18750188181855
_cell_length_b       46.122853469309945
_cell_length_c       46.60718606092539
_cell_angle_alpha    86.08681455621938
_cell_angle_beta     86.7025988826659
_cell_angle_gamma    86.23569879779203

_space_group_name_H-M_alt    "P 1"
_space_group_IT_number       1

loop_
  _space_group_symop_operation_xyz
  'x, y, z'

loop_
  _atom_site_type_symbol
  _atom_site_label
  _atom_site_symmetry_multiplicity
  _atom_site_fract_x
  _atom_site_fract_y
  _atom_site_fract_z
  _atom_site_occupancy
  Fe  Fe1       1.0  0.9265876718910686  0.6235727740676111  0.25356043628680697  1.0000
  S   S1        1.0  0.9122675215551812  0.6071898002500709  0.2983075578366552  1.0000
  S   S2        1.0  0.9736593876194748  0.6191933664344845  0.23658212561842049  1.0000
  Fe  Fe2       1.0  0.8639008226449201  0.6346333057100301  0.23535100966313216  1.0000
  S   S3        1.0  0.8451898711647721  0.6189428440482898  0.2784529015708094  1.0000
  S   S4        1.0  0.8371187450355438  0.6492768686861216  0.19727404029211967  1.0000
  Fe  Fe3       1.0  0.8788170063730328  0.6449639559297853  0.29579122605786873  1.0000
  S   S5        1.0  0.8631809793905423  0.6701328563601612  0.33412182345559066  1.0000
  Fe  Fe4       1.0  0.8801139932805044  0.5826774372153661  0.2766529723394897  1.0000
  S   S6        1.0  0.8695971290416163  0.536614069170283  0.29202187424288206  1.0000
  S   S7        1.0  0.8954993353890525  0.66339776346242  0.2525574344876276  1.0000
  S   S8        1.0  0.8963886119515521  0.5964412300553408  0.23200960180089591  1.0000
  Fe  Fe5       1.0  0.6804808255142116  0.6969054098722915  0.1681210956012  1.0000
  S   S9        1.0  0.7125750390736567  0.7246216481316664  0.14377458218465886  1.0000
  S   S10       1.0  0.6992011396191532  0.6608792002056083  0.19843527992648832  1.0000
  Fe  Fe6       1.0  0.628806617656745  0.7376365485373282  0.14918860254889008  1.0000
  S   S11       1.0  0.6585107020526323  0.7681454209055231  0.12401962050817983  1.0000
  S   S12       1.0  0.5824732556764631  0.7576889777316086  0.14995802921031556  1.0000
  Fe  Fe7       1.0  0.6815811417414983  0.7275876210258174  0.10803892587617765  1.0000
  S   S13       1.0  0.7031069690945846  0.723710139007394  0.0632056795318154  1.0000
  Fe  Fe8       1.0  0.6863467433412961  0.7618746588654668  0.16209492338724754  1.0000
  S   S14       1.0  0.7095185900063006  0.7980750125025838  0.17961417290102197  1.0000
  S   S15       1.0  0.6506763076321482  0.6969358768549648  0.13112020095401947  1.0000
  S   S16       1.0  0.6552930914072863  0.7343209446836082  0.18835453058446286  1.0000
  Fe  Fe9       1.0  0.7966172949567408  0.8251671802363595  0.34750416214102386  1.0000
  S   S17       1.0  0.7636598489189579  0.7934723900863966  0.36265458894861885  1.0000
  S   S18       1.0  0.8387972675668635  0.8072095680174453  0.32651647213517565  1.0000
  Fe  Fe10      1.0  0.7571101390212319  0.8774522333077185  0.36505747456965243  1.0000
  S   S19       1.0  0.7211571761597693  0.8484688315309847  0.38053693082562035  1.0000
  S   S20       1.0  0.7453215702226565  0.9240172857961043  0.3769199179706004  1.0000
  Fe  Fe11      1.0  0.7562538024073352  0.8200615165283817  0.40118982976586265  1.0000
  S   S21       1.0  0.750203005758988  0.7976408221415217  0.4457353249231418  1.0000
  Fe  Fe12      1.0  0.732274230110345  0.8249524579136552  0.34033014386762334  1.0000
  S   S22       1.0  0.7001736863541631  0.8033883241088177  0.3152118288544596  1.0000
  S   S23       1.0  0.7918398629710374  0.8496713701860787  0.38793457896572325  1.0000
  S   S24       1.0  0.7654562356566229  0.85593206572655  0.32294526959119774  1.0000
  Fe  Fe13      1.0  0.6227927338224089  0.7123540296554205  0.8480640790717813  1.0000
  S   S25       1.0  0.6289015972164018  0.754571845433568  0.8674740233283105  1.0000
  S   S26       1.0  0.5815585176382597  0.6970022460330358  0.8314235542408641  1.0000
  Fe  Fe14      1.0  0.685807980109287  0.6898067297840332  0.8575384433419635  1.0000
  S   S27       1.0  0.6962199733818865  0.7296596208486563  0.8790590848059205  1.0000
  S   S28       1.0  0.7169978759909192  0.6518993655044565  0.8462009407354675  1.0000
  Fe  Fe15      1.0  0.6520366718163249  0.7268838976476815  0.9019936457453304  1.0000
  S   S29       1.0  0.634422008564788  0.734052167740135  0.9478499254588293  1.0000
  Fe  Fe16      1.0  0.6722872262399322  0.7533963249786568  0.8428286432615057  1.0000
  S   S30       1.0  0.6942302127259313  0.7906737057616838  0.8185318644050812  1.0000
  S   S31       1.0  0.6436607127937626  0.6846118880179269  0.8835060175973901  1.0000
  S   S32       1.0  0.664200609209407  0.7136548124905713  0.8203405646679308  1.0000
  Fe  Fe17      1.0  0.8728942006496301  0.636149018716626  0.7851789212868281  1.0000
  S   S33       1.0  0.8442434413333189  0.6092782364358128  0.7623236572396913  1.0000
  S   S34       1.0  0.8512901601472947  0.6671529323267901  0.8168667442088102  1.0000
  Fe  Fe18      1.0  0.9268488178465265  0.6169168765366978  0.7475560776993148  1.0000
  S   S35       1.0  0.9006859642995821  0.5895376095975847  0.7215590999831147  1.0000
  S   S36       1.0  0.9744157693201436  0.6178460802023584  0.7321515583373809  1.0000
  Fe  Fe19      1.0  0.8673160183889499  0.6275409634544283  0.7222722300472163  1.0000
  S   S37       1.0  0.8367150668047602  0.6488070790625319  0.689818203283721  1.0000
  Fe  Fe20      1.0  0.8804836616320544  0.574377718379472  0.7645044391963736  1.0000
  S   S38       1.0  0.8740137792155304  0.5286010299167969  0.784313457083119  1.0000
  S   S39       1.0  0.894814467608036  0.655832334094694  0.7449528743369278  1.0000
  S   S40       1.0  0.9079989560883446  0.6001652431445851  0.7906008337613105  1.0000
  Fe  Fe21      1.0  0.776901070460286  0.843702418843399  0.603419442439145  1.0000
  S   S41       1.0  0.8154078765499283  0.8568811752445477  0.6260428529529771  1.0000
  S   S42       1.0  0.7762110256602923  0.8617367835841607  0.5567763998953175  1.0000
  Fe  Fe22      1.0  0.7496996351506519  0.8161700218216802  0.6597546234608173  1.0000
  S   S43       1.0  0.7860986728725482  0.828013718368363  0.6853496787511906  1.0000
  S   S44       1.0  0.7127941465321435  0.7919557508391392  0.6825220231140359  1.0000
  Fe  Fe23      1.0  0.782536088888155  0.8713330906486728  0.6602783262523655  1.0000
  S   S45       1.0  0.7795147060197158  0.9122721373070608  0.6850895403987516  1.0000
  Fe  Fe24      1.0  0.8146013803815995  0.81215121399515  0.6486234405311992  1.0000
  S   S46       1.0  0.8542007546097297  0.7830142438189232  0.6596631725690529  1.0000
  S   S47       1.0  0.7439945339021808  0.8605612332446985  0.6368446287098146  1.0000
  S   S48       1.0  0.7784772460961465  0.7978659139529289  0.6237025084864178  1.0000
  Fe  Fe25      1.0  0.8428021255947175  0.30963137915392613  0.7214641755081336  1.0000
  S   S49       1.0  0.8680914077400669  0.2871048077219126  0.7567759860202656  1.0000
  S   S50       1.0  0.8116194632820829  0.2863323930533666  0.6967377851057782  1.0000
  Fe  Fe26      1.0  0.8604946731117061  0.369929357382004  0.7358427383339644  1.0000
  S   S51       1.0  0.8863911102148274  0.35182288766494124  0.7731934493247213  1.0000
  S   S52       1.0  0.8600279074868254  0.4161978326750936  0.7158981998343983  1.0000
  Fe  Fe27      1.0  0.9030823570143284  0.31764164075409684  0.7433289822846566  1.0000
  S   S53       1.0  0.949810167368231  0.3000868363785451  0.7369635525958549  1.0000
  Fe  Fe28      1.0  0.8490060015749572  0.3229572221850115  0.7834227335178627  1.0000
  S   S54       1.0  0.8322905713975315  0.30606391282729656  0.8274117488402393  1.0000
  S   S55       1.0  0.8793985972498638  0.3371060553121285  0.7052311630002778  1.0000
  S   S56       1.0  0.8215766771987427  0.3441379301466683  0.748810692498065  1.0000
  Fe  Fe29      1.0  0.6185130525484687  0.22958981972169504  0.8449266368773692  1.0000
  S   S57       1.0  0.6385043151053951  0.1883840984182958  0.8657489346967244  1.0000
  S   S58       1.0  0.5764057612477911  0.2271629558505602  0.8223077298861065  1.0000
  Fe  Fe30      1.0  0.6729509909391777  0.2624979638897238  0.8534713703744987  1.0000
  S   S59       1.0  0.6959891573547549  0.22360765622815196  0.8755381409216488  1.0000
  S   S60       1.0  0.6945368084666023  0.304462404807769  0.8406242170443289  1.0000
  Fe  Fe31      1.0  0.6794867617546572  0.19926001907071794  0.8402150671244984  1.0000
  S   S61       1.0  0.7094528603759269  0.16713398098745083  0.8161878409031815  1.0000
  Fe  Fe32      1.0  0.6526209839366063  0.21710117481805524  0.8989737838566147  1.0000
  S   S62       1.0  0.6430153539712503  0.20126569248211937  0.9456684411935079  1.0000
  S   S63       1.0  0.6587457653646449  0.23842938985539908  0.8170359523022828  1.0000
  S   S64       1.0  0.6302902888528485  0.2580219441808379  0.8792995636551861  1.0000
  Fe  Fe33      1.0  0.7296966667945635  0.12891402407829045  0.6556919261016803  1.0000
  S   S65       1.0  0.7702410967734629  0.10302486751437265  0.6692409782142603  1.0000
  S   S66       1.0  0.6926597007353205  0.14479211639111916  0.6857362311747981  1.0000
  Fe  Fe34      1.0  0.7524563414343722  0.1377916183148165  0.5925790114798021  1.0000
  S   S67       1.0  0.7948208216033439  0.11379244160774252  0.6020297856510017  1.0000
  S   S68       1.0  0.7441690843193838  0.16202366831693157  0.5495282322421693  1.0000
  Fe  Fe35      1.0  0.7676743400011767  0.08121970890058756  0.6275976238259083  1.0000
  S   S69       1.0  0.780128469768097  0.0352085079618559  0.614738614204861  1.0000
  Fe  Fe36      1.0  0.7931339826334751  0.13781994212613083  0.6424016873359494  1.0000
  S   S70       1.0  0.833161598878507  0.15772671521794657  0.6564281491470267  1.0000
  S   S71       1.0  0.725029352715027  0.10438465768564002  0.6160318102388095  1.0000
  S   S72       1.0  0.7528689534239944  0.16455665663361016  0.630930781062296  1.0000
  Fe  Fe37      1.0  0.9335407900880183  0.3306408402331298  0.22325996837542697  1.0000
  S   S73       1.0  0.9158915464542757  0.3570249636311018  0.2597036170104911  1.0000
  S   S74       1.0  0.9810931693916293  0.3171597492553565  0.21393806188238337  1.0000
  Fe  Fe38      1.0  0.8722780508556338  0.32547068328360934  0.200690529415883  1.0000
  S   S75       1.0  0.8507511383649682  0.3527117682554258  0.23481100152888307  1.0000
  S   S76       1.0  0.8484133413138092  0.3003926389630575  0.1703567751856462  1.0000
  Fe  Fe39      1.0  0.8885926082461526  0.38140292193059044  0.226318227679649  1.0000
  S   S77       1.0  0.8913382064779445  0.4295481870220146  0.21290133472221676  1.0000
  Fe  Fe40      1.0  0.8802200714901095  0.3253948581571228  0.2643152804515836  1.0000
  S   S78       1.0  0.8627107021584761  0.30312293486939507  0.30608441800807007  1.0000
  S   S79       1.0  0.9078340367550308  0.35581504117618906  0.18956016446837531  1.0000
  S   S80       1.0  0.9002539249065825  0.29739780352983786  0.23029834926968354  1.0000
  Fe  Fe41      1.0  0.6729924390363587  0.210774838359751  0.15710840578482468  1.0000
  S   S81       1.0  0.6516240091238874  0.24951072969950117  0.17820778484547545  1.0000
  S   S82       1.0  0.6830460195424487  0.1685741175952472  0.18318644211787882  1.0000
  Fe  Fe42      1.0  0.6806438472827292  0.24392537438796394  0.0984295758734889  1.0000
  S   S83       1.0  0.6607344404171619  0.28501923028212794  0.1162148224356988  1.0000
  S   S84       1.0  0.6986794656675924  0.25117358388203187  0.0523768217423635  1.0000
  Fe  Fe43      1.0  0.6873738664038204  0.2733854721442129  0.15447120371799752  1.0000
  S   S85       1.0  0.7109142996975552  0.30670178893559075  0.17600308827260466  1.0000
  Fe  Fe44      1.0  0.6271181798972608  0.2567163820010591  0.13786113922013754  1.0000
  S   S86       1.0  0.58047082465575  0.27486885792053556  0.13518693330632703  1.0000
  S   S87       1.0  0.7099677277124262  0.23440244280831435  0.13524992844192565  1.0000
  S   S88       1.0  0.6455855873265778  0.2159757919579651  0.1180791127800951  1.0000
  Fe  Fe45      1.0  0.7815399571998702  0.0851143618375319  0.3316398665590048  1.0000
  S   S89       1.0  0.7437604816082818  0.09964698234026317  0.36080437315136954  1.0000
  S   S90       1.0  0.7914938049111807  0.040326539811603154  0.3145321038576452  1.0000
  Fe  Fe46      1.0  0.8096421938071022  0.14410269110687948  0.33191780268856896  1.0000
  S   S91       1.0  0.7746844781883326  0.162582642290761  0.3619833818380481  1.0000
  S   S92       1.0  0.8480797135175879  0.16675463565801146  0.31080146297921846  1.0000
  Fe  Fe47      1.0  0.7772404920898603  0.1185417826461392  0.38632915381187466  1.0000
  S   S93       1.0  0.7837141553044782  0.1027948970429439  0.4330464268730999  1.0000
  Fe  Fe48      1.0  0.7446260675269324  0.14216316719039496  0.3336686767222776  1.0000
  S   S94       1.0  0.7071684128317022  0.17066695715191513  0.3158943914916945  1.0000
  S   S95       1.0  0.8149845114758268  0.1017672427806783  0.3581414369467303  1.0000
  S   S96       1.0  0.7796492069570526  0.1260685721737035  0.30246729657633775  1.0000
  Fe  Fe49      1.0  0.19004324351866783  0.6254810141899256  0.8134801070384459  1.0000
  S   S97       1.0  0.21195737664953845  0.6054926670423163  0.7749955130936369  1.0000
  S   S98       1.0  0.21450561479323196  0.6455386516034175  0.8469947739096482  1.0000
  Fe  Fe50      1.0  0.1290637603956302  0.6133436953190585  0.7950461984483201  1.0000
  S   S99       1.0  0.14694962609123774  0.592630847668286  0.7548755432342408  1.0000
  S   S100      1.0  0.08192992042578012  0.6212814987180725  0.8103417316566482  1.0000
  Fe  Fe51      1.0  0.18056235126473733  0.5701985172135999  0.7835294869451759  1.0000
  S   S101      1.0  0.19803109926922893  0.5233097075539034  0.7917106319450352  1.0000
  Fe  Fe52      1.0  0.1765578543571961  0.6301275334187395  0.7507358907951804  1.0000
  S   S102      1.0  0.18840249174820917  0.6571572259641564  0.7098285155222398  1.0000
  S   S103      1.0  0.16077384296832725  0.5888923317927484  0.8239771368401091  1.0000
  S   S104      1.0  0.15632021068244364  0.6519977004063128  0.7890143732175782  1.0000
  Fe  Fe53      1.0  0.3622292061934621  0.7212588150639443  0.91505495046813  1.0000
  S   S105      1.0  0.3959745676063917  0.6923217942296505  0.8924698416233104  1.0000
  S   S106      1.0  0.3439721026325153  0.7100815063592265  0.9605906466688361  1.0000
  Fe  Fe54      1.0  0.3523527482947181  0.7610322364193329  0.8595736301675072  1.0000
  S   S107      1.0  0.3859559698089784  0.7354483068218408  0.8335895164622155  1.0000
  S   S108      1.0  0.32061142061101705  0.7960411299448602  0.8411321695476137  1.0000
  Fe  Fe55      1.0  0.3656234374053018  0.6962443565323175  0.855852995610672  1.0000
  S   S109      1.0  0.3500048609977358  0.6613486755416889  0.8294685615676184  1.0000
  Fe  Fe56      1.0  0.41290176984583143  0.7343707556963839  0.87263159020977  1.0000
  S   S110      1.0  0.45805828120148673  0.7504686234406345  0.8757026449607485  1.0000
  S   S111      1.0  0.33091383925778495  0.7221464168829737  0.879840262218324  1.0000
  S   S112      1.0  0.38021591145579847  0.7631571120925283  0.8972808959048305  1.0000
  Fe  Fe57      1.0  0.22860790783761334  0.8180567366657417  0.6838777819910613  1.0000
  S   S113      1.0  0.2705781046589378  0.7970758985779562  0.667175577761476  1.0000
  S   S114      1.0  0.1983339737566683  0.793432290895819  0.7149951530325895  1.0000
  Fe  Fe58      1.0  0.24378216298195862  0.8784868291774248  0.6578731977739076  1.0000
  S   S115      1.0  0.28733135828443535  0.8617921365763186  0.6394611983774331  1.0000
  S   S116      1.0  0.22463075434091181  0.9251155957854862  0.6539336110342688  1.0000
  Fe  Fe59      1.0  0.2630227335246575  0.8245447311816914  0.6260776312605177  1.0000
  S   S117      1.0  0.2708406471398488  0.8009893264239308  0.5847169871831788  1.0000
  Fe  Fe60      1.0  0.2904970856760649  0.8358673991553254  0.6821383448826378  1.0000
  S   S118      1.0  0.33159871886961234  0.8284915617961232  0.7062832223864752  1.0000
  S   S119      1.0  0.21905277870924306  0.8427089783623061  0.6418408842753338  1.0000
  S   S120      1.0  0.24902772418654476  0.8555126387504464  0.7014718957567055  1.0000
  Fe  Fe61      1.0  0.15870801269141757  0.37131129356177517  0.7433250112501312  1.0000
  S   S121      1.0  0.1415396647326048  0.36165565929812754  0.7887514899074739  1.0000
  S   S122      1.0  0.16682098078221197  0.4163116699883806  0.7229105464461335  1.0000
  Fe  Fe62      1.0  0.14924462808674685  0.30970488149178016  0.7264955654732115  1.0000
  S   S123      1.0  0.13002444577798286  0.296076556484106  0.770231233243247  1.0000
  S   S124      1.0  0.15614725376650926  0.2804199385079644  0.6894815825489515  1.0000
  Fe  Fe63      1.0  0.10592675733756315  0.3401401345964042  0.7686882719504544  1.0000
  S   S125      1.0  0.05965871586830637  0.35452684160157355  0.783482757642401  1.0000
  Fe  Fe64      1.0  0.16741039855092527  0.31865172168102496  0.7858037641218946  1.0000
  S   S126      1.0  0.19182896264724353  0.2936145074196095  0.8213286173260875  1.0000
  S   S127      1.0  0.12195527830134324  0.3518366675297513  0.7234473218439821  1.0000
  S   S128      1.0  0.18776126599396165  0.3301136392665783  0.7419185740067754  1.0000
  Fe  Fe65      1.0  0.4079156875536402  0.2267829954907875  0.8717155810385474  1.0000
  S   S129      1.0  0.388665650568577  0.18406514729682388  0.8843506946735339  1.0000
  S   S130      1.0  0.4517959289017495  0.23613606452374988  0.88756838272253  1.0000
  Fe  Fe66      1.0  0.34936270592392304  0.2542957664408239  0.8525083484524573  1.0000
  S   S131      1.0  0.3258698695778113  0.21401897590766936  0.8652126086163111  1.0000
  S   S132      1.0  0.328628670548553  0.2940227407802742  0.8289347781919683  1.0000
  Fe  Fe67      1.0  0.35189429418289414  0.21082766759513974  0.9049000510159918  1.0000
  S   S133      1.0  0.335545237893032  0.19435276373814045  0.9495392365312305  1.0000
  Fe  Fe68      1.0  0.3646293881100022  0.19140393934800198  0.8434973531064927  1.0000
  S   S134      1.0  0.35661001584773383  0.15528331756670327  0.8151118059415549  1.0000
  S   S135      1.0  0.37191747839551936  0.2534097198244083  0.8940534174243915  1.0000
  S   S136      1.0  0.38729923287679524  0.23179910989889585  0.828828707049223  1.0000
  Fe  Fe69      1.0  0.25302176570263485  0.1282168350453421  0.6216449619900725  1.0000
  S   S137      1.0  0.22967632907377764  0.09624883421224921  0.652052944811091  1.0000
  S   S138      1.0  0.23585099076431182  0.12922581091929813  0.5767049897252322  1.0000
  Fe  Fe70      1.0  0.28988690773654346  0.14604483766632745  0.6700665644355427  1.0000
  S   S139      1.0  0.2700271791205367  0.11420001062180346  0.7024301495645786  1.0000
  S   S140      1.0  0.3173131345994864  0.1798948776046646  0.6865615620550815  1.0000
  Fe  Fe71      1.0  0.27402044302075057  0.08284764305116264  0.6673225854631042  1.0000
  S   S141      1.0  0.29378915395275945  0.03635368310734334  0.6721673026843316  1.0000
  Fe  Fe72      1.0  0.22809859716876438  0.13104633135089477  0.6838255133849697  1.0000
  S   S142      1.0  0.193856426036063  0.14721198971742488  0.7164142575126872  1.0000
  S   S143      1.0  0.29768093439248644  0.11351105541988352  0.6357944378803375  1.0000
  S   S144      1.0  0.24762147848590005  0.16394172062523232  0.6523820913410058  1.0000
  Fe  Fe73      1.0  0.30787546342003486  0.12757979602724584  0.3512845426737361  1.0000
  S   S145      1.0  0.2655783251763467  0.11060432243355407  0.3407199981919772  1.0000
  S   S146      1.0  0.34752289122521757  0.12927543604385067  0.3206343771731715  1.0000
  Fe  Fe74      1.0  0.2859500252822201  0.1400189716587801  0.41326874331046004  1.0000
  S   S147      1.0  0.24222791219363815  0.12390815004223867  0.4068676898115406  1.0000
  S   S148      1.0  0.29861642855206744  0.158913089904543  0.45415816029443873  1.0000
  Fe  Fe75      1.0  0.26677998500826  0.08717892876129082  0.3846853201158364  1.0000
  S   S149      1.0  0.2603496959892968  0.04025255611132101  0.4004308736735272  1.0000
  Fe  Fe76      1.0  0.24591650347565114  0.1491243032072936  0.36386084511870614  1.0000
  S   S150      1.0  0.20914319250604865  0.17822526501330516  0.34588484530494773  1.0000
  S   S151      1.0  0.3104659697576873  0.10198621292575209  0.39389273963524307  1.0000
  S   S152      1.0  0.28823035803585917  0.16744937341433822  0.37146379363734666  1.0000
  Fe  Fe77      1.0  0.13266423528816887  0.3610135946756094  0.26480886923612157  1.0000
  S   S153      1.0  0.1594344732366458  0.3795450837307032  0.2974504858400299  1.0000
  S   S154      1.0  0.0840863999586233  0.36853686520491136  0.27528603681946834  1.0000
  Fe  Fe78      1.0  0.18671061680149068  0.34033595468200323  0.22927322829365818  1.0000
  S   S155      1.0  0.21648781715099072  0.35786665983458793  0.2587734305227698  1.0000
  S   S156      1.0  0.2072527796466613  0.3142249540518003  0.19314574592124353  1.0000
  Fe  Fe79      1.0  0.18797580016431628  0.3383940852916304  0.29430856175423636  1.0000
  S   S157      1.0  0.21336265164515303  0.315804448254784  0.33050393297712255  1.0000
  Fe  Fe80      1.0  0.18559865896226027  0.3974673269664777  0.2591002911105226  1.0000
  S   S158      1.0  0.20711331557117965  0.4406252383982224  0.2556849744070522  1.0000
  S   S159      1.0  0.15939334245215278  0.31826152146648673  0.26486627323041095  1.0000
  S   S160      1.0  0.1574916111234779  0.3815726443472217  0.22633753086920402  1.0000
  Fe  Fe81      1.0  0.3671974333627249  0.25591993066270013  0.1657398479967409  1.0000
  S   S161      1.0  0.3412404672402628  0.22921790661553226  0.13982555238576305  1.0000
  S   S162      1.0  0.34507393501203826  0.295364536429383  0.18623729492975447  1.0000
  Fe  Fe82      1.0  0.42277952349525505  0.21613862946186665  0.1559185951748249  1.0000
  S   S163      1.0  0.39941561281001237  0.18654369171431184  0.12972950597860378  1.0000
  S   S164      1.0  0.46981777257156687  0.2010170375803282  0.16369375259041608  1.0000
  Fe  Fe83      1.0  0.37978251061257046  0.22793822347159198  0.10833209340103928  1.0000
  S   S165      1.0  0.37859979960914913  0.24594531303877648  0.061590578418993826  1.0000
  Fe  Fe84      1.0  0.3633024160607716  0.1911837394889438  0.16427827663110725  1.0000
  S   S166      1.0  0.3334439727141777  0.1586246506480904  0.18669434025829243  1.0000
  S   S167      1.0  0.4049573008201868  0.25727408609171937  0.13300621171975677  1.0000
  S   S168      1.0  0.387710030071413  0.2180815009303343  0.19162708246442828  1.0000
  Fe  Fe85      1.0  0.36099749241988255  0.6897839590253406  0.16851234145077426  1.0000
  S   S169      1.0  0.3436775694018579  0.73185868767885  0.14691438804203305  1.0000
  S   S170      1.0  0.33610521882961414  0.6509633318713576  0.1852500955199436  1.0000
  Fe  Fe86      1.0  0.42193836045950345  0.7114631199989125  0.17251097204105487  1.0000
  S   S171      1.0  0.40886790131029116  0.7556493619854149  0.15249194271834007  1.0000
  S   S172      1.0  0.4666893870207141  0.693997130441445  0.1857268238443748  1.0000
  Fe  Fe87      1.0  0.36753343436955516  0.7523531280350069  0.18029779820682829  1.0000
  S   S173      1.0  0.34131777109033146  0.7876064334048519  0.2035970812747693  1.0000
  Fe  Fe88      1.0  0.386324725830407  0.7312555315008681  0.12074665188814429  1.0000
  S   S174      1.0  0.3977837187602163  0.747142065567113  0.0743170675778213  1.0000
  S   S175      1.0  0.3825849220609398  0.71036028896869  0.20318418660463416  1.0000
  S   S176      1.0  0.40163771315145563  0.6870623680236233  0.13956022855661876  1.0000
  Fe  Fe89      1.0  0.12309831460195206  0.6600414104827049  0.2763249726687104  1.0000
  S   S177      1.0  0.1416450834276676  0.6368596994191231  0.31568215326008425  1.0000
  S   S178      1.0  0.0783203663030489  0.6826263652587703  0.2821893234319312  1.0000
  Fe  Fe90      1.0  0.17749070938066264  0.6442242022514302  0.2388070265557644  1.0000
  S   S179      1.0  0.19928980134616145  0.6186064247051893  0.27491940109908825  1.0000
  S   S180      1.0  0.19858552916068187  0.651581961181525  0.1944037023777241  1.0000
  Fe  Fe91      1.0  0.15538726166520753  0.601267782344145  0.2860775725204389  1.0000
  S   S181      1.0  0.13988326295335207  0.5561416244779303  0.2973108231977156  1.0000
  Fe  Fe92      1.0  0.18345688204418475  0.6568220682532169  0.3005554006321624  1.0000
  S   S182      1.0  0.21733603076707875  0.6776613891823712  0.3241354797507976  1.0000
  S   S183      1.0  0.1347986265073507  0.6237468614600894  0.24749621345704342  1.0000
  S   S184      1.0  0.16377318743545552  0.6830978283997943  0.2636845896040524  1.0000
  Fe  Fe93      1.0  0.2681652207169626  0.8823039648285337  0.35786279047006003  1.0000
  S   S185      1.0  0.30910985125970303  0.8663666908171976  0.378823678828235  1.0000
  S   S186      1.0  0.2669634055599838  0.9254449593780484  0.3313848691868996  1.0000
  Fe  Fe94      1.0  0.23857158824481284  0.8258543707221672  0.3770861160437579  1.0000
  S   S187      1.0  0.27746834930860836  0.8063267527648372  0.39994257444284165  1.0000
  S   S188      1.0  0.1976988700068286  0.8013056437314473  0.37703280249082366  1.0000
  Fe  Fe95      1.0  0.2797620879922724  0.8509381200088535  0.41627244464042007  1.0000
  S   S189      1.0  0.2852043891053745  0.8666912833300159  0.4607406253510511  1.0000
  Fe  Fe96      1.0  0.3024905313739215  0.8236827257808214  0.3602154230563024  1.0000
  S   S190      1.0  0.3399015860913149  0.7979359303813878  0.3382561499964783  1.0000
  S   S191      1.0  0.23891781040995036  0.8694175448271676  0.39600222334120533  1.0000
  S   S192      1.0  0.2633665884487412  0.8406624647903042  0.33659040734134604  1.0000
  C   C1        1.0  0.21100964353178603  0.7124873904527779  0.3376759932469428  1.0000
  C   C2        1.0  0.18315920485649753  0.7230972319779664  0.3468078318473992  1.0000
  C   C3        1.0  0.17923424589995576  0.7502927164954132  0.3590585831447064  1.0000
  C   C4        1.0  0.2030108738482057  0.7672624503674771  0.3616216777828916  1.0000
  C   C5        1.0  0.2307616072030511  0.7567669416352064  0.35212250381041016  1.0000
  C   C6        1.0  0.23475611141351233  0.7293489808048422  0.34053765787452056  1.0000
  H   H1        1.0  0.16494077480517466  0.709786606948528  0.345462274498496  1.0000
  H   H2        1.0  0.15783630936367535  0.7580969262809898  0.3668693673744942  1.0000
  H   H3        1.0  0.24928039677615443  0.7695413692248931  0.3541404058334973  1.0000
  H   H4        1.0  0.25639773114830655  0.7210783901630982  0.3340081684952522  1.0000
  C   C7        1.0  0.3402282936663324  0.7861491770422734  0.24144725615726859  1.0000
  C   C8        1.0  0.36492274083345266  0.7777996432988002  0.2567240143356408  1.0000
  C   C9        1.0  0.3643432875967776  0.7806849253014753  0.28662914764495684  1.0000
  C   C10       1.0  0.3390328074410013  0.7916008201664718  0.3013928971567174  1.0000
  C   C11       1.0  0.3139534889704024  0.798395890662512  0.28625158599413547  1.0000
  C   C12       1.0  0.31460166487657865  0.7958325214733926  0.25637871905816767  1.0000
  H   H5        1.0  0.384800052713234  0.7702583989899451  0.24534671706006717  1.0000
  H   H6        1.0  0.3837954388365358  0.775115584174664  0.2982290694542304  1.0000
  H   H7        1.0  0.29411475514602337  0.8059372594138953  0.297406601819602  1.0000
  H   H8        1.0  0.29533865576458207  0.8020136407507881  0.24467317383453827  1.0000
  C   C13       1.0  0.2978510236936736  0.6526700439114477  0.18805043392203316  1.0000
  C   C14       1.0  0.2811054122235665  0.6721749832623121  0.17051314299034984  1.0000
  C   C15       1.0  0.25058890443569676  0.6718770878743592  0.17264533736355064  1.0000
  C   C16       1.0  0.23672487023843536  0.6528504222193642  0.19299781168276461  1.0000
  C   C17       1.0  0.25351609141430737  0.6340039374101853  0.21108522559169154  1.0000
  C   C18       1.0  0.2839495980578548  0.63355201840226  0.208236373529062  1.0000
  H   H9        1.0  0.2916733298418353  0.6868357715720855  0.1547286809739058  1.0000
  H   H10       1.0  0.23773034421692119  0.6863954658654907  0.1584559114184871  1.0000
  H   H11       1.0  0.24318021687453603  0.61912569737307  0.22671138291756207  1.0000
  H   H12       1.0  0.2968253026168349  0.6183246506415926  0.22175073540133225  1.0000
  C   C19       1.0  0.1882076205934152  0.47254312222539757  0.26741570152664423  1.0000
  C   C20       1.0  0.2023228687168481  0.4987526868747108  0.26541552354493575  1.0000
  C   C21       1.0  0.1878113732332284  0.524595772088517  0.2745559660789205  1.0000
  C   C22       1.0  0.15908270523966103  0.5243078170186775  0.2857639251257582  1.0000
  C   C23       1.0  0.14507265197545557  0.49807355975130346  0.2879212956386823  1.0000
  C   C24       1.0  0.15953710857336076  0.4722788017158185  0.2787165602791952  1.0000
  H   H13       1.0  0.22459953551913941  0.4990169307925787  0.25689194665888576  1.0000
  H   H14       1.0  0.19891202594001184  0.5446139270291945  0.2732723509768159  1.0000
  H   H15       1.0  0.12290690574997616  0.4976383411439624  0.2967245266218152  1.0000
  H   H16       1.0  0.1484995597074282  0.45218914334867544  0.28039508897122895  1.0000
  C   C25       1.0  0.24552172309006806  0.309145395142692  0.19154917330394153  1.0000
  C   C26       1.0  0.2588675365512663  0.2838255105182954  0.1803991571022983  1.0000
  C   C27       1.0  0.2892967336719223  0.27920051535013496  0.17900252405996725  1.0000
  C   C28       1.0  0.30671940238574386  0.30013659400562914  0.1881594070625714  1.0000
  C   C29       1.0  0.2933617454614686  0.32560423272896605  0.19899286524595167  1.0000
  C   C30       1.0  0.2629098849813965  0.330098981469857  0.2006932615580503  1.0000
  H   H17       1.0  0.2455658192775533  0.267546262844506  0.1732209074877392  1.0000
  H   H18       1.0  0.2990924535112193  0.25922638281794125  0.17127524291357793  1.0000
  H   H19       1.0  0.3066218605289898  0.34204525202489455  0.2059113704300043  1.0000
  H   H20       1.0  0.25296703272503895  0.35017325614925915  0.20831895674291825  1.0000
  C   C31       1.0  0.26210245954750355  0.008903045602374121  0.3803941178683964  1.0000
  C   C32       1.0  0.25997181161989924  0.010530385417529013  0.3504802602960179  1.0000
  C   C33       1.0  0.26166085168858855  0.9848359720851733  0.33556673290023986  1.0000
  C   C34       1.0  0.2650893548599243  0.9573962998698898  0.3504970758483263  1.0000
  C   C35       1.0  0.26717509550696217  0.9558269654669651  0.38035696689186393  1.0000
  C   C36       1.0  0.26564937657201676  0.9814621599324397  0.39519605850686085  1.0000
  H   H21       1.0  0.2562325627667498  0.03148551460689387  0.3389845642150453  1.0000
  H   H22       1.0  0.25961260237547695  0.9861863753325552  0.3125026828763983  1.0000
  H   H23       1.0  0.26981267550476457  0.9348404520401494  0.3921093661069419  1.0000
  H   H24       1.0  0.26711891190249826  0.979983775322337  0.41835146356609104  1.0000
  C   C37       1.0  0.34289482657346715  0.13781762058237376  0.28360778439637735  1.0000
  C   C38       1.0  0.3167167418855011  0.13381910545294762  0.2711198744351015  1.0000
  C   C39       1.0  0.31413389877212683  0.13989054857395247  0.24131795984716567  1.0000
  C   C40       1.0  0.3374521100538174  0.15058013223200298  0.22394373647929772  1.0000
  C   C41       1.0  0.3635197957541408  0.15465316025911058  0.236527234493059  1.0000
  C   C42       1.0  0.36629329203579825  0.14805657032736072  0.2661714189274694  1.0000
  H   H25       1.0  0.29862483844379706  0.12562553982616498  0.2842587054284506  1.0000
  H   H26       1.0  0.29400754425971065  0.13635893442543556  0.23167391103909374  1.0000
  H   H27       1.0  0.38186625266130697  0.1621743625525667  0.2233023194583869  1.0000
  H   H28       1.0  0.386697069170054  0.1509641633323471  0.27559755261081215  1.0000
  C   C43       1.0  0.211408554145786  0.21632141752730796  0.34108405747862497  1.0000
  C   C44       1.0  0.23417628259277962  0.2304083853709428  0.3515848683804509  1.0000
  C   C45       1.0  0.23467454466757667  0.2609292314470052  0.34817865458161684  1.0000
  C   C46       1.0  0.21263206101457077  0.2775216318401826  0.3339228304567605  1.0000
  C   C47       1.0  0.19012662298983857  0.26339572230341  0.3230982652551199  1.0000
  C   C48       1.0  0.18945405994345071  0.23295029910542353  0.32680507969822753  1.0000
  H   H29       1.0  0.2511329619249024  0.2179424663117851  0.3627204006505589  1.0000
  H   H30       1.0  0.2521773725326457  0.2717173055026945  0.3565764083580669  1.0000
  H   H31       1.0  0.17279406460015712  0.27593942931829546  0.31246807247151814  1.0000
  H   H32       1.0  0.17169102343368262  0.2222636224615049  0.318716502204471  1.0000
  C   C49       1.0  0.25474081957280686  0.13641916271781881  0.5431435482769875  1.0000
  C   C50       1.0  0.24209839247729253  0.1293475373791074  0.5180116076640409  1.0000
  C   C51       1.0  0.256004440294571  0.13489586264473855  0.4907398338961118  1.0000
  C   C52       1.0  0.282253863044117  0.14854231682295513  0.4882561977620704  1.0000
  C   C53       1.0  0.29483753578428135  0.15581339734623853  0.5133663424394905  1.0000
  C   C54       1.0  0.28136215047073965  0.1493952239446709  0.540775791493606  1.0000
  H   H33       1.0  0.22143000489177078  0.11941820528244734  0.5196471763110903  1.0000
  H   H34       1.0  0.2461366283652666  0.12904307790538472  0.47165643898548176  1.0000
  H   H35       1.0  0.3151166383182678  0.16646133909242944  0.5116130174945817  1.0000
  H   H36       1.0  0.2912552533520263  0.15504177271880384  0.5599627636141807  1.0000
  C   C55       1.0  0.34617384780136623  0.20941586525600894  0.9808922429886467  1.0000
  C   C56       1.0  0.3588895122121249  0.23616661186084917  0.9794179609606221  1.0000
  C   C57       1.0  0.3682297751817727  0.2471099965517534  0.004513210731834973  1.0000
  C   C58       1.0  0.36532185060369204  0.23128237179951305  0.031241892383635967  1.0000
  C   C59       1.0  0.35226745633948064  0.20467940706598894  0.032879478052715114  1.0000
  C   C60       1.0  0.3425191044505475  0.19390842109151188  0.0077706185476011935  1.0000
  H   H37       1.0  0.36145504499570774  0.2484764468843241  0.9589574077818271  1.0000
  H   H38       1.0  0.3781138681086561  0.26782478095548573  0.0031271859729999907  1.0000
  H   H39       1.0  0.34975231198835854  0.19238334770938295  0.05339557690396427  1.0000
  H   H40       1.0  0.33251928100400757  0.17324761789733076  0.009092928274114787  1.0000
  C   C61       1.0  0.3458333110739708  0.16292628839276022  0.7794592083693531  1.0000
  C   C62       1.0  0.3450442672099254  0.19115758137817326  0.7662684857046412  1.0000
  C   C63       1.0  0.33656871398065175  0.1961762214663476  0.7376638523337529  1.0000
  C   C64       1.0  0.3284338723037891  0.1731090927822115  0.7222592304290505  1.0000
  C   C65       1.0  0.3291869399570221  0.14500060854734917  0.7355692466597258  1.0000
  C   C66       1.0  0.3378387203777706  0.139957308399945  0.7639837093115378  1.0000
  H   H41       1.0  0.35136082213383524  0.20900191817947467  0.7779491136026864  1.0000
  H   H42       1.0  0.3364876969951327  0.21792968675898136  0.7274379976320123  1.0000
  H   H43       1.0  0.32394222376106524  0.12689266446252684  0.7237355206578401  1.0000
  H   H44       1.0  0.3386417325666096  0.11803346611540116  0.7739197041021604  1.0000
  C   C67       1.0  0.22979658823849977  0.29456197397757117  0.8230046457527026  1.0000
  C   C68       1.0  0.24368505467170476  0.2776545899905561  0.8449639426164902  1.0000
  C   C69       1.0  0.2739458693148574  0.27732243002963897  0.8468174318549515  1.0000
  C   C70       1.0  0.2905814806792636  0.2941182300361842  0.8268423686698431  1.0000
  C   C71       1.0  0.2767111389091946  0.3112226611613952  0.8049540899026681  1.0000
  C   C72       1.0  0.24639503210997396  0.3113090794896511  0.8029055253772736  1.0000
  H   H45       1.0  0.23093027283560458  0.2649396522246672  0.8607910337024809  1.0000
  H   H46       1.0  0.2842549950082576  0.2646456595580742  0.864183841090472  1.0000
  H   H47       1.0  0.2894195300853332  0.3244417469893238  0.7895552213375987  1.0000
  H   H48       1.0  0.235851475330192  0.3246091536201889  0.786058670762231  1.0000
  C   C73       1.0  0.181561876640031  0.18376887107447573  0.7091085316950743  1.0000
  C   C74       1.0  0.17609688615871874  0.20220856991631467  0.7317892535189467  1.0000
  C   C75       1.0  0.16806238815831576  0.2319121806543736  0.7260934640089292  1.0000
  C   C76       1.0  0.16474774647657703  0.24309872533071547  0.6977049254125527  1.0000
  C   C77       1.0  0.16951313974936358  0.22446275455861625  0.6751275403903274  1.0000
  C   C78       1.0  0.17802524806904657  0.19491897162418065  0.6807792520624825  1.0000
  H   H49       1.0  0.1783321608970146  0.1935366908297093  0.7537499911376428  1.0000
  H   H50       1.0  0.16433178230788772  0.24609342857913843  0.7436379131624076  1.0000
  H   H51       1.0  0.16678071006830097  0.2329364389403601  0.6531575162339384  1.0000
  H   H52       1.0  0.1817417505297885  0.18072527229567534  0.663209527114981  1.0000
  C   C79       1.0  0.24432749465007134  0.95611752953285  0.6573311235613074  1.0000
  C   C80       1.0  0.2747090608113638  0.9546417482627423  0.6558673644527061  1.0000
  C   C81       1.0  0.2895933772742215  0.9795711912036753  0.6600019890052167  1.0000
  C   C82       1.0  0.2742622568240913  0.0060876177898159245  0.6655923347890249  1.0000
  C   C83       1.0  0.24391937505213138  0.007702113330095628  0.6664416310205277  1.0000
  C   C84       1.0  0.22903153642746288  0.9828171869930565  0.6622057963379306  1.0000
  H   H53       1.0  0.28668409965011965  0.9342767188685106  0.6516892231644541  1.0000
  H   H54       1.0  0.3131103659595167  0.9783157083579941  0.6589947970413932  1.0000
  H   H55       1.0  0.231894908680429  0.027944644356073557  0.6710236550276872  1.0000
  H   H56       1.0  0.20550553137049118  0.9840961132051208  0.6633693933427623  1.0000
  C   C85       1.0  0.2746480661278014  0.8194967598643446  0.5503812536235041  1.0000
  C   C86       1.0  0.2788990408945283  0.8032833511360106  0.5258485726934634  1.0000
  C   C87       1.0  0.282361421036014  0.8173238371121346  0.4981778605095377  1.0000
  C   C88       1.0  0.2815842218780684  0.8477264253504756  0.49489606613323867  1.0000
  C   C89       1.0  0.27760870534975934  0.8638681839434037  0.5194804629639214  1.0000
  C   C90       1.0  0.27403791799217236  0.8498551395388361  0.5471124183509477  1.0000
  H   H57       1.0  0.27966549880747926  0.7797475069311871  0.5282770360551996  1.0000
  H   H58       1.0  0.2861012351168842  0.8046547854938181  0.47947545587006324  1.0000
  H   H59       1.0  0.27709542496524164  0.887403552456338  0.5171022926906886  1.0000
  H   H60       1.0  0.270812598203951  0.862563066536865  0.5658413777477483  1.0000
  C   C91       1.0  0.36010481758019575  0.7194037877405481  0.9919654534864284  1.0000
  C   C92       1.0  0.3482050335664376  0.7097429781250039  0.019106646240326732  1.0000
  C   C93       1.0  0.3597130606272131  0.7176851752852794  0.04459206474302097  1.0000
  C   C94       1.0  0.3830127622285394  0.7356935054983167  0.04307237623573142  1.0000
  C   C95       1.0  0.3948756507852601  0.7454034535446508  0.015914312915288744  1.0000
  C   C96       1.0  0.3836005795659549  0.7371806405847529  0.9904472658672824  1.0000
  H   H61       1.0  0.33000056003149086  0.6960048253740854  0.02045204395058864  1.0000
  H   H62       1.0  0.35039090358813885  0.7100976249937668  0.0653677121014066  1.0000
  H   H63       1.0  0.41282869413188644  0.7594418356911704  0.014546361522356903  1.0000
  H   H64       1.0  0.392938742312895  0.7447660871274194  0.9696784380822  1.0000
  C   C97       1.0  0.32387072276215584  0.8041487909207148  0.803542760575675  1.0000
  C   C98       1.0  0.35029247667537927  0.7994087407056567  0.7878378036646978  1.0000
  C   C99       1.0  0.352422276917288  0.8068313841024883  0.758020950453836  1.0000
  C   C100      1.0  0.32798716558078567  0.8182363360120574  0.7435328377401784  1.0000
  C   C101      1.0  0.3013629139488261  0.8221610529483304  0.7591277185962222  1.0000
  C   C102      1.0  0.29949512848051235  0.815814782349166  0.7891074795120054  1.0000
  H   H65       1.0  0.3693377761964057  0.7907818984179226  0.7987715536141605  1.0000
  H   H66       1.0  0.37314256803422796  0.803758559266451  0.7462101640271049  1.0000
  H   H67       1.0  0.2822959535392263  0.8305915833824213  0.7482592675152271  1.0000
  H   H68       1.0  0.27901084601891557  0.8196245884297746  0.8011328096128035  1.0000
  C   C103      1.0  0.18808538669401273  0.4939402388113382  0.772761674163065  1.0000
  C   C104      1.0  0.1752693352341793  0.4983774623486792  0.7462442859786356  1.0000
  C   C105      1.0  0.16906606490852205  0.4743263160753635  0.7311171206945134  1.0000
  C   C106      1.0  0.17496742973554189  0.4457494460822206  0.7426910130243557  1.0000
  C   C107      1.0  0.1872481139026334  0.4413180422324927  0.7694757899196105  1.0000
  C   C108      1.0  0.19403175672636347  0.46535672697567787  0.7843110275482826  1.0000
  H   H69       1.0  0.1708409874189466  0.5202905686128064  0.7370474716939021  1.0000
  H   H70       1.0  0.1597540692300263  0.4778774443241362  0.7102905047467538  1.0000
  H   H71       1.0  0.19206009303337163  0.4193871887254831  0.7784609983861186  1.0000
  H   H72       1.0  0.20406006316928604  0.46176176606765945  0.8047680218698838  1.0000
  C   C109      1.0  0.312618088061303  0.6556927343780966  0.8346982863612235  1.0000
  C   C110      1.0  0.2973819267608397  0.6465459760093479  0.8120691849810294  1.0000
  C   C111      1.0  0.26722582575085135  0.6434791122492661  0.8154769132691467  1.0000
  C   C112      1.0  0.25225480104053744  0.6490802567145028  0.841689186423305  1.0000
  C   C113      1.0  0.26763425051020945  0.6575295057724574  0.864444626865385  1.0000
  C   C114      1.0  0.29768520721739095  0.6606795421793478  0.8610223997809645  1.0000
  H   H73       1.0  0.30884433663578104  0.642501234551451  0.7916830614114809  1.0000
  H   H74       1.0  0.2555697131080325  0.6372736192358096  0.7976946821483014  1.0000
  H   H75       1.0  0.25629962721401667  0.6615393048996581  0.8849086461930152  1.0000
  H   H76       1.0  0.3093700295255908  0.6664738043852756  0.87900362397671  1.0000
  C   C115      1.0  0.19212108995125296  0.6949070726897498  0.7117067160631463  1.0000
  C   C116      1.0  0.18015010940417822  0.7097294722062713  0.7351899955618505  1.0000
  C   C117      1.0  0.1820888135584584  0.7398980389585706  0.7357653463463912  1.0000
  C   C118      1.0  0.1965294991274377  0.75556768866709  0.7130967244502352  1.0000
  C   C119      1.0  0.20906499433743983  0.7408244756669569  0.6897541902826869  1.0000
  C   C120      1.0  0.20658252856922596  0.7106010868891928  0.6889487795354429  1.0000
  H   H77       1.0  0.1688763685565192  0.6981974712895748  0.752707146425111  1.0000
  H   H78       1.0  0.1723145304906188  0.7511827180882397  0.7538624311410089  1.0000
  H   H79       1.0  0.22009115570090662  0.7527624632638283  0.672045388136186  1.0000
  H   H80       1.0  0.2157966794115847  0.6993747638352265  0.6705841549846613  1.0000
  C   C121      1.0  0.5498889852754065  0.25380442813502474  0.14166708472914621  1.0000
  C   C122      1.0  0.5528622581524298  0.22358241933647677  0.14679314243908392  1.0000
  C   C123      1.0  0.5280462788677909  0.20765743909586498  0.15304607098299344  1.0000
  C   C124      1.0  0.5000872017855029  0.22172872518532294  0.15371157342523145  1.0000
  C   C125      1.0  0.49709968627488077  0.25183680395971997  0.14759629003798158  1.0000
  C   C126      1.0  0.5219496930652744  0.267809306843109  0.14169613981511422  1.0000
  H   H81       1.0  0.5742247683777023  0.21254417396421213  0.1460152685134256  1.0000
  H   H82       1.0  0.53041505442237  0.18429328780458867  0.15732866213855737  1.0000
  H   H83       1.0  0.47568847069539677  0.2628873599267988  0.1481343728988823  1.0000
  H   H84       1.0  0.5194759157609893  0.2912002155878742  0.13763847741184382  1.0000
  C   C127      1.0  0.6915040891109  0.17006141730440172  0.21960206025261675  1.0000
  C   C128      1.0  0.7042132835168069  0.14526122879858905  0.23423035413238896  1.0000
  C   C129      1.0  0.7099103656453731  0.14544835786695903  0.26356929377493127  1.0000
  C   C130      1.0  0.7021238405316426  0.17020156688652638  0.2786954950706336  1.0000
  C   C131      1.0  0.6894648658893379  0.19501566249208876  0.2640898942836765  1.0000
  C   C132      1.0  0.6846959104248219  0.19514277119030596  0.23456202276581573  1.0000
  H   H85       1.0  0.7095733066563352  0.12574249842819632  0.22288772234007861  1.0000
  H   H86       1.0  0.719494048405729  0.12610667687682825  0.2746748692791298  1.0000
  H   H87       1.0  0.6834542785090638  0.21424875218318404  0.27567196926602766  1.0000
  H   H88       1.0  0.6752361571543364  0.2144938570903131  0.22365426687889953  1.0000
  C   C133      1.0  0.00956132065915516  0.33098086804075877  0.2316155396667205  1.0000
  C   C134      1.0  0.004077735859628185  0.34688603790817674  0.25602962647428756  1.0000
  C   C135      1.0  0.027283162743913  0.35764452840862543  0.2695086941145174  1.0000
  C   C136      1.0  0.056083106320170856  0.3528005069033685  0.258616148412686  1.0000
  C   C137      1.0  0.06158763051986756  0.3365707617327176  0.2344254795812536  1.0000
  C   C138      1.0  0.038378546839825445  0.3256155423624239  0.22105729405425922  1.0000
  H   H89       1.0  0.9820395412371903  0.35100811754538924  0.2645234025638924  1.0000
  H   H90       1.0  0.02292567542493957  0.37007811566120374  0.2883244040429559  1.0000
  H   H91       1.0  0.08369358707120511  0.33265380250671095  0.22590366426644473  1.0000
  H   H92       1.0  0.04280738583503774  0.3131366364035289  0.20227970591708475  1.0000
  C   C139      1.0  0.8103190070157733  0.3008890846323088  0.17550256599416258  1.0000
  C   C140      1.0  0.795681673336885  0.27714035157148736  0.16770532472731642  1.0000
  C   C141      1.0  0.765152735112674  0.27817569277132786  0.1689954533052889  1.0000
  C   C142      1.0  0.7490862146498647  0.30322782585085445  0.17743970469144588  1.0000
  C   C143      1.0  0.7637282028469567  0.3265296232985848  0.1861892393854382  1.0000
  C   C144      1.0  0.7942574404013305  0.3253346941434985  0.1853524135170297  1.0000
  H   H93       1.0  0.8080324986315189  0.25806116237189036  0.16031575133578413  1.0000
  H   H94       1.0  0.7541122213882901  0.2597511007497598  0.16313673533810744  1.0000
  H   H95       1.0  0.7514457829839623  0.3458977044438715  0.19299166598024953  1.0000
  H   H96       1.0  0.8053315877394996  0.3438143576676028  0.19127045872628395  1.0000
  C   C145      1.0  0.8575786736134299  0.2653270337129445  0.30708173482858636  1.0000
  C   C146      1.0  0.8734707898866868  0.2475059853928526  0.28801393340850506  1.0000
  C   C147      1.0  0.8704498886182955  0.21741113465010592  0.2897113005528924  1.0000
  C   C148      1.0  0.8508402379079403  0.2047206474224918  0.3100622986038669  1.0000
  C   C149      1.0  0.8344551519157746  0.2223916227794409  0.32905978378956297  1.0000
  C   C150      1.0  0.8380774988791354  0.2526133897648625  0.3277529998074899  1.0000
  H   H97       1.0  0.8885320643352544  0.25669064297876365  0.2722461010576379  1.0000
  H   H98       1.0  0.8831747219326285  0.2038761687345331  0.2749662857354079  1.0000
  H   H99       1.0  0.8194616892026154  0.21273808254704274  0.34506759197758974  1.0000
  H   H100      1.0  0.8257710972718363  0.26614853269782685  0.3427844322012357  1.0000
  C   C151      1.0  0.7549732039980706  0.14542154845994618  0.5171781962424304  1.0000
  C   C152      1.0  0.7495264132486116  0.1604327304074568  0.4905600137019319  1.0000
  C   C153      1.0  0.758083887664762  0.14775417771892257  0.46446622430577755  1.0000
  C   C154      1.0  0.7722543617191017  0.11999575314778536  0.4649060650531399  1.0000
  C   C155      1.0  0.7778193293874401  0.1051122384944407  0.49154038686715495  1.0000
  C   C156      1.0  0.7691981309660064  0.11771779665846106  0.5175664738442257  1.0000
  H   H101      1.0  0.738451718591104  0.18185099169436347  0.4900881680034357  1.0000
  H   H102      1.0  0.7536789087589673  0.15939485458687327  0.4440809687529925  1.0000
  H   H103      1.0  0.78871888166073  0.08362180250837781  0.492083795123581  1.0000
  H   H104      1.0  0.7733915247393106  0.10590129933742815  0.5379081600714182  1.0000
  C   C157      1.0  0.5420490601978682  0.22846656438088137  0.841084139562234  1.0000
  C   C158      1.0  0.5173879965133603  0.22233479267965756  0.8267667740105072  1.0000
  C   C159      1.0  0.48958493053775703  0.22380528317326415  0.8408882762075114  1.0000
  C   C160      1.0  0.48626267041750987  0.23195219216347066  0.8692958663534938  1.0000
  C   C161      1.0  0.5109224320348474  0.23791005095857531  0.8836342931394432  1.0000
  C   C162      1.0  0.5387457534510671  0.23598338484485998  0.8696763646184461  1.0000
  H   H105      1.0  0.5198069362611613  0.21647661461266865  0.804632047005885  1.0000
  H   H106      1.0  0.4707915423741794  0.21890813105794568  0.8296960165510826  1.0000
  H   H107      1.0  0.5085510528495292  0.2442556270751403  0.9056077077265812  1.0000
  H   H108      1.0  0.5575936381102128  0.24077142312000993  0.8808713424372938  1.0000
  C   C163      1.0  0.6594044737329625  0.21492412422262833  0.9748955919155144  1.0000
  C   C164      1.0  0.6773118263602453  0.23832217476166268  0.9710497380782321  1.0000
  C   C165      1.0  0.6893458502582321  0.24908844204481623  0.9949826037973524  1.0000
  C   C166      1.0  0.6833980552920865  0.2367264705123379  0.022915214541860435  1.0000
  C   C167      1.0  0.665573185713607  0.21327616539807434  0.02678035815197444  1.0000
  C   C168      1.0  0.6536622422277338  0.20240087972976176  0.0028370381304756442  1.0000
  H   H109      1.0  0.6819028758208906  0.24808902948289074  0.9496255053572514  1.0000
  H   H110      1.0  0.7032556858198097  0.26713555891684937  0.991775026659178  1.0000
  H   H111      1.0  0.6614747000921951  0.20313046842778149  0.048110294485590184  1.0000
  H   H112      1.0  0.6400670897949114  0.1840901732803754  0.005905992920566705  1.0000
  C   C169      1.0  0.7068831835199881  0.16343840444891494  0.7789679410178846  1.0000
  C   C170      1.0  0.7244437893617297  0.14181223003621413  0.7654672770882255  1.0000
  C   C171      1.0  0.7213832854631843  0.13689740785568916  0.7363520637497291  1.0000
  C   C172      1.0  0.7004614611545761  0.15339550264332208  0.7206675467613936  1.0000
  C   C173      1.0  0.6836959028617187  0.1757499970932548  0.7338618706482826  1.0000
  C   C174      1.0  0.6871037118759404  0.18098460487143353  0.7628137754745886  1.0000
  H   H113      1.0  0.739948550444974  0.1282681111198706  0.7777665826545852  1.0000
  H   H114      1.0  0.734318446307828  0.1195167845643528  0.7264242415095665  1.0000
  H   H115      1.0  0.6678041299863455  0.18884125427836757  0.7216362263590496  1.0000
  H   H116      1.0  0.6738684493277598  0.19805028397839744  0.7727679370683589  1.0000
  C   C175      1.0  0.9799645854596079  0.3162810471671814  0.7494047457335459  1.0000
  C   C176      1.0  0.008064894543750284  0.30519463036129796  0.7413333331228942  1.0000
  C   C177      1.0  0.032677255355363845  0.3169384842881561  0.7513411675870812  1.0000
  C   C178      1.0  0.029338026427377092  0.3397336868031732  0.769754294069989  1.0000
  C   C179      1.0  0.0011919433096280305  0.3509398649121099  0.777758559669347  1.0000
  C   C180      1.0  0.9765619737999175  0.3393270561345069  0.7675700546575643  1.0000
  H   H117      1.0  0.010890949514639751  0.28734224069991315  0.7273022560247141  1.0000
  H   H118      1.0  0.05424316536035066  0.30813769184276696  0.7450406582656787  1.0000
  H   H119      1.0  0.9984739029816804  0.36853483148612376  0.7920777590409452  1.0000
  H   H120      1.0  0.9550470941971376  0.34801788398323746  0.774009297071899  1.0000
  C   C181      1.0  0.794019900986086  0.3061209495440228  0.8317755131260667  1.0000
  C   C182      1.0  0.7810399412549605  0.2838817435169225  0.8490184968238399  1.0000
  C   C183      1.0  0.7505796807650508  0.28303046003791615  0.8518285958360279  1.0000
  C   C184      1.0  0.7328742203503879  0.3048001452970998  0.8379253615802837  1.0000
  C   C185      1.0  0.7458983638747221  0.3273058140089993  0.8211389278270393  1.0000
  C   C186      1.0  0.7763263692664253  0.3278553961107878  0.8178726811750628  1.0000
  H   H121      1.0  0.7945450406493924  0.26710579645526145  0.860019913545433  1.0000
  H   H122      1.0  0.7408306916904602  0.2658210641975507  0.8651525779352687  1.0000
  H   H123      1.0  0.7323825808188239  0.3442978930619251  0.8104277138892728  1.0000
  H   H124      1.0  0.7860413113157886  0.345340832722318  0.8048738668566605  1.0000
  C   C187      1.0  0.8273251152759585  0.19245592743162973  0.6703764460250561  1.0000
  C   C188      1.0  0.8509893044688717  0.20790923113629328  0.6771380678982563  1.0000
  C   C189      1.0  0.8465482931949897  0.2364744995492028  0.6862753771905971  1.0000
  C   C190      1.0  0.8184825596365533  0.24991422484448217  0.6878100927511239  1.0000
  C   C191      1.0  0.7949559190390315  0.2343216667930824  0.681252713899877  1.0000
  C   C192      1.0  0.7992673424439611  0.20546024748006061  0.6735699277754591  1.0000
  H   H125      1.0  0.872805395603528  0.19795286944692686  0.6749536133373447  1.0000
  H   H126      1.0  0.8648665110609036  0.24838930695044045  0.6911941819945793  1.0000
  H   H127      1.0  0.7732085262350561  0.24454161556245738  0.6821241845089692  1.0000
  H   H128      1.0  0.7807920803018389  0.19354286270646104  0.6696138328103124  1.0000
  C   C193      1.0  0.7782034561288763  0.9463761055145512  0.6653344456355259  1.0000
  C   C194      1.0  0.770927571173083  0.9719446727205726  0.6796509462796683  1.0000
  C   C195      1.0  0.7703549229186547  0.9994192215303517  0.6643753373919382  1.0000
  C   C196      1.0  0.777651586767642  0.001430251781877802  0.6347720876843101  1.0000
  C   C197      1.0  0.7847547799180792  0.9758398806885947  0.6205480697947668  1.0000
  C   C198      1.0  0.7847681226932877  0.9484149196098576  0.6356711096492752  1.0000
  H   H129      1.0  0.7657858342497147  0.970496805623411  0.7026179002980727  1.0000
  H   H130      1.0  0.7646779438570005  0.018976664067928126  0.6755264045289209  1.0000
  H   H131      1.0  0.7903827255397746  0.9772025294637908  0.5976514598553131  1.0000
  H   H132      1.0  0.7903607351047565  0.928881006799772  0.6244120894580651  1.0000
  C   C199      1.0  0.003508528018723922  0.6158199130352398  0.7553111465254702  1.0000
  C   C200      1.0  0.031549981467612113  0.6073005675438026  0.7443942164998272  1.0000
  C   C201      1.0  0.05565602326044983  0.6073762507002571  0.761515528140264  1.0000
  C   C202      1.0  0.05198286985030601  0.6169349444874622  0.789414144667843  1.0000
  C   C203      1.0  0.02388529917842735  0.624957184904508  0.800497403122487  1.0000
  C   C204      1.0  0.999675364266957  0.6241903263239279  0.7836069139812715  1.0000
  H   H133      1.0  0.034586676280018436  0.6006468079857493  0.7225511644891325  1.0000
  H   H134      1.0  0.07704932699131523  0.6004814518676023  0.7529405847472476  1.0000
  H   H135      1.0  0.02085559519609709  0.6322390149241467  0.8221128745145677  1.0000
  H   H136      1.0  0.9781781166173736  0.6308454262709257  0.7921821389748043  1.0000
  C   C205      1.0  0.8710980158692623  0.49756731479490657  0.764685991790208  1.0000
  C   C206      1.0  0.8701517744486601  0.4701266987670024  0.7797178217550439  1.0000
  C   C207      1.0  0.8668472087905026  0.44495383056976157  0.7650707972513069  1.0000
  C   C208      1.0  0.864269356334664  0.44712186987432756  0.735260815502451  1.0000
  C   C209      1.0  0.8655089393477643  0.4744993721828115  0.7201930719478604  1.0000
  C   C210      1.0  0.8689505445465993  0.4996621337998649  0.7348254042728889  1.0000
  H   H137      1.0  0.8719817738563158  0.46831212783329135  0.8028068890290324  1.0000
  H   H138      1.0  0.8659774593152806  0.42397026865368803  0.7768577385124108  1.0000
  H   H139      1.0  0.8635168271932318  0.4763306990353301  0.697109652301999  1.0000
  H   H140      1.0  0.8695979199522362  0.5206847216294239  0.723053028538749  1.0000
  C   C211      1.0  0.8419859603867276  0.6857418752440333  0.6798826725947087  1.0000
  C   C212      1.0  0.8694655404208956  0.696744941818485  0.68019658808217  1.0000
  C   C213      1.0  0.8730415113764163  0.7264938576556166  0.6733687519499136  1.0000
  C   C214      1.0  0.8491800084005842  0.7454874726109929  0.6662889788462931  1.0000
  C   C215      1.0  0.8216733997785888  0.7344865032910303  0.6659131145469237  1.0000
  C   C216      1.0  0.818165323885173  0.7046296969014396  0.6723520649761742  1.0000
  H   H141      1.0  0.8880674313455709  0.6822511057391607  0.6853670363812535  1.0000
  H   H142      1.0  0.8943926079568539  0.7348076010884786  0.6735826380569148  1.0000
  H   H143      1.0  0.8031120167872773  0.7489255023986553  0.6606017007061259  1.0000
  H   H144      1.0  0.7969137401632954  0.6962004090198846  0.671772682128751  1.0000
  C   C217      1.0  0.5470171643575873  0.7131200765780475  0.8414993594291477  1.0000
  C   C218      1.0  0.521927416338791  0.6984552924341323  0.8375683874052039  1.0000
  C   C219      1.0  0.4943089034033813  0.709748823634936  0.8474604429491286  1.0000
  C   C220      1.0  0.49165669710764903  0.7359546584289636  0.8610960166941107  1.0000
  C   C221      1.0  0.5166750586695227  0.7509104990937423  0.8643328222525808  1.0000
  C   C222      1.0  0.5442348521973345  0.7395568666515813  0.8546371001206795  1.0000
  H   H145      1.0  0.5239130003336113  0.6780145222533432  0.8273151701887856  1.0000
  H   H146      1.0  0.47516384770194603  0.6980995649815069  0.8447676146126325  1.0000
  H   H147      1.0  0.5147274170631473  0.7713595189479565  0.8745752672311907  1.0000
  H   H148      1.0  0.5633185106095165  0.751236831070701  0.8574064970377074  1.0000
  C   C223      1.0  0.6995198054750937  0.789611380704542  0.780935360278804  1.0000
  C   C224      1.0  0.6808657635408245  0.775480477287227  0.7646543191094661  1.0000
  C   C225      1.0  0.6852791720969162  0.7760553675982124  0.734477973897499  1.0000
  C   C226      1.0  0.7084680228629995  0.7904946764251478  0.7204908762891435  1.0000
  C   C227      1.0  0.7273260296915298  0.8040443039943608  0.7369640741672349  1.0000
  C   C228      1.0  0.7227593911209202  0.8038116651412448  0.7669792007306613  1.0000
  H   H149      1.0  0.6625676797638604  0.7648510987079207  0.7752168761798406  1.0000
  H   H150      1.0  0.6703903423808009  0.7656977007633768  0.7219128298869202  1.0000
  H   H151      1.0  0.7451134201344953  0.8152599613442807  0.7266948755929906  1.0000
  H   H152      1.0  0.7372477031178457  0.8147546552876915  0.7794844976251345  1.0000
  C   C229      1.0  0.7542472450647608  0.6569724107102216  0.8389217995081435  1.0000
  C   C230      1.0  0.7718487715877453  0.6339780327360047  0.8279966826824215  1.0000
  C   C231      1.0  0.8015936457582346  0.6369063773400493  0.8216205263970818  1.0000
  C   C232      1.0  0.8140120612081119  0.6630273496562209  0.8256679229873348  1.0000
  C   C233      1.0  0.7964514871676499  0.6861145066517763  0.8367666336473003  1.0000
  C   C234      1.0  0.7665726113301087  0.6831493288429661  0.8433060148270919  1.0000
  H   H153      1.0  0.7623020024919771  0.6138444534860167  0.824442474590199  1.0000
  H   H154      1.0  0.8150781612733574  0.6187210678079328  0.814249783173091  1.0000
  H   H155      1.0  0.8059882895310767  0.7062150198625726  0.8405612124809183  1.0000
  H   H156      1.0  0.7531869066875863  0.7009562961456899  0.8519810218341954  1.0000
  C   C235      1.0  0.7572793564644072  0.9559259187203335  0.3578896731614642  1.0000
  C   C236      1.0  0.7453772791862927  0.9831092929898955  0.3661976067766224  1.0000
  C   C237      1.0  0.7550601242961682  0.009144222567782046  0.35251503885755353  1.0000
  C   C238      1.0  0.7769505065609913  0.008201066332694027  0.3305598557823474  1.0000
  C   C239      1.0  0.7885926269919411  0.981010232969207  0.32198388189656957  1.0000
  C   C240      1.0  0.778821792898765  0.9549371228225718  0.33558786318580597  1.0000
  H   H157      1.0  0.7285053612493381  0.9840731756410892  0.3832443261968614  1.0000
  H   H158      1.0  0.7456669135136542  0.029952487434856803  0.35898567446798  1.0000
  H   H159      1.0  0.8054817351284569  0.9801223226460789  0.3049238996544824  1.0000
  H   H160      1.0  0.7881148758442791  0.9341435649387614  0.3289548804709555  1.0000
  C   C241      1.0  0.7589405551987108  0.8146500989310084  0.4766271278509551  1.0000
  C   C242      1.0  0.7517811930029854  0.8018124832635452  0.5040963146980946  1.0000
  C   C243      1.0  0.7577869510036095  0.8154174831334073  0.5290685698542199  1.0000
  C   C244      1.0  0.7709642122743176  0.8419753985332171  0.5266040371354759  1.0000
  C   C245      1.0  0.7788174564061514  0.8543381395288362  0.49912550945595036  1.0000
  C   C246      1.0  0.7729310719458302  0.8407206827720812  0.4742224939906578  1.0000
  H   H161      1.0  0.7411290860239678  0.7815037395163468  0.5061204196806397  1.0000
  H   H162      1.0  0.7516484250689005  0.8057261590481135  0.5501664256887332  1.0000
  H   H163      1.0  0.7893958534374871  0.8746832311063985  0.4971869835897998  1.0000
  H   H164      1.0  0.779003386807545  0.8505287858664311  0.4532125530426553  1.0000
  C   C247      1.0  0.550812689930334  0.739600849903544  0.16106571204271775  1.0000
  C   C248      1.0  0.5238541867414652  0.7556241927416661  0.16108050369778176  1.0000
  C   C249      1.0  0.49793519545445325  0.7419611099282801  0.16888112583517773  1.0000
  C   C250      1.0  0.49880016538587824  0.7121432111878121  0.17670819030911022  1.0000
  C   C251      1.0  0.5257957379650935  0.6962195075833146  0.17714125076784956  1.0000
  C   C252      1.0  0.5517448504266712  0.7098534401787194  0.16924887190742402  1.0000
  H   H165      1.0  0.5229999802307218  0.7786964691314412  0.15492322792418076  1.0000
  H   H166      1.0  0.47729401819634043  0.7544879335545229  0.16904853136856773  1.0000
  H   H167      1.0  0.5266150394686467  0.6731528466832162  0.18339070073382988  1.0000
  H   H168      1.0  0.5723864770651942  0.697312045839114  0.16937698789260774  1.0000
  C   C253      1.0  0.6836261979948384  0.7261978762169718  0.031382260491503826  1.0000
  C   C254      1.0  0.6536068529422966  0.7326563274749388  0.03197408359583293  1.0000
  C   C255      1.0  0.6389464485076851  0.7349723520472399  0.006157967968442257  1.0000
  C   C256      1.0  0.6540897829239517  0.7307687529931016  0.9795634451081852  1.0000
  C   C257      1.0  0.684097365060362  0.7242022329002736  0.9789717347728217  1.0000
  C   C258      1.0  0.6987917453001464  0.7220112806121204  0.004794854007309723  1.0000
  H   H169      1.0  0.6417188798013155  0.7359930981673775  0.05228598880612162  1.0000
  H   H170      1.0  0.6157592483989944  0.7401721405026517  0.006798224199446867  1.0000
  H   H171      1.0  0.6959766140793048  0.7209037003569755  0.9586446285655587  1.0000
  H   H172      1.0  0.7220076842648396  0.7169378694306345  0.004141944868508098  1.0000
  C   C259      1.0  0.7101612016285926  0.7979591862759102  0.21747822039538411  1.0000
  C   C260      1.0  0.7209784292436661  0.8214667103349514  0.23020312529192713  1.0000
  C   C261      1.0  0.7194153921053015  0.8227622802612263  0.2603683948590229  1.0000
  C   C262      1.0  0.7066125541009386  0.8007251017863705  0.2778559166327824  1.0000
  C   C263      1.0  0.696812136315316  0.7767621309416963  0.26515806696989164  1.0000
  C   C264      1.0  0.6989042142249297  0.7752214631047153  0.23513855323843266  1.0000
  H   H173      1.0  0.7299353412720648  0.839093711018055  0.21672260513241004  1.0000
  H   H174      1.0  0.7269997111924797  0.8413825297006259  0.26998934491644727  1.0000
  H   H175      1.0  0.6871675304719009  0.759491263343062  0.27860742074349054  1.0000
  H   H176      1.0  0.6915033322729139  0.756516814313698  0.22575650819868748  1.0000
  C   C265      1.0  0.0017245881752236958  0.6389136185536587  0.2483529470304752  1.0000
  C   C266      1.0  0.9969462822751239  0.6584868992582007  0.27004470320241136  1.0000
  C   C267      1.0  0.0204869368279686  0.6722851095362731  0.27992808918572654  1.0000
  C   C268      1.0  0.048880948802751616  0.6663279950877007  0.2684231922038363  1.0000
  C   C269      1.0  0.05350599226265756  0.6469802632474375  0.24658464375828051  1.0000
  C   C270      1.0  0.030030822379940814  0.6334661405471516  0.2365240472037311  1.0000
  H   H177      1.0  0.9751836313923894  0.6628151798787061  0.27929975823609915  1.0000
  H   H178      1.0  0.01668275431323262  0.6873034112281219  0.2967858659223694  1.0000
  H   H179      1.0  0.07509847332275225  0.6426799399319637  0.2371186332441361  1.0000
  H   H180      1.0  0.03382033374697735  0.6185116647551553  0.21959863079468997  1.0000
  C   C271      1.0  0.8767675285803104  0.5068172493576072  0.2702254443072555  1.0000
  C   C272      1.0  0.8882559993949414  0.5106298019432227  0.2419144988446233  1.0000
  C   C273      1.0  0.8923673687293384  0.48672313584390714  0.2246329923757938  1.0000
  C   C274      1.0  0.8856908743041451  0.45869056927616714  0.2356893888846538  1.0000
  C   C275      1.0  0.8747188927360272  0.4547327625204829  0.26415606877758363  1.0000
  C   C276      1.0  0.8700734598731851  0.4787938509120324  0.28127965032781094  1.0000
  H   H181      1.0  0.8938303236448519  0.5319961973103028  0.23331419028742714  1.0000
  H   H182      1.0  0.9008082323198999  0.48997056803355377  0.20259839576594085  1.0000
  H   H183      1.0  0.8694330293360962  0.4332566244894551  0.27287254406228106  1.0000
  H   H184      1.0  0.8611779671687644  0.47568781525541615  0.3031920426500369  1.0000
  C   C277      1.0  0.7988011618996809  0.6528581169142645  0.19885637310911722  1.0000
  C   C278      1.0  0.7848915436783231  0.661965742076949  0.17356920671889567  1.0000
  C   C279      1.0  0.7544624838364309  0.6643861690235482  0.17337174329800922  1.0000
  C   C280      1.0  0.7375390736910871  0.65780397766701  0.198506919330544  1.0000
  C   C281      1.0  0.7514113857767896  0.6482391590016283  0.22382249204404542  1.0000
  C   C282      1.0  0.7819898763678135  0.646008375373814  0.22409181442989762  1.0000
  H   H185      1.0  0.7977185269596406  0.6668499169251805  0.15386945330892057  1.0000
  H   H186      1.0  0.7441108502493073  0.6704826420327211  0.15346886836134896  1.0000
  H   H187      1.0  0.7384326888586082  0.6428279569394767  0.2432943861075523  1.0000
  H   H188      1.0  0.7924324914331055  0.6388666928069342  0.2437212311467156  1.0000
  C   C283      1.0  0.8559707856246762  0.7080466150620891  0.3302372748276232  1.0000
  C   C284      1.0  0.8358463056996434  0.7210363997742972  0.3497954326456701  1.0000
  C   C285      1.0  0.8300188183827029  0.7512702813780231  0.34816828423391494  1.0000
  C   C286      1.0  0.8447436814387087  0.7689671035764668  0.3274688428087285  1.0000
  C   C287      1.0  0.8649372605060909  0.7560042203494013  0.3078010134375269  1.0000
  C   C288      1.0  0.870301101426584  0.7255220734405825  0.3089336911290302  1.0000
  H   H189      1.0  0.8247140947113742  0.7075698685115822  0.3662709559385023  1.0000
  H   H190      1.0  0.8148722702816539  0.7608878147639555  0.3636306496911772  1.0000
  H   H191      1.0  0.8765673543954968  0.7695553105368994  0.2917751735190441  1.0000
  H   H192      1.0  0.886120657026933  0.7156621765295417  0.2939342723070806  1.0000
  N   N1        1.0  0.29833908774978085  0.7887066781706743  0.9465927335006431  1.0000
  C   C289      1.0  0.27750325400399856  0.8077555965338993  0.9630591657837816  1.0000
  C   C290      1.0  0.28653269865047776  0.7597862461899277  0.9455319711677006  1.0000
  C   C291      1.0  0.3262522118819304  0.7855540540931087  0.9608621130302748  1.0000
  C   C292      1.0  0.3030935958530759  0.8016851484907165  0.9169350434158262  1.0000
  H   H193      1.0  0.2858001804457431  0.8297258032866578  0.9643752985928302  1.0000
  H   H194      1.0  0.2734836163837457  0.7983859368992268  0.985500559475642  1.0000
  H   H195      1.0  0.256202297472062  0.8107018602129394  0.9528699714776367  1.0000
  H   H196      1.0  0.26488734174545114  0.7613647379428143  0.9360574853292982  1.0000
  H   H197      1.0  0.30108065915805304  0.7453262372226498  0.9321280014102731  1.0000
  H   H198      1.0  0.28439808129036337  0.7484150824395069  0.9673572310088754  1.0000
  H   H199      1.0  0.32373754173635755  0.7750618252797065  0.9830488335368627  1.0000
  H   H200      1.0  0.33572995442890174  0.8069135044908556  0.962372764167305  1.0000
  H   H201      1.0  0.34258171620214767  0.7715945624248683  0.9488355392634648  1.0000
  H   H202      1.0  0.3122304999910969  0.8234316172442052  0.9166754711669476  1.0000
  H   H203      1.0  0.28261847960107905  0.8042317682439353  0.9052864609565329  1.0000
  H   H204      1.0  0.3186777361065525  0.7877155348369741  0.9040001521765298  1.0000
  N   N2        1.0  0.049265983773547406  0.5757934277115846  0.31386962566719157  1.0000
  C   C293      1.0  0.07009570625113026  0.5986109097929626  0.3070686999719246  1.0000
  C   C294      1.0  0.02430802830431089  0.5811345300316445  0.29530719842656405  1.0000
  C   C295      1.0  0.03880045951450706  0.5764923776070847  0.34440176315625  1.0000
  C   C296      1.0  0.063890587664716  0.5469768128225022  0.3087670456614067  1.0000
  H   H205      1.0  0.059982917494511234  0.6206765786519682  0.31095138538196493  1.0000
  H   H206      1.0  0.07827682630319877  0.5989208440327234  0.2841229272033403  1.0000
  H   H207      1.0  0.08940750444319079  0.5949786440100513  0.32041043656071805  1.0000
  H   H208      1.0  0.008044747113084227  0.5644134790762747  0.29979600004666196  1.0000
  H   H209      1.0  0.012766265055115467  0.6026993311375558  0.29864469875688204  1.0000
  H   H210      1.0  0.031304277711391215  0.5809182347324592  0.2720612505253954  1.0000
  H   H211      1.0  0.023055437556417813  0.5595167803808239  0.35031726084961207  1.0000
  H   H212      1.0  0.027606172736321044  0.5979796671849529  0.3488892521930471  1.0000
  H   H213      1.0  0.05710831904977365  0.5726701085941005  0.3590219314457191  1.0000
  H   H214      1.0  0.08251081952475725  0.5420435657315946  0.32286959471797405  1.0000
  H   H215      1.0  0.07290096669823276  0.5460722416660483  0.28613387670032314  1.0000
  H   H216      1.0  0.0487308091701113  0.5292165618279985  0.31303508113552536  1.0000
  N   N3        1.0  0.11661591774862834  0.7598943317185112  0.29146986328003166  1.0000
  C   C297      1.0  0.10064809935224539  0.7872705140453926  0.29940841711107313  1.0000
  C   C298      1.0  0.11168975713806262  0.7368966709337569  0.31459557689939555  1.0000
  C   C299      1.0  0.14803230258021816  0.7645229874188314  0.2876416466723145  1.0000
  C   C300      1.0  0.10599009593661268  0.7509176977925908  0.26428301355600337  1.0000
  H   H217      1.0  0.07686114905918795  0.7845090322548292  0.3024532150209279  1.0000
  H   H218      1.0  0.10388746011961358  0.8051318086061862  0.28244564025114033  1.0000
  H   H219      1.0  0.10809079696642065  0.7946404415026808  0.3198852127872556  1.0000
  H   H220      1.0  0.08824783165487449  0.7324747424938747  0.3177073219108333  1.0000
  H   H221      1.0  0.12354133217264152  0.7159264960415703  0.30941426556932705  1.0000
  H   H222      1.0  0.11908601934786245  0.7430022615255316  0.3355274653566958  1.0000
  H   H223      1.0  0.16095236809031022  0.743981513074307  0.2829870109436234  1.0000
  H   H224      1.0  0.15649824536066026  0.7725142560794531  0.30735695162626026  1.0000
  H   H225      1.0  0.152706535363208  0.78086552973737  0.2695675837883948  1.0000
  H   H226      1.0  0.11744770172739383  0.7302527585024806  0.25768932476898876  1.0000
  H   H227      1.0  0.10918885687245905  0.7677096527575636  0.24628644222132012  1.0000
  H   H228      1.0  0.08240219036765506  0.7468968806826424  0.26653643167800983  1.0000
  N   N4        1.0  0.25230571396925044  0.20273042211467204  0.7931526076526153  1.0000
  C   C301      1.0  0.22221964797650273  0.21171210994781572  0.8029760999148836  1.0000
  C   C302      1.0  0.2669718871359672  0.22852113284907702  0.7805384534427782  1.0000
  C   C303      1.0  0.2517516466249548  0.18101616426766337  0.7712568818674879  1.0000
  C   C304      1.0  0.2683703304453782  0.18976364519009273  0.8179264066789604  1.0000
  H   H229      1.0  0.2103206589018643  0.1928086265482277  0.8124150612610197  1.0000
  H   H230      1.0  0.20958644726044207  0.22208697782837744  0.7849441363448639  1.0000
  H   H231      1.0  0.22181475692823963  0.22795249960317382  0.81966339066366  1.0000
  H   H232      1.0  0.2684070851181124  0.24490786914961085  0.7967711513306541  1.0000
  H   H233      1.0  0.2895503494655355  0.2225407807214021  0.7724642195189265  1.0000
  H   H234      1.0  0.2550061291734958  0.23948885916683915  0.7624331650539516  1.0000
  H   H235      1.0  0.27410995775276503  0.17403152822322643  0.7630914860192705  1.0000
  H   H236      1.0  0.2393113338338297  0.18969301855228016  0.7524624943655563  1.0000
  H   H237      1.0  0.24122422530158957  0.16105862732549217  0.7802024612327397  1.0000
  H   H238      1.0  0.25812253654224165  0.17011381594930577  0.8279878011495937  1.0000
  H   H239      1.0  0.2691173088133492  0.2055251170425557  0.8349131970736309  1.0000
  H   H240      1.0  0.29127801285300015  0.18296364117245237  0.8113284640185301  1.0000
  N   N5        1.0  0.7651567924063198  0.29657981839949893  0.08085732718070726  1.0000
  C   C305      1.0  0.7708549529787388  0.2650804530625456  0.08807527189670966  1.0000
  C   C306      1.0  0.7881976143953497  0.31289057494862976  0.09196205833735988  1.0000
  C   C307      1.0  0.7366842467145427  0.3064123564873465  0.09413004979920561  1.0000
  C   C308      1.0  0.7647769566467455  0.30189190457047965  0.04923260748992189  1.0000
  H   H241      1.0  0.7536634899959215  0.2521686665491711  0.0802714219640976  1.0000
  H   H242      1.0  0.771447876309024  0.26021607491044674  0.11172228229868868  1.0000
  H   H243      1.0  0.7920443114975951  0.2568282742257603  0.0782037991691478  1.0000
  H   H244      1.0  0.7849695210329175  0.3366708188096238  0.08632361925490083  1.0000
  H   H245      1.0  0.7883944476922615  0.31007167872258146  0.11586536924962872  1.0000
  H   H246      1.0  0.8101585360254909  0.3054140799048667  0.08323615072404048  1.0000
  H   H247      1.0  0.7187379457476544  0.29508377331332397  0.08573062477683023  1.0000
  H   H248      1.0  0.7319268123626314  0.3302171482400739  0.08985321190636725  1.0000
  H   H249      1.0  0.7358139790631132  0.3019407626439966  0.11788754656965525  1.0000
  H   H250      1.0  0.7600922984875096  0.3253650102792753  0.04294379345435553  1.0000
  H   H251      1.0  0.7477265341708755  0.28959301325619297  0.04026622720920483  1.0000
  H   H252      1.0  0.7859669837153491  0.2948753861334528  0.038469784529538455  1.0000
  N   N6        1.0  0.6072430373052086  0.15050104531861602  0.7877258853188367  1.0000
  C   C309      1.0  0.5945674978842878  0.13294227623191035  0.7668092612140635  1.0000
  C   C310      1.0  0.5877015114209582  0.151946034224623  0.8139228872688944  1.0000
  C   C311      1.0  0.6107815434179015  0.18025500039195494  0.7746739605032487  1.0000
  C   C312      1.0  0.6359007157211797  0.13692857480275425  0.7954293246154319  1.0000
  H   H253      1.0  0.572977609177628  0.1426780019095101  0.7604716556004895  1.0000
  H   H254      1.0  0.5915907880618323  0.11032542927233374  0.7759012216749823  1.0000
  H   H255      1.0  0.6088529820334356  0.1314952010427695  0.7467668254202343  1.0000
  H   H256      1.0  0.5967270980263555  0.16500780556140765  0.8301164588407398  1.0000
  H   H257      1.0  0.5660650777106062  0.1626743519243739  0.8090263211398439  1.0000
  H   H258      1.0  0.5842694666991056  0.12993662849435988  0.8243392866720519  1.0000
  H   H259      1.0  0.6243054844004712  0.18000450339660687  0.7541820708517157  1.0000
  H   H260      1.0  0.6213460773782944  0.19380755185194914  0.7894379525063  1.0000
  H   H261      1.0  0.5894515646710827  0.19172101523437582  0.7699025552647447  1.0000
  H   H262      1.0  0.6509042446473974  0.13461118290312707  0.7760276946887956  1.0000
  H   H263      1.0  0.6340117728607805  0.11484271414509122  0.8062591962577496  1.0000
  H   H264      1.0  0.6466546256796993  0.15020031621327545  0.81035779107975  1.0000
  N   N7        1.0  0.2678313415924184  0.7324357418050269  0.7755587275063182  1.0000
  C   C313      1.0  0.25615134663638967  0.7069811090542423  0.7635845158074793  1.0000
  C   C314      1.0  0.2979795354610902  0.735790950061305  0.7639170228029207  1.0000
  C   C315      1.0  0.2676929542392606  0.7281230693017611  0.807308197548518  1.0000
  C   C316      1.0  0.24953529058115784  0.7588841954390402  0.7673995414149778  1.0000
  H   H265      1.0  0.2546492624756969  0.7101477310799829  0.7397838969342945  1.0000
  H   H266      1.0  0.2338998958124972  0.7029993301273086  0.7729223426011304  1.0000
  H   H267      1.0  0.2701093492482634  0.6868181761342533  0.7681512694988493  1.0000
  H   H268      1.0  0.31242446313189315  0.7162306328213663  0.7698492008317188  1.0000
  H   H269      1.0  0.29902921578531483  0.7392118503526502  0.7400202285125509  1.0000
  H   H270      1.0  0.3074317238805427  0.7547842507869623  0.772569929383936  1.0000
  H   H271      1.0  0.24542456837610038  0.7249084891262286  0.8169607236681344  1.0000
  H   H272      1.0  0.2761697176926695  0.7470962948560882  0.8170276175585633  1.0000
  H   H273      1.0  0.2817096880113074  0.7086261126858705  0.8141645652568519  1.0000
  H   H274      1.0  0.24992292564143784  0.7633536193549397  0.7435896313424502  1.0000
  H   H275      1.0  0.2570422683235044  0.7784287449351487  0.7766984587164055  1.0000
  H   H276      1.0  0.22643443097437008  0.7567487121043396  0.7749944990603925  1.0000
  N   N8        1.0  0.08931454654702242  0.4448352343166569  0.7824142686197418  1.0000
  C   C317      1.0  0.09653718172637205  0.4316098747985756  0.7546737552026073  1.0000
  C   C318      1.0  0.0704472323926204  0.47166500123884814  0.7775156163220767  1.0000
  C   C319      1.0  0.11631294168801198  0.45211395709766233  0.7950939436045996  1.0000
  C   C320      1.0  0.07402691530305239  0.4239324281268189  0.8023711722404574  1.0000
  H   H277      1.0  0.10828404480023002  0.44664626751771963  0.7390374881059151  1.0000
  H   H278      1.0  0.07676541547868831  0.42542520662696576  0.7446072988210521  1.0000
  H   H279      1.0  0.11090173947832915  0.41142612093406816  0.7575246244098225  1.0000
  H   H280      1.0  0.06474786499675589  0.4823657439432676  0.7979731694604361  1.0000
  H   H281      1.0  0.08141593592716423  0.4878125392526982  0.7624315336424905  1.0000
  H   H282      1.0  0.04980001905039244  0.4669695088814199  0.7680662616058601  1.0000
  H   H283      1.0  0.12798649362247083  0.46847197762117415  0.7809711838460484  1.0000
  H   H284      1.0  0.13150398585586975  0.43250539282608963  0.7981740169901841  1.0000
  H   H285      1.0  0.11184484399837014  0.4614271703770323  0.8164141271193541  1.0000
  H   H286      1.0  0.06805075568500629  0.43312007048971946  0.8235096373700685  1.0000
  H   H287      1.0  0.08779715626352447  0.40348065526539045  0.8065485972976296  1.0000
  H   H288      1.0  0.05374814725668209  0.4175325126466983  0.7933397370871338  1.0000
  N   N9        1.0  0.18369123240717472  0.5624067355559274  0.18850219062463086  1.0000
  C   C321      1.0  0.2063046976827901  0.5713656609630652  0.20665576454498338  1.0000
  C   C322      1.0  0.16989445883247523  0.588500349307536  0.17337154122419646  1.0000
  C   C323      1.0  0.16148295296920764  0.5471409828775531  0.2068139410521245  1.0000
  C   C324      1.0  0.19719143620735874  0.5426718946235539  0.1671518123112349  1.0000
  H   H289      1.0  0.21712007876886052  0.5523252200286493  0.21861374418591312  1.0000
  H   H290      1.0  0.19690977161139658  0.5865611478117221  0.22273926487908463  1.0000
  H   H291      1.0  0.2233920416097028  0.5830132952394845  0.19349497857017278  1.0000
  H   H292      1.0  0.15925446315488528  0.6037417375024026  0.18885911161994562  1.0000
  H   H293      1.0  0.1861999427274848  0.6009995852278087  0.15996300910645234  1.0000
  H   H294      1.0  0.15304974590294934  0.5827099823594895  0.1590010644802106  1.0000
  H   H295      1.0  0.14331185037981542  0.5413613978266683  0.19405619016435005  1.0000
  H   H296      1.0  0.15202394631237232  0.5607883579085272  0.2242810159129299  1.0000
  H   H297      1.0  0.17085468391931255  0.5265202187297453  0.2173555348169351  1.0000
  H   H298      1.0  0.18075390680944486  0.5353437231801174  0.1531236697473971  1.0000
  H   H299      1.0  0.2079928976371181  0.5228394943900667  0.17789711674780545  1.0000
  H   H300      1.0  0.21400498796390405  0.5536027370571165  0.15295282625229725  1.0000
  N   N10       1.0  0.08743893673455383  0.6888689861903208  0.7361420041702286  1.0000
  C   C325      1.0  0.10503893281596133  0.6613209744189031  0.7324713917361186  1.0000
  C   C326      1.0  0.056248009474247684  0.6836831878012735  0.7351631721430638  1.0000
  C   C327      1.0  0.0957580870458632  0.7104799198967964  0.7127210000428823  1.0000
  C   C328      1.0  0.09281695259953904  0.6999057798957284  0.7642881227009952  1.0000
  H   H301      1.0  0.12869081434812246  0.6647834388239678  0.7313948646312077  1.0000
  H   H302      1.0  0.10035218625331788  0.6512797006664721  0.71232949213893  1.0000
  H   H303      1.0  0.10078368898941181  0.6451888655471298  0.7507860480046092  1.0000
  H   H304      1.0  0.04234651550917712  0.704206547549913  0.7366559958003667  1.0000
  H   H305      1.0  0.05147274812645675  0.6738027377054114  0.7149395943984469  1.0000
  H   H306      1.0  0.04901736328927986  0.6685380292375617  0.7533932240396962  1.0000
  H   H307      1.0  0.08313161312528372  0.7316878060623272  0.7148315250479275  1.0000
  H   H308      1.0  0.09195521622773128  0.7027162871011564  0.6912280985462261  1.0000
  H   H309      1.0  0.11926925885868078  0.7146823521673923  0.7127869284695153  1.0000
  H   H310      1.0  0.07954054128956489  0.7204291477172012  0.7680685133205655  1.0000
  H   H311      1.0  0.11605138812110094  0.7043820072172328  0.7656983527836732  1.0000
  H   H312      1.0  0.08729179770904305  0.6837437177944362  0.7823963055600768  1.0000
  N   N11       1.0  0.3079887465077986  0.30024374428009293  0.08845716601811446  1.0000
  C   C329      1.0  0.3332095389560977  0.30175086228323733  0.10631008475956125  1.0000
  C   C330      1.0  0.3162811204281631  0.30934573208151317  0.05823623976747039  1.0000
  C   C331      1.0  0.2837412011197851  0.31975948708228324  0.09936790913988394  1.0000
  C   C332      1.0  0.2987905815451009  0.2700465389135403  0.08997056083885836  1.0000
  H   H313      1.0  0.32794153982713664  0.29447404581384695  0.12908049948374026  1.0000
  H   H314      1.0  0.3404593964034779  0.3242835560919227  0.10620098838425045  1.0000
  H   H315      1.0  0.35211298135650293  0.2876170947249399  0.09861654293808216  1.0000
  H   H316      1.0  0.33447906480240636  0.2947870200886076  0.04954021058302649  1.0000
  H   H317      1.0  0.29780651781611645  0.30849944975393645  0.04406551890580823  1.0000
  H   H318      1.0  0.3236391087325492  0.33191797114982396  0.05626045702171737  1.0000
  H   H319      1.0  0.28984817160278414  0.3427588410755537  0.09847614377912366  1.0000
  H   H320      1.0  0.2772836056092731  0.3135153579847255  0.12228103931467414  1.0000
  H   H321      1.0  0.26415558158895386  0.31899406883084275  0.08666532274552811  1.0000
  H   H322      1.0  0.28020373254299663  0.26798750854556636  0.07623765085905203  1.0000
  H   H323      1.0  0.29184849989176403  0.26260340634207896  0.11239358741393428  1.0000
  H   H324      1.0  0.31680022907200805  0.25460773223674643  0.0824794845895903  1.0000
  N   N12       1.0  0.7990813742827403  0.22234843048612274  0.5709923840489022  1.0000
  C   C333      1.0  0.7679286756421261  0.22803010491214296  0.5655171050204418  1.0000
  C   C334      1.0  0.8038797520945359  0.22820981000983787  0.6010894529116311  1.0000
  C   C335      1.0  0.8165434606704494  0.24148036634434827  0.5511224539818491  1.0000
  C   C336      1.0  0.8079247111308693  0.19158092052718056  0.5662613592868151  1.0000
  H   H325      1.0  0.763352595920391  0.22321506761258422  0.5431584448101149  1.0000
  H   H326      1.0  0.7604341770833493  0.2510591972317619  0.5686713761335096  1.0000
  H   H327      1.0  0.754091712044484  0.21396384489412482  0.580223628104884  1.0000
  H   H328      1.0  0.8269510085597267  0.22325853192977277  0.6064580376070463  1.0000
  H   H329      1.0  0.7979862019852101  0.25133763366528  0.605491811744895  1.0000
  H   H330      1.0  0.790433439975732  0.2145196577089892  0.6164223860126827  1.0000
  H   H331      1.0  0.810364078803522  0.26487731641248113  0.554052192636899  1.0000
  H   H332      1.0  0.8133873031480554  0.23744858498464155  0.5282380253427765  1.0000
  H   H333      1.0  0.8401507769250084  0.23776700721483923  0.5547529461132691  1.0000
  H   H334      1.0  0.8312647222387155  0.18636164247968348  0.5702491009422715  1.0000
  H   H335      1.0  0.8041367943222744  0.18614782992851195  0.5438876454836916  1.0000
  H   H336      1.0  0.7951319856259172  0.17663070561570987  0.5809194901849981  1.0000
  N   N13       1.0  0.8562386552931505  0.05157338975055614  0.6534134112411302  1.0000
  C   C337      1.0  0.8312312603459013  0.039127555337398645  0.6699913630430939  1.0000
  C   C338      1.0  0.8563925430600835  0.0829416258949931  0.6581177001333206  1.0000
  C   C339      1.0  0.8537820031555835  0.04780438005167831  0.6224063406785577  1.0000
  C   C340      1.0  0.8834622869395138  0.03639030047094938  0.6631345515438516  1.0000
  H   H337      1.0  0.8301614319560713  0.01552511990661909  0.6666933395896933  1.0000
  H   H338      1.0  0.8103472723141272  0.050076444271385245  0.6631593217834959  1.0000
  H   H339      1.0  0.8322237369607735  0.04156252462619725  0.6934877000268939  1.0000
  H   H340      1.0  0.8747490981156818  0.09331661572528338  0.6457711666213451  1.0000
  H   H341      1.0  0.836051626513905  0.09491714196245771  0.651089965034488  1.0000
  H   H342      1.0  0.8580689246591818  0.0868258524733494  0.681257227911138  1.0000
  H   H343      1.0  0.8342019946564863  0.060179148385198555  0.6140568715339071  1.0000
  H   H344      1.0  0.8516196588915854  0.024563469419152106  0.618206859768652  1.0000
  H   H345      1.0  0.8729114155794038  0.055692066959317055  0.6092854858170514  1.0000
  H   H346      1.0  0.9028186352729894  0.04532151398579032  0.6511724417932339  1.0000
  H   H347      1.0  0.8839530342527241  0.012678079226902117  0.6597262748669294  1.0000
  H   H348      1.0  0.8858958029136437  0.038673679881341405  0.6864903380440995  1.0000
  N   N14       1.0  0.7320137178694222  0.692828887190454  0.7535114293642127  1.0000
  C   C341      1.0  0.7466569665767507  0.6634783361997574  0.7577487004614175  1.0000
  C   C342      1.0  0.7005104421210414  0.6901761298526512  0.7512260577326758  1.0000
  C   C343      1.0  0.7441269424508267  0.7077329869407104  0.7268020345473893  1.0000
  C   C344      1.0  0.7366530986562551  0.7098678334221411  0.7784038800662406  1.0000
  H   H349      1.0  0.7704403911787507  0.6645800298694559  0.7600281199005956  1.0000
  H   H350      1.0  0.7439044309207086  0.6500389267382227  0.7392487424394752  1.0000
  H   H351      1.0  0.737694973507986  0.6516106166115059  0.7775968048668727  1.0000
  H   H352      1.0  0.696060317994829  0.677915788244393  0.7323675271107188  1.0000
  H   H353      1.0  0.6907835388285275  0.6785128349404085  0.7708293669365484  1.0000
  H   H354      1.0  0.6886612916801513  0.711954855682351  0.7487791907036975  1.0000
  H   H355      1.0  0.7408831783755817  0.6954818727694675  0.7075695389517347  1.0000
  H   H356      1.0  0.7678705382201703  0.7099514713447687  0.7276473992936932  1.0000
  H   H357      1.0  0.7335424223161131  0.7299733938700358  0.7229195953359372  1.0000
  H   H358      1.0  0.7265614443483808  0.6998379181331397  0.7986532283296158  1.0000
  H   H359      1.0  0.7267800085383825  0.7324627946422683  0.7756195393763982  1.0000
  H   H360      1.0  0.7601389573238307  0.711124947201727  0.7817781209886189  1.0000
  N   N15       1.0  0.7561386003253696  0.2445600801030724  0.7679822592368889  1.0000
  C   C345      1.0  0.7401797607210454  0.25989259198750564  0.7442559403317562  1.0000
  C   C346      1.0  0.7684809296939074  0.21600310170702258  0.7589651827276191  1.0000
  C   C347      1.0  0.7359624450019173  0.24010961058974167  0.7934458790210313  1.0000
  C   C348      1.0  0.7798342323585253  0.2623489904251377  0.7752400627747922  1.0000
  H   H361      1.0  0.7228481170923456  0.24663090866148782  0.7373396478899228  1.0000
  H   H362      1.0  0.75505004683828  0.2649477706372919  0.7251946152280305  1.0000
  H   H363      1.0  0.7296761429279878  0.2810280872160425  0.7508498697912844  1.0000
  H   H364      1.0  0.7844340096858501  0.21855718601746651  0.7402875406410707  1.0000
  H   H365      1.0  0.7798125439687228  0.20352358363249048  0.7767646295147962  1.0000
  H   H366      1.0  0.7512385619535126  0.2023503231099824  0.7525004457192255  1.0000
  H   H367      1.0  0.7472253229431399  0.22915111612494243  0.8121074055773541  1.0000
  H   H368      1.0  0.7182219441833304  0.2262793117546514  0.7887895720389825  1.0000
  H   H369      1.0  0.7256262108773385  0.2611289441732799  0.8004391507707636  1.0000
  H   H370      1.0  0.7712429714262278  0.28441743590957247  0.7809097651243311  1.0000
  H   H371      1.0  0.7959545647372067  0.2654164677891084  0.7567487405829263  1.0000
  H   H372      1.0  0.791670835264516  0.2522328953800844  0.7938918031309216  1.0000
  N   N16       1.0  0.1975198486347081  0.8221845617902782  0.4704932847184953  1.0000
  C   C349      1.0  0.1759683326543643  0.7997521302027352  0.47453936484623493  1.0000
  C   C350      1.0  0.22432772856196168  0.8096812402385843  0.45609708451242387  1.0000
  C   C351      1.0  0.2042500475235536  0.8320427454571483  0.498776082834129  1.0000
  C   C352      1.0  0.18567262471183374  0.8472392452095616  0.45235938171879875  1.0000
  H   H373      1.0  0.1843491957227563  0.7804993240276766  0.4880337658695036  1.0000
  H   H374      1.0  0.17063538039464676  0.7919071674698669  0.453459314004234  1.0000
  H   H375      1.0  0.15535780997030907  0.8083677213126611  0.4853016837311281  1.0000
  H   H376      1.0  0.24086019876848552  0.8261882587833843  0.45224460245012327  1.0000
  H   H377      1.0  0.2342483559364666  0.7909947424125813  0.4692741633149662  1.0000
  H   H378      1.0  0.21999871540676857  0.8016831006310496  0.4348311793000482  1.0000
  H   H379      1.0  0.21404396847772195  0.8138871242826496  0.5127872757145937  1.0000
  H   H380      1.0  0.18445739910832407  0.8411915164841478  0.5105350006172911  1.0000
  H   H381      1.0  0.22012974767281632  0.8493410078154958  0.496281150872802  1.0000
  H   H382      1.0  0.1649299456947747  0.8567671070589626  0.4620515191806619  1.0000
  H   H383      1.0  0.18145238765284338  0.8407718046695426  0.4304110355542392  1.0000
  H   H384      1.0  0.20116101210001305  0.8648855431416962  0.44960350833629675  1.0000
  N   N17       1.0  0.4848220738248904  0.7272685714428699  0.08396979461873251  1.0000
  C   C353      1.0  0.5158100661252135  0.7202934007596034  0.08942866814458618  1.0000
  C   C354      1.0  0.466892557149598  0.7064746425134479  0.10133681211861469  1.0000
  C   C355      1.0  0.4800997436125465  0.7250737208941994  0.053110161499623734  1.0000
  C   C356      1.0  0.47631230489114623  0.7572136997128601  0.09204571764586368  1.0000
  H   H385      1.0  0.5300581821076419  0.7360625987128473  0.07745573829650876  1.0000
  H   H386      1.0  0.5231308857345971  0.6980545177700868  0.08309546436198426  1.0000
  H   H387      1.0  0.5197675183337255  0.7209112545135642  0.11270370908207941  1.0000
  H   H388      1.0  0.47335549014127015  0.6835267996559  0.09675718400968011  1.0000
  H   H389      1.0  0.46877409675057913  0.708394100703831  0.12479277436106907  1.0000
  H   H390      1.0  0.4435376497087606  0.7104140063988597  0.0968988994928521  1.0000
  H   H391      1.0  0.4857979313587705  0.7026423245696234  0.046366352584302  1.0000
  H   H392      1.0  0.49332779736370125  0.740405414838473  0.039294771367341115  1.0000
  H   H393      1.0  0.45683935289622646  0.7304122210163888  0.04846285775560645  1.0000
  H   H394      1.0  0.4530005964488165  0.7631196875166195  0.08835532033490993  1.0000
  H   H395      1.0  0.48939107973636414  0.7735273891614285  0.07940242664366573  1.0000
  H   H396      1.0  0.47928887160556266  0.759634280186228  0.1152101156669917  1.0000
  N   N18       1.0  0.8390555566055843  0.7458548091955893  0.7597783145857482  1.0000
  C   C357      1.0  0.8366456772105284  0.7173422465953652  0.7477597717362285  1.0000
  C   C358      1.0  0.8457622735328011  0.7678429137762615  0.7361461659361194  1.0000
  C   C359      1.0  0.8626097644424446  0.7433895937552996  0.780151718822532  1.0000
  C   C360      1.0  0.8112701699480378  0.7547352870351097  0.7750222731511198  1.0000
  H   H397      1.0  0.8574522201519718  0.7098287008780149  0.7366465962399185  1.0000
  H   H398      1.0  0.819781177202306  0.7184240476499307  0.731606878957788  1.0000
  H   H399      1.0  0.8312979207353235  0.7001760942186852  0.7648612714304422  1.0000
  H   H400      1.0  0.8664807323434066  0.7617303490172689  0.7239540786040118  1.0000
  H   H401      1.0  0.8284728779087653  0.7702611558234715  0.7202818191379694  1.0000
  H   H402      1.0  0.847915197888742  0.7896760250973703  0.7442700359340435  1.0000
  H   H403      1.0  0.8580836443268586  0.7271408169763629  0.7984007274121516  1.0000
  H   H404      1.0  0.8654522511118805  0.7645482600323963  0.7894175670468097  1.0000
  H   H405      1.0  0.8837556777070916  0.7360754756992568  0.7694146229388859  1.0000
  H   H406      1.0  0.8123916491477127  0.7761356181261423  0.7844702087479937  1.0000
  H   H407      1.0  0.805620846594025  0.738559422350083  0.7929863282749573  1.0000
  H   H408      1.0  0.7930818609777049  0.7569165700071242  0.7601798665576398  1.0000
  N   N19       1.0  0.7059515284770358  0.9015773380909529  0.4572105324109666  1.0000
  C   C361      1.0  0.6891872019644739  0.9098736913344145  0.43150513207207725  1.0000
  C   C362      1.0  0.6949935879529208  0.9195127839151728  0.48109323709544416  1.0000
  C   C363      1.0  0.7369391542340396  0.9065164536590363  0.4503118742890497  1.0000
  C   C364      1.0  0.7027757913357325  0.870457663101816  0.46593681285966854  1.0000
  H   H409      1.0  0.6970475423661774  0.8968147081665432  0.4130853069863218  1.0000
  H   H410      1.0  0.6914925028329101  0.9331129780701607  0.4240249031638458  1.0000
  H   H411      1.0  0.665663349239462  0.9065368735058065  0.4357658610241161  1.0000
  H   H412      1.0  0.707236850602442  0.9137181546612506  0.5008372203555088  1.0000
  H   H413      1.0  0.6972165449120264  0.9431138651533313  0.4752759410120164  1.0000
  H   H414      1.0  0.6716415465840817  0.9163642039688183  0.48687574228923275  1.0000
  H   H415      1.0  0.7399911735989452  0.9293918454525825  0.44202902904107544  1.0000
  H   H416      1.0  0.7462823603278228  0.8922735866509134  0.433298710874665  1.0000
  H   H417      1.0  0.7500434673754955  0.9019924342877531  0.4695569391798612  1.0000
  H   H418      1.0  0.7116202841864073  0.8561511388790042  0.44874828086298346  1.0000
  H   H419      1.0  0.6796150745197742  0.8657146576211012  0.4705948739360513  1.0000
  H   H420      1.0  0.7146060143135001  0.8636495363539782  0.48570331782097825  1.0000
  N   N20       1.0  0.6979329596804271  0.8908951839691106  0.7166617904379913  1.0000
  C   C365      1.0  0.6778422817763  0.9039187951829912  0.7387604200811411  1.0000
  C   C366      1.0  0.684937710516861  0.8655791246733262  0.7058147533132252  1.0000
  C   C367      1.0  0.7257137110798991  0.8812504463002994  0.7295749117279241  1.0000
  C   C368      1.0  0.7032925187947136  0.9127928597805041  0.6925744123273376  1.0000
  H   H421      1.0  0.673358523408191  0.887890212508952  0.7572293423433113  1.0000
  H   H422      1.0  0.6566287884711322  0.9114537009994019  0.729772460302255  1.0000
  H   H423      1.0  0.6871039771016462  0.922996858500045  0.7474706396653471  1.0000
  H   H424      1.0  0.6641560146067514  0.8719834493180433  0.6954898209618972  1.0000
  H   H425      1.0  0.6997655238602921  0.8548818249006341  0.6894508027610584  1.0000
  H   H426      1.0  0.6803535062481025  0.8487239514451055  0.723475583087594  1.0000
  H   H427      1.0  0.7409845950902867  0.8703384485168623  0.7137553999861318  1.0000
  H   H428      1.0  0.7224124685942033  0.8656011936668795  0.7485339138479024  1.0000
  H   H429      1.0  0.7369057120297718  0.8999546687475456  0.7367353000598882  1.0000
  H   H430      1.0  0.7183252086129714  0.9036261169512855  0.675506268990055  1.0000
  H   H431      1.0  0.7137189385340852  0.9319374953238455  0.6998379738436297  1.0000
  H   H432      1.0  0.6828549031844  0.9207877782109849  0.6823431075778749  1.0000
  N   N21       1.0  0.7770792886939465  0.22620808136742818  0.2561447914608684  1.0000
  C   C369      1.0  0.7726264191873415  0.2038255678908039  0.23584898426288287  1.0000
  C   C370      1.0  0.7542175198103498  0.2500355675439781  0.25314076949508035  1.0000
  C   C371      1.0  0.8059239444098548  0.23799506005957682  0.24971287527107836  1.0000
  C   C372      1.0  0.7755439824148432  0.21291229103166168  0.2859265125983923  1.0000
  H   H433      1.0  0.7735891040807433  0.21304933879355437  0.21313579529446697  1.0000
  H   H434      1.0  0.7510892231434004  0.19441086459922982  0.24019044241005744  1.0000
  H   H435      1.0  0.7894286957345085  0.18542354419736756  0.2377208509911913  1.0000
  H   H436      1.0  0.7569911175068816  0.26732302314094697  0.26812871304722646  1.0000
  H   H437      1.0  0.754671448304657  0.2605420819067296  0.23089273711862052  1.0000
  H   H438      1.0  0.7321801529345223  0.2418822801280739  0.25792457226224746  1.0000
  H   H439      1.0  0.8236273912783829  0.22047558293407984  0.25141816237118825  1.0000
  H   H440      1.0  0.8102492661198408  0.2545405236196435  0.2650228061536838  1.0000
  H   H441      1.0  0.8077656665151649  0.24868119630361402  0.22757210969326777  1.0000
  H   H442      1.0  0.7923822844090986  0.19470184688365247  0.28892605943705046  1.0000
  H   H443      1.0  0.754066101712246  0.20384504818660606  0.2915774072164384  1.0000
  H   H444      1.0  0.7789202286150759  0.22905679717608077  0.3019105449139106  1.0000
  N   N22       1.0  0.2598075583586978  0.4012150618550906  0.31839565876353493  1.0000
  C   C373      1.0  0.22805796191445038  0.4071707979971772  0.32241826577241783  1.0000
  C   C374      1.0  0.26686127935319115  0.3694768843952141  0.32203396441370785  1.0000
  C   C375      1.0  0.2745115205077684  0.41613886203635736  0.3399988406710072  1.0000
  C   C376      1.0  0.26971399882489594  0.4121141438399201  0.28912721257412716  1.0000
  H   H445      1.0  0.22178491034585246  0.43089860602985025  0.3196655662930169  1.0000
  H   H446      1.0  0.21957772899014252  0.39886132295383586  0.3440576286873496  1.0000
  H   H447      1.0  0.2164567384395946  0.39647533846684807  0.3062650699505624  1.0000
  H   H448      1.0  0.25891630373492475  0.36028699617837134  0.34356078672770546  1.0000
  H   H449      1.0  0.2563850480431448  0.35760678182139477  0.30580682309586654  1.0000
  H   H450      1.0  0.29066580463701097  0.364094110075265  0.319565041431956  1.0000
  H   H451      1.0  0.298541049064573  0.4121997116948482  0.3375679295208432  1.0000
  H   H452      1.0  0.26747103153173607  0.40839829111495257  0.36230730356111174  1.0000
  H   H453      1.0  0.2694975420171567  0.4401249626331691  0.33781512016771814  1.0000
  H   H454      1.0  0.29358700733206117  0.40816520146096164  0.2852538139164974  1.0000
  H   H455      1.0  0.2642197547951307  0.4359166439502688  0.2854301544940554  1.0000
  H   H456      1.0  0.2589975245347234  0.4013020317074311  0.2722727449601329  1.0000
  N   N23       1.0  0.4315550320118094  0.3131193272157283  0.8339268063649077  1.0000
  C   C377      1.0  0.3999492440432878  0.3138678748944924  0.830094221710898  1.0000
  C   C378      1.0  0.4437798304601099  0.33908146597930555  0.818684475860023  1.0000
  C   C379      1.0  0.4457986072283519  0.2865877475573302  0.8219895793087891  1.0000
  C   C380      1.0  0.43670927193542364  0.3128611272976225  0.8649691775613603  1.0000
  H   H457      1.0  0.3950010439952001  0.3133442878754499  0.807037341247733  1.0000
  H   H458      1.0  0.3883623674455651  0.33371054688539553  0.8385228971962388  1.0000
  H   H459      1.0  0.38997422071328186  0.2948487318585839  0.8417543306126161  1.0000
  H   H460      1.0  0.4676174875394594  0.3391591064829353  0.8212176012678998  1.0000
  H   H461      1.0  0.44028328401691896  0.3398281335821606  0.7951908061516695  1.0000
  H   H462      1.0  0.4334786484355113  0.3595386768003562  0.8270764900246897  1.0000
  H   H463      1.0  0.4697120764530588  0.28526939007747415  0.8244762849560922  1.0000
  H   H464      1.0  0.44206683910130057  0.2857030569841089  0.7986943558402803  1.0000
  H   H465      1.0  0.4373532513611426  0.2666216046190529  0.8332714545318703  1.0000
  H   H466      1.0  0.4603575150958275  0.3108199395087493  0.8688498841464669  1.0000
  H   H467      1.0  0.4267608711800477  0.2940950010513056  0.877208760479377  1.0000
  H   H468      1.0  0.42713881296329764  0.33300347568923777  0.8745462629950045  1.0000
  N   N24       1.0  0.5889476568157653  0.19559446839243314  0.228662949861871  1.0000
  C   C381      1.0  0.5833760561345773  0.22735489439693943  0.22290234892061928  1.0000
  C   C382      1.0  0.602219535099471  0.1897922088003213  0.25678866396767025  1.0000
  C   C383      1.0  0.6090659512634419  0.1840304337961755  0.2057898392350553  1.0000
  C   C384      1.0  0.5612392710154371  0.18119433528997445  0.22912622548977893  1.0000
  H   H469      1.0  0.5742065944307678  0.23264641419807228  0.2014390430070193  1.0000
  H   H470      1.0  0.6036861933847977  0.23903937729525393  0.22312814927007943  1.0000
  H   H471      1.0  0.5676384138140773  0.2367040086795299  0.2393057268100502  1.0000
  H   H472      1.0  0.5877281395462851  0.19815472561196693  0.2746878043741773  1.0000
  H   H473      1.0  0.607006133648781  0.16604039493485778  0.26171388944245766  1.0000
  H   H474      1.0  0.6232272281974336  0.20033333291717226  0.2570711412744773  1.0000
  H   H475      1.0  0.6146301676417857  0.16028560466466737  0.20980160811323617  1.0000
  H   H476      1.0  0.6298695666510281  0.19490277043371884  0.2044977433070075  1.0000
  H   H477      1.0  0.5997789946944652  0.18738350144524507  0.18426015884876668  1.0000
  H   H478      1.0  0.5646682679616999  0.1571556545318514  0.23296373069392218  1.0000
  H   H479      1.0  0.5505122725545525  0.1855314975577452  0.20831853059002475  1.0000
  H   H480      1.0  0.5455897845188846  0.18916478063245745  0.24633702633961382  1.0000
  N   N25       1.0  0.43848377507698943  0.18364859962787408  0.9631798313369483  1.0000
  C   C385      1.0  0.4573402124852256  0.17868704227554882  0.9878439127009969  1.0000
  C   C386      1.0  0.43011094250445736  0.2150604508684326  0.9589653625625926  1.0000
  C   C387      1.0  0.41206796656764333  0.16731331306652017  0.9691128796960006  1.0000
  C   C388      1.0  0.45437262603131323  0.17362873553403949  0.9368595595587442  1.0000
  H   H481      1.0  0.4459047617134423  0.18601498428426927  0.008067147551187127  1.0000
  H   H482      1.0  0.47740085495466195  0.19084567400214722  0.9841216498079765  1.0000
  H   H483      1.0  0.46407630122961885  0.15518747811826794  0.9916779550575903  1.0000
  H   H484      1.0  0.41453930365553715  0.21942093305912705  0.9415568671131584  1.0000
  H   H485      1.0  0.41955453842926266  0.2236870056188137  0.978939481003344  1.0000
  H   H486      1.0  0.44929655305308425  0.22796047526929394  0.952759804586478  1.0000
  H   H487      1.0  0.39975233604411675  0.17417684674017636  0.9890074805390716  1.0000
  H   H488      1.0  0.41738041042430046  0.14346329407655517  0.9720194483828162  1.0000
  H   H489      1.0  0.39699410511519667  0.17099868763978643  0.9512012727070814  1.0000
  H   H490      1.0  0.46102526572908836  0.15000369290779783  0.9391478421709634  1.0000
  H   H491      1.0  0.4742772064404916  0.18575826318855435  0.9315434717672577  1.0000
  H   H492      1.0  0.440767644561861  0.17725027717926664  0.9178560613293882  1.0000
  N   N26       1.0  0.9482847953677365  0.4017668379015051  0.6965212268758354  1.0000
  C   C389      1.0  0.9615698356037405  0.3720262134372541  0.6932941373847251  1.0000
  C   C390      1.0  0.9355962027089444  0.40398798822937604  0.7261841042598661  1.0000
  C   C391      1.0  0.9251885788115078  0.4079556688761235  0.6758639588353642  1.0000
  C   C392      1.0  0.970724664700815  0.4231470491622732  0.6908158450571508  1.0000
  H   H493      1.0  0.9708089621776504  0.3692726492662046  0.6710027508998524  1.0000
  H   H494      1.0  0.9453421883991894  0.35528054582979596  0.698164077544421  1.0000
  H   H495      1.0  0.9794666885352398  0.36677842568542796  0.7081828187658515  1.0000
  H   H496      1.0  0.925473025396157  0.426203947968016  0.7294667690270233  1.0000
  H   H497      1.0  0.9181608964354517  0.3885932979896066  0.7309009667451097  1.0000
  H   H498      1.0  0.9522249065213921  0.39899976601527803  0.7424526959439715  1.0000
  H   H499      1.0  0.9139673394688022  0.4298571457211952  0.6784127989372455  1.0000
  H   H500      1.0  0.9081166378853927  0.39191083025107853  0.6792546245184535  1.0000
  H   H501      1.0  0.9339464716010101  0.4071622835530115  0.6531846487800226  1.0000
  H   H502      1.0  0.9612856033323884  0.44580800995026165  0.6930320076803147  1.0000
  H   H503      1.0  0.9808461920202226  0.42204517633295624  0.668623946664224  1.0000
  H   H504      1.0  0.9883989474853786  0.4191611496008818  0.7061494207355399  1.0000
  N   N27       1.0  0.35557756680794766  0.7934826874948017  0.6092094568755303  1.0000
  C   C393      1.0  0.3355219038355193  0.7696252270862508  0.6124231926749577  1.0000
  C   C394      1.0  0.35841618793088803  0.8052066304758471  0.6375917801191091  1.0000
  C   C395      1.0  0.34397540859260606  0.8169200189920085  0.5889734765634767  1.0000
  C   C396      1.0  0.38435326852113005  0.7821682722112324  0.5978704246786651  1.0000
  H   H505      1.0  0.3139248095126411  0.7771589114251676  0.6219205955518965  1.0000
  H   H506      1.0  0.3439955071125986  0.7511220393618121  0.6267822131554863  1.0000
  H   H507      1.0  0.33160118767371  0.7611642505005706  0.5912505811028197  1.0000
  H   H508      1.0  0.3732630849992073  0.8233581904338547  0.6361863529037609  1.0000
  H   H509      1.0  0.3370306349558856  0.813858278940419  0.6466914693034729  1.0000
  H   H510      1.0  0.3668905617294574  0.7881809027822956  0.653607056928591  1.0000
  H   H511      1.0  0.32264735283332924  0.8264878929119818  0.5972350258068655  1.0000
  H   H512      1.0  0.3403386356015373  0.8086607357796771  0.567630917021092  1.0000
  H   H513      1.0  0.3588628885162743  0.8349785987527825  0.5854021578454441  1.0000
  H   H514      1.0  0.40004199544022145  0.7996063977699447  0.595184563614034  1.0000
  H   H515      1.0  0.38285875829039323  0.7731410322362544  0.5764708295101743  1.0000
  H   H516      1.0  0.3937755455483604  0.7644703960398797  0.6126380200253855  1.0000
  N   N28       1.0  0.2759916248855552  0.2257589522094337  0.25789584703327023  1.0000
  C   C397      1.0  0.2872598188774734  0.20555692919261712  0.28125872116578904  1.0000
  C   C398      1.0  0.28070213745927625  0.21197065856714112  0.23013963167645649  1.0000
  C   C399      1.0  0.2914442198875905  0.2529434679951446  0.2564352781229726  1.0000
  C   C400      1.0  0.24455968458379268  0.2326204690879685  0.26374816922137356  1.0000
  H   H517      1.0  0.28407833150587397  0.21519323975909221  0.3025582490600307  1.0000
  H   H518      1.0  0.3109208177964696  0.19976637102532147  0.2774306887692038  1.0000
  H   H519      1.0  0.27594921570550357  0.18485965636204743  0.28303875256577166  1.0000
  H   H520      1.0  0.2699562729769674  0.19102641709127727  0.23062641248508456  1.0000
  H   H521      1.0  0.2719314993185242  0.2263033495868756  0.21210410476263286  1.0000
  H   H522      1.0  0.3042672052342563  0.20710744173334278  0.2246911555808905  1.0000
  H   H523      1.0  0.31506219009589564  0.2488773738381043  0.2506987451692171  1.0000
  H   H524      1.0  0.2892714430264208  0.26337416965481786  0.2773512948216466  1.0000
  H   H525      1.0  0.28256556430862373  0.26912187946971283  0.23988037830129624  1.0000
  H   H526      1.0  0.24034066433155  0.24358630243707352  0.28424955802858565  1.0000
  H   H527      1.0  0.23219809434958782  0.21257672515719744  0.2656747998065915  1.0000
  H   H528      1.0  0.235185576262492  0.24749192803427641  0.2463103410791224  1.0000
  N   N29       1.0  0.8156810605585189  0.02190118216692078  0.41337612572236215  1.0000
  C   C401      1.0  0.8185477327269486  0.9957460524980436  0.4334052854993888  1.0000
  C   C402      1.0  0.8334015797465928  0.04471103972456278  0.4227675124419737  1.0000
  C   C403      1.0  0.7848638033806667  0.03279512978123907  0.4133579852482727  1.0000
  C   C404      1.0  0.8258359969811003  0.014334523241898808  0.38400308480369016  1.0000
  H   H529      1.0  0.8415500191602544  0.986988496922689  0.43404245142001147  1.0000
  H   H530      1.0  0.805504304065983  0.9780877637449581  0.42677857296111077  1.0000
  H   H531      1.0  0.8108466918234034  0.0007545239343714961  0.4557206252679332  1.0000
  H   H532      1.0  0.8316482776775524  0.06474954643083573  0.408109581270041  1.0000
  H   H533      1.0  0.8259617994303432  0.05137453418738304  0.44465519323151653  1.0000
  H   H534      1.0  0.8567818218615338  0.03734346406756709  0.42316263398679155  1.0000
  H   H535      1.0  0.7816492124487182  0.05171513321463291  0.39743087989994325  1.0000
  H   H536      1.0  0.7768518577809448  0.040269607918552434  0.4347808024020851  1.0000
  H   H537      1.0  0.7706447042597572  0.01573675653597726  0.40782398192825486  1.0000
  H   H538      1.0  0.8230899741762586  0.03338572054989485  0.3681255516037005  1.0000
  H   H539      1.0  0.8133811855490262  0.9966942687050128  0.37650482916844136  1.0000
  H   H540      1.0  0.8492111412403694  0.006809435476302336  0.3828873056351735  1.0000
  N   N30       1.0  0.9653603370490041  0.2597140350238171  0.28766787810661276  1.0000
  C   C405      1.0  0.9562139041667334  0.2395177962038362  0.3120190948080056  1.0000
  C   C406      1.0  0.9598198292161909  0.24730778679728213  0.2602070347439771  1.0000
  C   C407      1.0  0.9967250636683872  0.26411805329552734  0.2885001046164542  1.0000
  C   C408      1.0  0.9487004813187478  0.2880124380176288  0.28987850193447817  1.0000
  H   H541      1.0  0.9325410584078325  0.23599426507875484  0.31198769238566526  1.0000
  H   H542      1.0  0.9601025509189643  0.24818694755528684  0.333082524593243  1.0000
  H   H543      1.0  0.9681645795409998  0.21782525451096002  0.31102483187284957  1.0000
  H   H544      1.0  0.9364982713310671  0.24327536488714915  0.25885444046440603  1.0000
  H   H545      1.0  0.9659030343314111  0.262249959756279  0.24134347813845133  1.0000
  H   H546      1.0  0.9725008649907034  0.22621142421750062  0.25760799319423316  1.0000
  H   H547      1.0  0.0017661187747688434  0.2739515806796488  0.30865173309072513  1.0000
  H   H548      1.0  0.0042035101738355785  0.27902522835723803  0.27009728230037694  1.0000
  H   H549      1.0  0.010068173808701841  0.24322431328800603  0.2871545481839664  1.0000
  H   H550      1.0  0.9527736681110067  0.2982801982117647  0.31006976174155637  1.0000
  H   H551      1.0  0.9248831798329573  0.2856183228977411  0.2899208130463184  1.0000
  H   H552      1.0  0.9546473688038848  0.3035404979518942  0.2715315108168068  1.0000
  N   N31       1.0  0.9329882297300953  0.26528494893521953  0.8215291745800504  1.0000
  C   C409      1.0  0.9210522172933372  0.2956724821417409  0.8172032760316741  1.0000
  C   C410      1.0  0.9649317777912984  0.26422796160101164  0.8163546850035649  1.0000
  C   C411      1.0  0.9203297809399802  0.24712958249866593  0.8011060479507804  1.0000
  C   C412      1.0  0.9255138915717872  0.25421317079723166  0.8513653504200241  1.0000
  H   H553      1.0  0.9299668671663861  0.31009018739768407  0.8322711764236912  1.0000
  H   H554      1.0  0.8969159800479246  0.2973047064653246  0.8205962067879088  1.0000
  H   H555      1.0  0.9264749838019426  0.30466259640622473  0.794981853249646  1.0000
  H   H556      1.0  0.974803966350394  0.24170098606780624  0.8199227750238476  1.0000
  H   H557      1.0  0.9711547113257885  0.27184020912579254  0.7937639159344869  1.0000
  H   H558      1.0  0.9752294186028262  0.27840052874051274  0.830730342971762  1.0000
  H   H559      1.0  0.925493583012709  0.25501286616225316  0.778345766477186  1.0000
  H   H560      1.0  0.8962127275872255  0.24754357133516966  0.8043176701416601  1.0000
  H   H561      1.0  0.9288874582148069  0.22403755693901328  0.8036349578692318  1.0000
  H   H562      1.0  0.9338650766506094  0.23118954740480196  0.8553874351042511  1.0000
  H   H563      1.0  0.9014977428474645  0.2551378981414825  0.8558990451051091  1.0000
  H   H564      1.0  0.9348659163263633  0.26736295594233395  0.8673143791720567  1.0000
  N   N32       1.0  0.2543790613308797  0.03932417031020785  0.5781403841143117  1.0000
  C   C413      1.0  0.2537502762859593  0.04848896939738889  0.547154922021904  1.0000
  C   C414      1.0  0.2770486938726227  0.05453053052257073  0.5911714921373689  1.0000
  C   C415      1.0  0.2609402896366811  0.007517841391923019  0.5817342367346805  1.0000
  C   C416      1.0  0.22576901520991086  0.04684973398989434  0.5925344309400329  1.0000
  H   H565      1.0  0.2369777548118409  0.0374253678103893  0.5364903293111293  1.0000
  H   H566      1.0  0.275106357364185  0.04357181723390546  0.5356319018928468  1.0000
  H   H567      1.0  0.24863333149740774  0.07237126639524583  0.5438961127698202  1.0000
  H   H568      1.0  0.27762679856151523  0.04879981205761119  0.614689488095128  1.0000
  H   H569      1.0  0.29905276227130523  0.0489411231096033  0.5813526340030634  1.0000
  H   H570      1.0  0.27310636341135347  0.07858258637972648  0.5883292684220518  1.0000
  H   H571      1.0  0.282370972994386  0.0010333007212195433  0.5711336152183923  1.0000
  H   H572      1.0  0.24414650997415122  0.9953064103922625  0.5723683365832868  1.0000
  H   H573      1.0  0.2616792813977337  5.440718271243483e-06  0.6049009104530466  1.0000
  H   H574      1.0  0.22553830114919662  0.04048386872521159  0.6159969077159366  1.0000
  H   H575      1.0  0.20811305883967138  0.03573774176133071  0.5833257829109868  1.0000
  H   H576      1.0  0.2201086040287772  0.0707139699997521  0.5902553539724084  1.0000
  N   N33       1.0  0.26609500935920627  0.5524722649656995  0.8344566015989995  1.0000
  C   C417      1.0  0.26670520905214523  0.5206242473170893  0.8409452956162529  1.0000
  C   C418      1.0  0.2709707847987949  0.5586836021089565  0.8030690817855077  1.0000
  C   C419      1.0  0.2890918226254728  0.5650010199202402  0.8496729632632857  1.0000
  C   C420      1.0  0.23746234000141297  0.5656307935682208  0.8440843186552639  1.0000
  H   H577      1.0  0.2626380778441714  0.5151218748227083  0.864388344555498  1.0000
  H   H578      1.0  0.2880263044766536  0.5098891652297496  0.8341153662726842  1.0000
  H   H579      1.0  0.24962882460969438  0.5107007904648795  0.829466975581852  1.0000
  H   H580      1.0  0.2709989526348003  0.5825115889436088  0.7974085740793573  1.0000
  H   H581      1.0  0.2921581580948844  0.5486473264178965  0.794944992639384  1.0000
  H   H582      1.0  0.25364356692606976  0.550031832419738  0.7909578326582288  1.0000
  H   H583      1.0  0.3111062562464017  0.5560168612183736  0.8426234795545688  1.0000
  H   H584      1.0  0.286249206735667  0.5605568924723487  0.8734063034205363  1.0000
  H   H585      1.0  0.28875986234663403  0.589112796549138  0.8455344066348405  1.0000
  H   H586      1.0  0.2334591847515772  0.5626061921682076  0.8678292364408532  1.0000
  H   H587      1.0  0.21946381901979642  0.5559699499733078  0.8339435753082217  1.0000
  H   H588      1.0  0.23571467478867533  0.589359791836418  0.8382584734840756  1.0000
  N   N34       1.0  0.8133654698396828  0.5565439837468006  0.2073819695416979  1.0000
  C   C421      1.0  0.8103501158056374  0.5250021614070366  0.21377453208098557  1.0000
  C   C422      1.0  0.8180246720219878  0.5702733758506405  0.2342927611240902  1.0000
  C   C423      1.0  0.7866660342881288  0.5700025092301413  0.19471643122706167  1.0000
  C   C424      1.0  0.8385360840082501  0.5610928160400231  0.1868657651315802  1.0000
  H   H589      1.0  0.7915052783750597  0.5208872996851034  0.2291731469861157  1.0000
  H   H590      1.0  0.8299942949159596  0.5143275168840351  0.22378719677848583  1.0000
  H   H591      1.0  0.807210982738695  0.5137344314273328  0.19392536473274627  1.0000
  H   H592      1.0  0.8207583838044673  0.5939610050776466  0.23009352917866696  1.0000
  H   H593      1.0  0.7995061913069329  0.5675972400266945  0.25041244570637994  1.0000
  H   H594      1.0  0.8379229238392515  0.5605981016380933  0.24449151192503285  1.0000
  H   H595      1.0  0.7673450515152507  0.5678427767295536  0.2099665177868364  1.0000
  H   H596      1.0  0.7821045451172135  0.5598371735081079  0.17461466532272663  1.0000
  H   H597      1.0  0.7885587461576435  0.5937082389835938  0.18914872381416292  1.0000
  H   H598      1.0  0.8416038218474178  0.5847618494884238  0.18198975962599453  1.0000
  H   H599      1.0  0.8357729725654001  0.5512701968280596  0.16612921277590387  1.0000
  H   H600      1.0  0.859032854771391  0.5511924740994099  0.19576471928028427  1.0000
  N   N35       1.0  0.9840603944879811  0.424625008711934  0.20489419938231881  1.0000
  C   C425      1.0  0.9642738497420277  0.4487605611595158  0.21503672807533783  1.0000
  C   C426      1.0  0.006643838353802334  0.4172755588800252  0.22586952632300772  1.0000
  C   C427      1.0  0.997971509011662  0.4334783195016296  0.17658699749895718  1.0000
  C   C428      1.0  0.9672578715392596  0.3988972220704819  0.20203114502071823  1.0000
  H   H601      1.0  0.9473354114497449  0.4552045777947675  0.19935375373648628  1.0000
  H   H602      1.0  0.9761390964415698  0.4683990821429769  0.21826169089069236  1.0000
  H   H603      1.0  0.952510531091409  0.44237024357886595  0.235840742603416  1.0000
  H   H604      1.0  0.02168369165995543  0.3987860969378037  0.2190973281574879  1.0000
  H   H605      1.0  0.020057635825111664  0.4360194023037188  0.22837277943163978  1.0000
  H   H606      1.0  0.9968071353305183  0.4107829712530139  0.2475362712001899  1.0000
  H   H607      1.0  0.01309428112245703  0.4156823633040163  0.1684525892594317  1.0000
  H   H608      1.0  0.010686457705805674  0.4529844649304576  0.1778557150242727  1.0000
  H   H609      1.0  0.9814663393688117  0.43887369915377306  0.16021822357587512  1.0000
  H   H610      1.0  0.9812781327958646  0.3802368609930313  0.19405404839980825  1.0000
  H   H611      1.0  0.9495887291257966  0.40387327712662524  0.186819667712322  1.0000
  H   H612      1.0  0.9567556934620653  0.391387753486184  0.22303796194046976  1.0000
  N   N36       1.0  0.2893490367616032  0.9272464713221559  0.7408842953019645  1.0000
  C   C429      1.0  0.26167769886021347  0.9290168323758083  0.7262199758757418  1.0000
  C   C430      1.0  0.2848908183806459  0.9414752894880435  0.768401075753883  1.0000
  C   C431      1.0  0.31157797369423806  0.94218113369472  0.7223372902375793  1.0000
  C   C432      1.0  0.29922748442529984  0.8963434653801751  0.7465490419206879  1.0000
  H   H613      1.0  0.2538810411207584  0.9520282144627018  0.7208546300957487  1.0000
  H   H614      1.0  0.24418278469850224  0.9184114738021729  0.7397044098503766  1.0000
  H   H615      1.0  0.26407138983785144  0.9179367343741316  0.7056739542817083  1.0000
  H   H616      1.0  0.30535956035254386  0.9405899760132899  0.7800348149378702  1.0000
  H   H617      1.0  0.27739684065799497  0.9648449685399871  0.764784627107123  1.0000
  H   H618      1.0  0.26823695796192754  0.9307501860152498  0.7829423227965618  1.0000
  H   H619      1.0  0.33280929880534477  0.941119242717523  0.7326355733766312  1.0000
  H   H620      1.0  0.3048976457470431  0.96564042947983  0.7177323979953919  1.0000
  H   H621      1.0  0.31532265848502056  0.932121920005071  0.7012853677994968  1.0000
  H   H622      1.0  0.3200409478660299  0.8939887056557719  0.7576660923356936  1.0000
  H   H623      1.0  0.3029625629016778  0.8849943095314297  0.7261790195491004  1.0000
  H   H624      1.0  0.2828958523396067  0.88433481473914  0.7603277203497079  1.0000
  N   N37       1.0  0.33777956548890625  0.8852877278221463  0.27251917284851845  1.0000
  C   C433      1.0  0.3378380659209532  0.8687220757407613  0.3008030139560391  1.0000
  C   C434      1.0  0.3659330978652965  0.8985867013585619  0.2666529596230662  1.0000
  C   C435      1.0  0.31397202944330366  0.9083246903675749  0.27291322974167365  1.0000
  C   C436      1.0  0.33335552600713053  0.8654599050320856  0.2497661919209029  1.0000
  H   H625      1.0  0.31726284992469633  0.8577013437431489  0.305584545036367  1.0000
  H   H626      1.0  0.3401762194766607  0.8830985472830277  0.318657159134911  1.0000
  H   H627      1.0  0.35586915509561196  0.8514634297692272  0.301645366287806  1.0000
  H   H628      1.0  0.3665872919605364  0.9114627037764669  0.24555868749134024  1.0000
  H   H629      1.0  0.3700862200694579  0.9134023239220167  0.28363971627594636  1.0000
  H   H630      1.0  0.38423644375080535  0.8816071679386622  0.2659947381374293  1.0000
  H   H631      1.0  0.31277329434131446  0.9209978954817089  0.2517950611638714  1.0000
  H   H632      1.0  0.316685763051297  0.9238695382617284  0.28968257752434057  1.0000
  H   H633      1.0  0.2924700500718719  0.8989662264125812  0.2780144598433298  1.0000
  H   H634      1.0  0.33418207214498225  0.8769070253404081  0.22796161380586016  1.0000
  H   H635      1.0  0.3118245644669309  0.8558877389775297  0.25299973900777195  1.0000
  H   H636      1.0  0.3502575572745464  0.847061716568063  0.24958136681634815  1.0000
  N   N38       1.0  0.6117960641029755  0.8096842721989592  0.22440048135921878  1.0000
  C   C437      1.0  0.6253794827365217  0.7942331574584629  0.24953173215667593  1.0000
  C   C438      1.0  0.6344473719572375  0.8160595686527086  0.20153203186364746  1.0000
  C   C439      1.0  0.5969048126244786  0.837289998371197  0.2331342041582687  1.0000
  C   C440      1.0  0.5904787194577246  0.7911926588580417  0.21341164089639367  1.0000
  H   H637      1.0  0.641793400322545  0.8074540570835482  0.25828261225970006  1.0000
  H   H638      1.0  0.636675800914013  0.77320258573081  0.2437025050017072  1.0000
  H   H639      1.0  0.6089929695050648  0.7891810785787079  0.2673070432319872  1.0000
  H   H640      1.0  0.6511461937917093  0.8297310475471316  0.20908658041932826  1.0000
  H   H641      1.0  0.6461338994445979  0.7957856015774942  0.194382619863  1.0000
  H   H642      1.0  0.6250395848355579  0.8275808881989829  0.18212547738873425  1.0000
  H   H643      1.0  0.5864038679042531  0.8494718399086402  0.21464035274328405  1.0000
  H   H644      1.0  0.6124720252273393  0.8517102029218089  0.2415078537971335  1.0000
  H   H645      1.0  0.5797002066111836  0.833321513779086  0.2504227304359256  1.0000
  H   H646      1.0  0.5801837962234307  0.8018101896653341  0.19402043142244838  1.0000
  H   H647      1.0  0.5728195447865186  0.7861455587559267  0.22988917347487373  1.0000
  H   H648      1.0  0.6009290174282544  0.770008936916324  0.20694028179570495  1.0000
  N   N39       1.0  0.3017517484553051  0.7024415736736828  0.26232407417251213  1.0000
  C   C441      1.0  0.2728191938956838  0.6905187811866993  0.2673429311466871  1.0000
  C   C442      1.0  0.32437379047002496  0.6782542083563915  0.2615560971361772  1.0000
  C   C443      1.0  0.3069571472217347  0.7210352259143684  0.2858846202838024  1.0000
  C   C444      1.0  0.3029390893179574  0.7199176925124614  0.23452947512262848  1.0000
  H   H649      1.0  0.2714342095143056  0.676465864978845  0.2877194535238282  1.0000
  H   H650      1.0  0.2677970437786569  0.6770750143922629  0.2495465358652879  1.0000
  H   H651      1.0  0.2552498395874178  0.7081237469216893  0.2690343820239833  1.0000
  H   H652      1.0  0.3464671359255816  0.6864556273914466  0.2573683321142117  1.0000
  H   H653      1.0  0.3243140329472583  0.6646825265089145  0.2822238618211558  1.0000
  H   H654      1.0  0.3210441694890879  0.6636592992688273  0.24415734867495603  1.0000
  H   H655      1.0  0.32872491468905307  0.7301706391271485  0.28289047206940815  1.0000
  H   H656      1.0  0.30600210037557246  0.7085886705857491  0.30720373489425873  1.0000
  H   H657      1.0  0.29047506143412116  0.7397059242064418  0.28697339842535513  1.0000
  H   H658      1.0  0.32447909996012825  0.7291914759391103  0.23006298157702848  1.0000
  H   H659      1.0  0.28628116764587197  0.7384682526246528  0.23422513565982175  1.0000
  H   H660      1.0  0.2993713577970596  0.706509361118998  0.21622486477643066  1.0000
  N   N40       1.0  0.8374546843431443  0.7644564525219936  0.4360776143035207  1.0000
  C   C445      1.0  0.8541433591255337  0.7426201800052303  0.4542789888710974  1.0000
  C   C446      1.0  0.8555473269520976  0.7733161058816301  0.41013523901767013  1.0000
  C   C447      1.0  0.8290012996669311  0.7902230863187952  0.4525586299155686  1.0000
  C   C448      1.0  0.8110304079539445  0.7516650385322169  0.4273940118830143  1.0000
  H   H661      1.0  0.8742126316221434  0.7515210890313802  0.4613286082837184  1.0000
  H   H662      1.0  0.8608009998123931  0.7228443797894036  0.44246815686476204  1.0000
  H   H663      1.0  0.8410303968288473  0.7355096725663864  0.4740255477502008  1.0000
  H   H664      1.0  0.8434722395629366  0.7895470004937618  0.39568531876948526  1.0000
  H   H665      1.0  0.875485779783757  0.7834151686115364  0.41584466977501394  1.0000
  H   H666      1.0  0.8626009287364754  0.7543553851233958  0.39728715367434103  1.0000
  H   H667      1.0  0.8162261821429228  0.8070071401092703  0.43941866839720206  1.0000
  H   H668      1.0  0.8482801938926354  0.8005375893530435  0.45959590853065846  1.0000
  H   H669      1.0  0.8151545787821832  0.7843710154558087  0.4722108290860135  1.0000
  H   H670      1.0  0.7979440930914061  0.7675118754818372  0.41356699860466256  1.0000
  H   H671      1.0  0.7965483448526953  0.7452990734554363  0.44642470923661265  1.0000
  H   H672      1.0  0.8164405603923482  0.7319936343353324  0.41510306678120207  1.0000
  N   N41       1.0  0.5581740693836148  0.6970580384339081  0.934699331257698  1.0000
  C   C449      1.0  0.5526493164799362  0.6808517608917477  0.909486475325414  1.0000
  C   C450      1.0  0.565249651396935  0.7270716024126102  0.9250095020309185  1.0000
  C   C451      1.0  0.5828472290280848  0.6823419112695986  0.949883189437668  1.0000
  C   C452      1.0  0.5319064038574781  0.6980550293439716  0.9543528256751755  1.0000
  H   H673      1.0  0.5480987252140707  0.6578460840491522  0.9157705956287332  1.0000
  H   H674      1.0  0.5716468833632915  0.6805781417605566  0.8936063081112441  1.0000
  H   H675      1.0  0.5336054403439293  0.6909076248064483  0.8980644172019625  1.0000
  H   H676      1.0  0.5710127520311412  0.7395512710784363  0.9432671275033762  1.0000
  H   H677      1.0  0.5841916401685454  0.7271369235330984  0.9091167683647096  1.0000
  H   H678      1.0  0.5466857678760506  0.7393131931581846  0.9146418158788074  1.0000
  H   H679      1.0  0.5784442903587107  0.6596083851174824  0.9574982318447154  1.0000
  H   H680      1.0  0.5879127480902973  0.6941986609173043  0.9688454390261373  1.0000
  H   H681      1.0  0.602998102526093  0.6814814961508565  0.9355749292956943  1.0000
  H   H682      1.0  0.5129293363835733  0.7090279954593603  0.9433434258436058  1.0000
  H   H683      1.0  0.5353180651086012  0.7103115553503573  0.9735050672010674  1.0000
  H   H684      1.0  0.5258802669418192  0.6757684151642831  0.9620428576910067  1.0000
  N   N42       1.0  0.8027956931352092  0.53896364122811  0.8385154890967706  1.0000
  C   C453      1.0  0.7755755537856356  0.523694861371059  0.8393943709081156  1.0000
  C   C454      1.0  0.8275011916195664  0.5175683163321207  0.8437401838176923  1.0000
  C   C455      1.0  0.8008432532273645  0.5603232634384397  0.8609291802424581  1.0000
  C   C456      1.0  0.8073864405640607  0.5542707337574485  0.8098821653947992  1.0000
  H   H685      1.0  0.7764802191559137  0.5074454049784578  0.8226732173069854  1.0000
  H   H686      1.0  0.7565087144885269  0.5392311076293592  0.8354115521521452  1.0000
  H   H687      1.0  0.7713947928494129  0.5118612559605532  0.860699596127488  1.0000
  H   H688      1.0  0.8300258669327827  0.5015149834795178  0.8268070773814085  1.0000
  H   H689      1.0  0.8484050390463695  0.5284363915609022  0.8432643826397981  1.0000
  H   H690      1.0  0.8247715408585744  0.5052514470516722  0.8649724997517628  1.0000
  H   H691      1.0  0.7819554610377641  0.576342019952093  0.8581919531613796  1.0000
  H   H692      1.0  0.820706303481932  0.572920106039645  0.8601136371692504  1.0000
  H   H693      1.0  0.7982952547204504  0.549465550363876  0.8829101930297647  1.0000
  H   H694      1.0  0.8096220584815961  0.5387811532124656  0.7924237543387302  1.0000
  H   H695      1.0  0.8277495468980558  0.566027952317585  0.8086056771890371  1.0000
  H   H696      1.0  0.7891744050693092  0.5704611301766247  0.8048991905144631  1.0000
  N   N43       1.0  0.2565184715289283  0.2532199778764315  0.6785490636218972  1.0000
  C   C457      1.0  0.23242303854420815  0.2752885841403442  0.6730848527924039  1.0000
  C   C458      1.0  0.24519498773494142  0.22793568455995122  0.6957515736487397  1.0000
  C   C459      1.0  0.27880666324805453  0.2658665472209301  0.6945651820698431  1.0000
  C   C460      1.0  0.2696201666141965  0.24362444879955397  0.6508060943722271  1.0000
  H   H697      1.0  0.24006292866458448  0.29488855175081513  0.6603909590125239  1.0000
  H   H698      1.0  0.22156113541670505  0.2826820952897687  0.693531672656749  1.0000
  H   H699      1.0  0.2152810793528993  0.2664322341476865  0.6609042674018333  1.0000
  H   H700      1.0  0.26291335756813683  0.21140575002867198  0.7015645503521256  1.0000
  H   H701      1.0  0.23316113238323766  0.2345596756639518  0.7158314652416341  1.0000
  H   H702      1.0  0.22983275118482369  0.21682184873400245  0.683480025305837  1.0000
  H   H703      1.0  0.26958115361567997  0.27339062417225635  0.7155734518314266  1.0000
  H   H704      1.0  0.28795040307036857  0.28494914948148237  0.6821587333877159  1.0000
  H   H705      1.0  0.2972357441620771  0.2496028743994961  0.6989846279800467  1.0000
  H   H706      1.0  0.2877341713447478  0.22676973297954445  0.6541612602585746  1.0000
  H   H707      1.0  0.278521838029522  0.2620794417310124  0.6372236095454036  1.0000
  H   H708      1.0  0.25336843349909965  0.23382018429894974  0.6382527414354027  1.0000
  N   N44       1.0  0.7605752222226719  0.7806825347985816  0.08447260753928841  1.0000
  C   C461      1.0  0.7695980672561006  0.7510601563854897  0.09617668419660855  1.0000
  C   C462      1.0  0.7603196033801446  0.7810067393014835  0.052730851283884037  1.0000
  C   C463      1.0  0.7811919189222335  0.8014888512743172  0.09265489620058577  1.0000
  C   C464      1.0  0.7311364899160909  0.7891837255446956  0.0964013642020571  1.0000
  H   H709      1.0  0.7545285551849611  0.7347647319820348  0.09035293129271568  1.0000
  H   H710      1.0  0.7697753352697708  0.7499035390140754  0.12011217360417235  1.0000
  H   H711      1.0  0.7917105434786595  0.7438922641892481  0.08764615023014975  1.0000
  H   H712      1.0  0.7821437704852349  0.7746400571472778  0.042925584529224375  1.0000
  H   H713      1.0  0.7449421066850116  0.7654375427693605  0.04594015352724302  1.0000
  H   H714      1.0  0.7533340425680909  0.8029279085794534  0.043138794023515836  1.0000
  H   H715      1.0  0.7815539064845779  0.80187910856784  0.11652554819563618  1.0000
  H   H716      1.0  0.7751004992309153  0.824052383350628  0.08407626234064111  1.0000
  H   H717      1.0  0.8037158656236628  0.7956476773098777  0.08424471272207165  1.0000
  H   H718      1.0  0.7237247254146247  0.8115629667231068  0.08840880321636074  1.0000
  H   H719      1.0  0.7302987801305751  0.7886058243755629  0.120358025773582  1.0000
  H   H720      1.0  0.7149482243381052  0.7742579334390995  0.09021587448405015  1.0000
  N   N45       1.0  0.34477855742760466  0.03757453100799252  0.33674371010493814  1.0000
  C   C465      1.0  0.36374426930496134  0.04010996910430202  0.31015643933133297  1.0000
  C   C466      1.0  0.3396739554597969  0.006650637519162005  0.3446277574483822  1.0000
  C   C467      1.0  0.31670019335578914  0.05376874631399174  0.33179369599085634  1.0000
  C   C468      1.0  0.3587962260074261  0.05001744439551573  0.3604391915300627  1.0000
  H   H721      1.0  0.36785952748332873  0.0633724367470088  0.30394732445702666  1.0000
  H   H722      1.0  0.3536271008459895  0.03136958674723002  0.29170735653416235  1.0000
  H   H723      1.0  0.38520923284782355  0.02815693477423873  0.3129483071181762  1.0000
  H   H724      1.0  0.3286738644472108  0.9966540233175638  0.3274476917453434  1.0000
  H   H725      1.0  0.3603474877706931  0.9936281311554604  0.3485882264148994  1.0000
  H   H726      1.0  0.32530846986683065  0.004319609665483626  0.3646371508376007  1.0000
  H   H727      1.0  0.30231268254310434  0.05347654995990882  0.3517767982660823  1.0000
  H   H728      1.0  0.304929444558312  0.04440728627550761  0.3147823458230019  1.0000
  H   H729      1.0  0.319766219918393  0.07690647437344539  0.32473939230273263  1.0000
  H   H730      1.0  0.36206278489270793  0.07364228632704788  0.35558061517394707  1.0000
  H   H731      1.0  0.3804360354718382  0.03887516387218876  0.36431089501785024  1.0000
  H   H732      1.0  0.3452958477794217  0.047924763970782484  0.380987355192002  1.0000
  N   N46       1.0  0.5891858014371647  0.2639285384575456  0.04720495507963726  1.0000
  C   C469      1.0  0.6130349517681413  0.28052592377288116  0.056233970940656984  1.0000
  C   C470      1.0  0.5899868496248444  0.234894548907984  0.0627853830787634  1.0000
  C   C471      1.0  0.5927486983531801  0.2605890113935622  0.015838375502104648  1.0000
  C   C472      1.0  0.5610082661569212  0.279728994230433  0.05408011070778746  1.0000
  H   H733      1.0  0.6136877656250114  0.302239493855547  0.04434919559117819  1.0000
  H   H734      1.0  0.6345945489402683  0.26877030475155606  0.05232363993188378  1.0000
  H   H735      1.0  0.6104866119707935  0.28424294230200653  0.07959981971524704  1.0000
  H   H736      1.0  0.5721810777218989  0.22178886857300126  0.05670296079179194  1.0000
  H   H737      1.0  0.6108932183547947  0.2223055610839467  0.05810732369951653  1.0000
  H   H738      1.0  0.5875522605825085  0.2367145880908176  0.08652303443052736  1.0000
  H   H739      1.0  0.5758076561489638  0.24725363451297197  0.008305112517981758  1.0000
  H   H740      1.0  0.6142365986031741  0.24966103955980617  0.009852883287010668  1.0000
  H   H741      1.0  0.5915262103263209  0.28204863675071445  0.003371192707440463  1.0000
  H   H742      1.0  0.5424877616958873  0.26782713747451675  0.04760278452297999  1.0000
  H   H743      1.0  0.5596993516801642  0.3018836687568386  0.0430009454722666  1.0000
  H   H744      1.0  0.5576743695551448  0.2824546291345505  0.07766205779193203  1.0000
  N   N47       1.0  0.22304952860304042  0.21921558371695596  0.4451546768151793  1.0000
  C   C473      1.0  0.2292370913492483  0.19318381920527097  0.42855115588254505  1.0000
  C   C474      1.0  0.22594725942712096  0.2456480673646098  0.42567128161976653  1.0000
  C   C475      1.0  0.24392042068214972  0.2188557893978501  0.4681116279290594  1.0000
  C   C476      1.0  0.19312805577485678  0.21896294000952182  0.45821259737630504  1.0000
  H   H745      1.0  0.251882620701754  0.19230812325636604  0.4189969521889545  1.0000
  H   H746      1.0  0.2143528134710617  0.19276971289897046  0.4105835307755819  1.0000
  H   H747      1.0  0.22692464766567025  0.17287977287295864  0.44257073443452144  1.0000
  H   H748      1.0  0.2217144110582108  0.26580960202724147  0.4374439295580012  1.0000
  H   H749      1.0  0.2481806672273932  0.24617336057048855  0.4151080601003246  1.0000
  H   H750      1.0  0.2103237328522427  0.24659315680159805  0.4082097703831199  1.0000
  H   H751      1.0  0.2420895867085991  0.19925352987452546  0.483306263690012  1.0000
  H   H752      1.0  0.24031489510560902  0.23835679165607684  0.4809351708506615  1.0000
  H   H753      1.0  0.2668099469164178  0.21816656815327895  0.45902846915367806  1.0000
  H   H754      1.0  0.18761265440770655  0.23836955777255306  0.4708657980248582  1.0000
  H   H755      1.0  0.19030980499138989  0.1992348483076877  0.47305435530186785  1.0000
  H   H756      1.0  0.17690509301574975  0.2188921323598532  0.44142044330456465  1.0000
  N   N48       1.0  0.7830213474904769  0.7299682992258123  0.2658363132610268  1.0000
  C   C477      1.0  0.76030617286416  0.7266964764924619  0.2453857346455962  1.0000
  C   C478      1.0  0.7852531152387578  0.7038147073539884  0.2859684069133314  1.0000
  C   C479      1.0  0.7753543146835964  0.7560004197035799  0.2822516692877016  1.0000
  C   C480      1.0  0.8112431686355895  0.7333001884540866  0.24970111123168065  1.0000
  H   H757      1.0  0.757680931076562  0.7462880491075804  0.23019914428057456  1.0000
  H   H758      1.0  0.738804808132832  0.7234864407075112  0.25681767094943864  1.0000
  H   H759      1.0  0.7656494601250381  0.7076379981121595  0.23219497928634228  1.0000
  H   H760      1.0  0.8022804024340346  0.705528747882082  0.3016418257519813  1.0000
  H   H761      1.0  0.764377583417918  0.7005406581518366  0.29856006032298815  1.0000
  H   H762      1.0  0.7911389956555105  0.6837982556007809  0.27431462072452517  1.0000
  H   H763      1.0  0.7921884976258394  0.7593722262556638  0.29766666996685565  1.0000
  H   H764      1.0  0.754283613633384  0.754137561235129  0.29494107619241916  1.0000
  H   H765      1.0  0.7731930339952696  0.7761530818571002  0.26774864044594027  1.0000
  H   H766      1.0  0.8288863833729259  0.7357597679552211  0.26448787871538976  1.0000
  H   H767      1.0  0.8104385685077744  0.7528589036584132  0.234339108903624  1.0000
  H   H768      1.0  0.8177187237232769  0.7139604481872981  0.23712300989702254  1.0000
